#------------------------------------------------------------------------------
#$Date: 2017-02-04 15:25:49 +0200 (Sat, 04 Feb 2017) $
#$Revision: 191487 $
#$URL: file:///home/coder/svn-repositories/cod/cif/7/11/92/7119274.cif $
#------------------------------------------------------------------------------
#
# This file is available in the Crystallography Open Database (COD),
# http://www.crystallography.net/
#
# All data on this site have been placed in the public domain by the
# contributors.
#
data_7119274
loop_
_publ_author_name
'Song, Bai-Qiao'
'Chen, Da-Qin'
'Ji, Zhenguo'
'Tang, Junhong'
'Wang, Xin-Long'
'Zang, Hong-Ying'
'Su, Zhong-Min'
_publ_section_title
;
 Control of bulk homochirality and proton conductivity in isostructural
 chiral metal-organic frameworks.
;
_journal_issue                   11
_journal_name_full
'Chemical communications (Cambridge, England)'
_journal_page_first              1892
_journal_page_last               1895
_journal_paper_doi               10.1039/c6cc07729c
_journal_volume                  53
_journal_year                    2017
_chemical_absolute_configuration known
_chemical_formula_moiety         'C18 H30 Cu4 N9 O6, NO3, 3H2O'
_chemical_formula_sum            'C18 H36 Cu4 N10 O12'
_chemical_formula_weight         838.73
_space_group_crystal_system      hexagonal
_space_group_IT_number           182
_space_group_name_Hall           'P 6c 2c'
_space_group_name_H-M_alt        'P 63 2 2'
_symmetry_space_group_name_Hall  'P 6c 2c'
_symmetry_space_group_name_H-M   'P 63 2 2'
_atom_sites_solution_hydrogens   geom
_atom_sites_solution_primary     direct
_atom_sites_solution_secondary   difmap
_audit_creation_method           SHELXL-2016/6
_audit_update_record
;
2016-12-22 deposited with the CCDC.
2017-01-03 downloaded from the CCDC.
;
_cell_angle_alpha                90
_cell_angle_beta                 90
_cell_angle_gamma                120
_cell_formula_units_Z            4
_cell_length_a                   19.613(3)
_cell_length_b                   19.613(3)
_cell_length_c                   13.849(3)
_cell_measurement_reflns_used    3085
_cell_measurement_temperature    100(2)
_cell_measurement_theta_max      37.207
_cell_measurement_theta_min      4.795
_cell_volume                     4613.6(14)
_computing_cell_refinement       SMART
_computing_data_collection       'SMART (Bruker, 1997)'
_computing_data_reduction        'SAINT (Bruker, 1999)'
_computing_molecular_graphics    'Diamond (Brandenburg and Putz, 2008)'
_computing_publication_material  'SHELXL-2016/6 (Sheldrick, 2016)'
_computing_structure_refinement  'SHELXL-2016/6 (Sheldrick, 2016)'
_computing_structure_solution    'SHELXS-2016/6 (Sheldrick, 2016)'
_diffrn_ambient_temperature      100(2)
_diffrn_measured_fraction_theta_full 0.996
_diffrn_measured_fraction_theta_max 0.996
_diffrn_measurement_device_type  'Bruker APEX CCD area-detector'
_diffrn_measurement_method       '\w scans'
_diffrn_radiation_type           MoK\a
_diffrn_radiation_wavelength     0.71073
_diffrn_reflns_av_R_equivalents  0.0909
_diffrn_reflns_av_unetI/netI     0.0487
_diffrn_reflns_Laue_measured_fraction_full 0.996
_diffrn_reflns_Laue_measured_fraction_max 0.996
_diffrn_reflns_limit_h_max       23
_diffrn_reflns_limit_h_min       -23
_diffrn_reflns_limit_k_max       23
_diffrn_reflns_limit_k_min       -23
_diffrn_reflns_limit_l_max       16
_diffrn_reflns_limit_l_min       -15
_diffrn_reflns_number            26991
_diffrn_reflns_point_group_measured_fraction_full 0.997
_diffrn_reflns_point_group_measured_fraction_max 0.997
_diffrn_reflns_theta_full        25.099
_diffrn_reflns_theta_max         25.099
_diffrn_reflns_theta_min         1.897
_diffrn_source                   'fine-focus sealed tube'
_exptl_absorpt_coefficient_mu    1.867
_exptl_absorpt_correction_T_max  0.7301
_exptl_absorpt_correction_T_min  0.6632
_exptl_absorpt_correction_type   multi-scan
_exptl_crystal_colour            colorless
_exptl_crystal_density_diffrn    1.208
_exptl_crystal_description       block
_exptl_crystal_F_000             1704
_exptl_crystal_size_max          0.240
_exptl_crystal_size_mid          0.180
_exptl_crystal_size_min          0.180
_refine_diff_density_max         0.794
_refine_diff_density_min         -0.464
_refine_diff_density_rms         0.078
_refine_ls_abs_structure_details
;
 Flack x determined using 563 quotients [(I+)-(I-)]/[(I+)+(I-)]
 (Parsons, Flack and Wagner, Acta Cryst. B69 (2013) 249-259).
;
_refine_ls_abs_structure_Flack   0.04(2)
_refine_ls_extinction_method     none
_refine_ls_goodness_of_fit_ref   1.058
_refine_ls_hydrogen_treatment    constr
_refine_ls_matrix_type           full
_refine_ls_number_parameters     113
_refine_ls_number_reflns         2759
_refine_ls_number_restraints     66
_refine_ls_restrained_S_all      1.133
_refine_ls_R_factor_all          0.0932
_refine_ls_R_factor_gt           0.0583
_refine_ls_shift/su_max          0.000
_refine_ls_shift/su_mean         0.000
_refine_ls_structure_factor_coef Fsqd
_refine_ls_weighting_details
'w=1/[\s^2^(Fo^2^)+(0.1062P)^2^] where P=(Fo^2^+2Fc^2^)/3'
_refine_ls_weighting_scheme      calc
_refine_ls_wR_factor_gt          0.1581
_refine_ls_wR_factor_ref         0.1785
_reflns_Friedel_coverage         0.678
_reflns_Friedel_fraction_full    0.997
_reflns_Friedel_fraction_max     0.997
_reflns_number_gt                1781
_reflns_number_total             2759
_reflns_threshold_expression     'I > 2\s(I)'
_cod_data_source_file            c6cc07729c2.cif
_cod_data_source_block           2P
_cod_depositor_comments
'Adding full bibliography for 7119274--7119277.cif.'
_cod_original_cell_volume        4613.6(16)
_cod_database_code               7119274
_shelx_shelxl_version_number     2016/6
_shelx_space_group_comment
;
The symmetry employed for this shelxl refinement is uniquely defined
by the following loop, which should always be used as a source of
symmetry information in preference to the above space-group names.
They are only intended as comments.
;
_shelx_estimated_absorpt_t_min   0.663
_shelx_estimated_absorpt_t_max   0.730
_shelx_res_file
;
TITL OO in P6(3)22
    oo.res
    created by SHELXL-2016/6 at 15:54:08 on 22-Dec-2016
CELL  0.71073  19.6130  19.6130  13.8490   90.000   90.000  120.000
ZERR    4.00   0.0030   0.0031   0.0025    0.000    0.000    0.000
LATT  -1
SYMM  - X, - Y, 1/2 + Z
SYMM  - Y,   X - Y,   Z
SYMM  - X + Y, - X,   Z
SYMM    X - Y,   X, 1/2 + Z
SYMM    Y, - X + Y, 1/2 + Z
SYMM    X - Y, - Y, - Z
SYMM  - X, - X + Y, - Z
SYMM    Y,   X, - Z
SYMM  - Y, - X, 1/2 - Z
SYMM    X,   X - Y, 1/2 - Z
SYMM  - X + Y,   Y, 1/2 - Z
SFAC  C    N    CU   O    H
UNIT  72   40   16   48   144
MERG   2
ABIN
SIMU 0.01 0.03 3.8 C3 C5 O2
DELU 0.01 0.03  C3 C5 O2
SIMU 0.01 0.03 3.8 C4 C6 O1
DELU 0.01 0.03  C4 C6 O1
DFIX 1.52 0.001 C4 C6 C3 C5
DFIX 1.42 0.001 C4 O1 C3 O2
DFIX 2.38 0.001 C6 O1 C5 O2
ISOR 0.02 0.05 O1 C4 C6
OMIT 0 1 0
OMIT -6 9 3
OMIT -2 9 0
FMAP   2
PLAN   25
SIZE 0.18 0.18 0.24
ACTA
BOND $H
CONF
L.S.   60    0   80
WGHT    0.106200
FVAR       0.12429
CU1   3    0.666667    0.333333    0.601268    10.33333    0.06765    0.06765 =
         0.05430    0.00000    0.00000    0.03382
CU2   3    0.522684    0.261342    0.750000    10.50000    0.07210    0.06921 =
         0.05819   -0.01417    0.00000    0.03605
CU3   3    0.461527    0.000000    0.500000    10.50000    0.12714    0.07129 =
         0.08007   -0.03094   -0.01547    0.03565
N1    2    0.591872    0.220207    0.600197    11.00000    0.08242    0.06584 =
         0.06137   -0.01556    0.00352    0.03200
N2    2    0.525849    0.191994    0.660661    11.00000    0.06890    0.06096 =
         0.05866   -0.01078   -0.00105    0.02313
C2    1    0.579740    0.162853    0.544220    11.00000    0.12177    0.08226 =
         0.06320   -0.01536   -0.01929    0.06888
N3    2    0.507351    0.094634    0.564537    11.00000    0.08708    0.08268 =
         0.06355   -0.01607   -0.00269    0.03420
C1    1    0.479355    0.118361    0.637090    11.00000    0.08147    0.06705 =
         0.06598   -0.00797    0.00213    0.02004
C4    1    0.401035    0.060241    0.672391    11.00000    0.11022    0.17544 =
         0.22576    0.12083    0.04910    0.03603
AFIX  13
H13   5    0.373767    0.023820    0.619029    11.00000   -1.20000
AFIX   0
C3    1    0.634063    0.167896    0.474222    11.00000    0.21581    0.18878 =
         0.09695   -0.00162    0.05840    0.14164
AFIX  13
H15   5    0.676585    0.222058    0.485021    11.00000   -1.20000
AFIX   0
O1    4    0.397287    0.013924    0.753203    11.00000    0.22694    0.31379 =
         0.32035    0.21287    0.04620    0.08997
AFIX  83
H1    5    0.430167    0.000054    0.747107    11.00000   -1.50000
AFIX   0
C6    1    0.354291    0.100735    0.696285    11.00000    0.20338    0.34875 =
         0.41332    0.13655    0.07929    0.14660
AFIX  33
H4A   5    0.303040    0.062461    0.719377    11.00000   -1.50000
H4B   5    0.381346    0.139769    0.745268    11.00000   -1.50000
H4C   5    0.348955    0.125558    0.639308    11.00000   -1.50000
AFIX   0
C5    1    0.614847    0.173486    0.369305    11.00000    0.25092    0.29657 =
         0.11161    0.01884    0.04353    0.16498
AFIX  33
H3A   5    0.656003    0.176597    0.328740    11.00000   -1.50000
H3B   5    0.565865    0.127669    0.352453    11.00000   -1.50000
H3C   5    0.610528    0.219723    0.360404    11.00000   -1.50000
AFIX   0
O2    4    0.677386    0.127728    0.477806    11.00000    0.31469    0.38036 =
         0.25260   -0.01674    0.03640    0.26682
AFIX  83
H2    5    0.652044    0.084670    0.451580    11.00000   -1.50000
AFIX   0
HKLF    4




REM  OO in P6(3)22
REM R1 =  0.0583 for    1781 Fo > 4sig(Fo)  and  0.0932 for all    2759 data
REM    113 parameters refined using     66 restraints

END

WGHT      0.1221      0.0000

REM Highest difference peak  0.794,  deepest hole -0.464,  1-sigma level  0.078
Q1    1   0.3329  0.0685  0.6181  11.00000  0.05    0.42
Q2    1   0.3292  0.0303  0.6160  11.00000  0.05    0.37
Q3    1   0.2978  0.1489  0.7500  10.50000  0.05    0.34
Q4    1   0.3413 -0.0611  0.7026  11.00000  0.05    0.30
Q5    1   0.3414  0.1707  0.7500  10.50000  0.05    0.25
Q6    1   0.3999  0.0744  0.8162  11.00000  0.05    0.24
Q7    1   0.5802  0.2215  0.3885  11.00000  0.05    0.24
Q8    1   0.6274  0.2697  0.6688  11.00000  0.05    0.24
Q9    1   0.3763  0.1691  0.6473  11.00000  0.05    0.23
Q10   1   0.4845  0.2384  0.6526  11.00000  0.05    0.23
Q11   1   0.4054  0.1321  0.5896  11.00000  0.05    0.23
Q12   1   0.4093  0.2027  0.6248  11.00000  0.05    0.22
Q13   1   0.5133  0.0207  0.4312  11.00000  0.05    0.21
Q14   1   0.4172 -0.0633  0.5489  11.00000  0.05    0.20
Q15   1   0.5804  0.2561  0.4947  11.00000  0.05    0.20
Q16   1   0.7313  0.2636  0.4997  11.00000  0.05    0.20
Q17   1   0.5303  0.2078  0.7424  11.00000  0.05    0.19
Q18   1   0.5421  0.1519  0.6804  11.00000  0.05    0.19
Q19   1   0.5606  0.2216  0.6757  11.00000  0.05    0.19
Q20   1   0.7348  0.2075  0.5208  11.00000  0.05    0.19
Q21   1   0.7641  0.1711  0.4644  11.00000  0.05    0.17
Q22   1   0.4791  0.2152  0.7679  11.00000  0.05    0.17
Q23   1   0.7481  0.1994  0.2623  11.00000  0.05    0.17
Q24   1   0.6601  0.0716  0.5701  11.00000  0.05    0.17
Q25   1   0.6800  0.2872  0.6643  11.00000  0.05    0.16
;
_shelx_res_checksum              97139
_shelx_hkl_file
;
   0   0  -1   -0.17    0.04
   0   0  -2  112.15    4.61
   0   0  -3    0.02    0.43
   0   0  -4  196.73    8.17
   0   0  -5    0.44    0.65
   0   0  -6   35.15    2.02
   0   0  -7   -0.76    0.76
   0   0  -8  565.55   23.09
   0   0  -9    0.01    1.13
   0   0   9    0.49    1.34
   0   0 -10   -0.30    1.12
   0   0  10    0.05    1.48
   0   0  11   -1.01    1.31
   0   0  11   -0.65    1.69
   0   0  12   64.79    4.67
   0   0  12   72.97    4.28
   0   0  13    0.58    1.68
   0   0  13   -0.86    2.08
   0   0  14   13.41    2.75
   0   0  15   -0.25    2.02
   0   0  16    0.41    2.65
   0  -1  16    2.82    2.69
   0  -1  15    3.17    2.23
   0  -1  14    6.02    2.58
   0  -1  13   28.87    2.80
   0  -1  13   25.32    3.15
   0  -1  12   11.44    2.30
   0   1 -12   11.09    1.88
   0  -1  11   13.62    2.37
   0   1 -11   16.88    2.00
   0  -1  10   -1.33    1.63
   0   1 -10    0.49    1.14
   0  -1   9    2.59    1.42
   0   1  -9    3.75    1.16
   0  -1   8   60.74    3.58
   0   1  -8   63.43    3.26
   0   1  -7  231.31    9.78
   0   1  -6   27.18    1.72
   0   1  -5   85.53    3.87
   0   1  -4    9.50    0.95
   0   1  -3    7.14    0.73
   0  -1   1  955.77   39.12
   0  -1   1  955.66   40.20
   0  -1   0    0.06    0.10
   0   1   0   -0.18    0.07
   0   1   1  923.49   36.96
   0   1   2   53.77    2.37
   0   1   3    7.24    0.76
   0   1   4    9.27    1.00
   0   1   5   81.07    3.72
   0   1   6   26.07    1.77
   0   1   7  246.28   10.44
   0   1   8   68.43    3.66
   0   1   9    4.05    1.33
   0   1  10    0.12    1.34
   0   1  10    0.51    1.65
   0   1  11   17.16    2.20
   0   1  11   15.74    2.57
   0   1  12    8.03    1.92
   0   1  12    9.82    2.44
   0   1  13   28.94    3.45
   0   1  13   30.92    3.11
   0   1  14   -1.82    2.35
   0   1  15    1.09    2.19
   0   1  16    0.15    2.29
   0  -2  16    0.46    2.67
   0  -2  15    1.00    2.40
   0  -2  14   20.34    3.07
   0  -2  13   12.77    2.52
   0   2 -13   15.16    2.18
   0  -2  12    0.89    1.97
   0   2 -12    0.03    1.45
   0  -2  11    0.71    1.90
   0   2 -11    2.59    1.45
   0  -2  10   12.31    2.01
   0   2 -10   11.43    1.67
   0  -2   9    4.38    1.64
   0   2  -9    3.49    1.19
   0  -2   8    3.29    1.36
   0   2  -8    2.27    1.04
   0  -2   7   97.02    4.76
   0   2  -7   94.05    4.47
   0  -2   6  332.01   14.03
   0   2  -6  327.91   13.62
   0  -2   5   24.85    1.68
   0   2  -5   24.50    1.58
   0  -2   4  366.18   14.86
   0   2  -4  347.55   14.52
   0  -2   3  111.71    4.81
   0  -2   2  643.00   28.19
   0  -2   2  701.58   27.44
   0  -2   1  225.16    9.73
   0   2  -1  232.72    9.30
   0  -2   0  123.38    5.35
   0   2   0  121.40    5.08
   0   2   1  215.68    8.79
   0   2   2  635.16   25.47
   0   2   3  108.83    4.72
   0   2   4  351.30   14.36
   0   2   5   26.79    1.69
   0   2   6  324.57   13.48
   0   2   7   87.91    4.30
   0   2   8    4.06    1.26
   0   2   9    4.22    1.42
   0   2  10   13.87    1.98
   0   2  11    1.30    1.87
   0   2  11    2.24    1.62
   0   2  12    1.32    1.63
   0   2  12   -0.32    1.80
   0   2  13   14.36    2.27
   0   2  13   13.03    2.70
   0   2  14   20.45    3.22
   0   2  15    0.19    2.10
   0   2  16   -0.96    2.25
   0  -3  15   -2.37    1.71
   0  -3  14    2.01    2.32
   0  -3  13   10.22    2.53
   0   3 -13    6.90    1.77
   0  -3  12    1.61    2.05
   0   3 -12   -0.90    1.33
   0  -3  11   -3.25    1.68
   0   3 -11    5.28    1.43
   0  -3  10   51.61    3.52
   0   3 -10   56.50    3.28
   0  -3   9   41.15    2.92
   0   3  -9   35.98    2.63
   0  -3   8    0.94    1.19
   0   3  -8    0.62    1.03
   0  -3   7   47.35    2.71
   0   3  -7   41.82    2.52
   0  -3   6   66.83    3.39
   0   3  -6   67.54    3.33
   0  -3   5    7.75    1.23
   0  -3   5    6.04    0.98
   0   3  -5    6.64    0.97
   0  -3   4  208.31    8.60
   0  -3   4  198.61    9.04
   0  -3   3  240.39    9.72
   0  -3   3  206.79    9.20
   0  -3   2   46.58    1.98
   0  -3   2   42.01    2.36
   0   3  -2   46.70    2.25
   0  -3   1   29.24    1.71
   0   3  -1   30.28    1.61
   0  -3   0    0.58    0.61
   0   3   0    1.82    0.55
   0   3   1   31.56    1.72
   0   3   2   43.76    2.33
   0   3   3  224.62    9.36
   0   3   4  206.84    8.73
   0   3   5   12.84    1.37
   0   3   6   65.01    3.29
   0   3   7   43.64    2.67
   0   3   8    3.04    1.22
   0   3   9   37.53    2.74
   0   3  10   55.65    3.55
   0   3  11    2.21    1.60
   0   3  11    1.15    1.98
   0   3  12   -0.59    1.49
   0   3  12    1.47    1.91
   0   3  13    6.41    2.36
   0   3  13    3.42    2.06
   0   3  14    8.79    2.60
   0   3  15   -0.41    2.08
   0   3  16    2.81    2.46
   0  -4  16    4.84    2.38
   0  -4  15    2.96    2.04
   0  -4  14   -1.37    1.62
   0  -4  14   -1.93    1.70
   0  -4  13    4.86    1.92
   0  -4  13    2.85    1.91
   0  -4  12   55.62    4.12
   0   4 -12   55.16    3.49
   0  -4  11    6.24    1.76
   0   4 -11    6.06    1.56
   0  -4  10   21.03    2.44
   0   4 -10   19.60    2.09
   0  -4   9    5.23    1.73
   0  -4   9    5.78    1.58
   0   4  -9    3.34    1.28
   0  -4   8  158.01    7.61
   0  -4   8  173.88    8.14
   0   4  -8  170.83    7.49
   0  -4   7   46.31    3.08
   0  -4   7   46.91    2.70
   0   4  -7   48.27    2.73
   0  -4   6    1.34    0.85
   0  -4   6    0.29    1.03
   0   4  -6    0.44    0.81
   0  -4   5   39.95    2.17
   0  -4   5   43.36    2.71
   0  -4   4  960.31   34.74
   0  -4   4  843.07   35.84
   0   4  -4  744.34   34.14
   0  -4   3    9.22    0.70
   0  -4   3    7.09    1.17
   0   4  -3    6.68    1.02
   0  -4   2   36.98    1.61
   0  -4   2   37.79    2.28
   0   4  -2   38.58    2.14
   0  -4   1  298.89   12.88
   0   4  -1  296.13   12.25
   0  -4   0   11.01    1.40
   0   4   0    8.89    1.14
   0   4   1  300.24   12.39
   0   4   2   37.77    2.21
   0   4   3   10.41    1.35
   0   4   4  818.86   32.99
   0   4   5   38.19    2.30
   0   4   6    0.40    1.11
   0   4   7   52.07    3.01
   0   4   8  173.00    7.82
   0   4   9    5.29    1.63
   0   4  10   20.44    2.40
   0   4  11    4.01    1.86
   0   4  12   52.57    4.65
   0   4  12   58.72    4.07
   0   4  13    2.42    2.41
   0   4  13    4.52    1.98
   0   4  14   -1.96    2.02
   0   4  15   -0.60    2.14
   0   4  16    8.90    2.88
   0  -5  15    4.72    2.20
   0  -5  14    1.99    2.20
   0  -5  13   -2.16    1.66
   0  -5  13   -0.27    1.82
   0  -5  12   11.38    2.21
   0  -5  12    4.55    2.29
   0   5 -12    6.39    1.70
   0  -5  11   45.35    3.43
   0  -5  11   42.90    3.64
   0   5 -11   43.20    3.12
   0  -5  10    6.52    1.71
   0  -5  10    3.16    1.78
   0   5 -10    4.69    1.48
   0  -5   9   50.64    3.56
   0  -5   9   46.91    3.13
   0   5  -9   50.84    3.13
   0  -5   8    9.59    1.98
   0  -5   8   11.22    1.59
   0   5  -8    9.83    1.49
   0  -5   7    7.27    1.20
   0  -5   7    6.23    1.53
   0   5  -7    7.10    1.18
   0  -5   6   35.19    2.01
   0  -5   6   32.41    2.49
   0  -5   5  217.77    9.30
   0  -5   5  230.86   10.07
   0   5  -5  216.35    9.44
   0  -5   4    0.59    0.94
   0  -5   4    2.10    0.54
   0   5  -4   -0.64    0.86
   0  -5   3  396.70   16.93
   0  -5   3  387.28   15.99
   0   5  -3  393.65   16.14
   0  -5   2   28.70    2.05
   0   5  -2   26.91    1.88
   0  -5   1  129.45    6.09
   0   5  -1  126.46    5.71
   0  -5   0   -0.53    1.15
   0   5   0    0.83    1.00
   0   5   1  122.23    5.53
   0   5   2   29.55    2.04
   0   5   3  383.76   15.86
   0   5   4    1.64    0.96
   0   5   5  221.82    9.59
   0   5   6   30.18    2.34
   0   5   7    7.71    1.59
   0   5   8   12.26    1.73
   0   5   9   53.84    3.61
   0   5  10    5.50    1.69
   0   5  11   51.85    3.85
   0   5  12    6.17    2.32
   0   5  12    8.19    2.14
   0   5  13    0.00    1.82
   0   5  13    1.58    2.09
   0   5  14    1.63    2.31
   0   5  15    2.76    2.40
   0  -6  15    3.88    2.57
   0  -6  14    0.76    1.99
   0  -6  13   -0.65    2.09
   0  -6  12    1.00    2.15
   0   6 -12    1.66    1.42
   0  -6  11    7.54    1.77
   0  -6  11    6.70    2.10
   0   6 -11    7.59    1.74
   0  -6  10   46.45    3.28
   0  -6  10   56.59    4.21
   0   6 -10   47.45    3.27
   0  -6   9   24.83    2.22
   0  -6   9   25.13    2.79
   0   6  -9   22.90    2.30
   0  -6   8   12.80    1.52
   0  -6   8    9.19    1.94
   0   6  -8    8.66    1.63
   0  -6   7    3.10    0.95
   0  -6   7    3.68    1.51
   0  -6   6   68.34    3.37
   0  -6   6   76.37    4.18
   0   6  -6   74.40    3.83
   0  -6   5   70.31    3.25
   0  -6   5   74.22    4.05
   0   6  -5   75.44    3.87
   0  -6   4   62.32    3.69
   0  -6   4   68.57    2.89
   0   6  -4   67.07    3.49
   0  -6   3  103.58    5.19
   0   6  -3  105.71    4.94
   0  -6   2  176.75    7.99
   0   6  -2  167.34    7.56
   0  -6   1   44.26    2.89
   0   6  -1   42.78    2.57
   0  -6   0  137.57    6.66
   0   6   0  135.42    6.20
   0   6   1   42.09    2.59
   0   6   2  170.35    7.54
   0   6   3  102.09    4.89
   0   6   4   62.11    3.40
   0   6   5   72.61    3.99
   0   6   6   71.95    3.92
   0   6   7    1.73    1.53
   0   6   8   12.30    1.92
   0   6   9   23.24    2.47
   0   6  10   50.46    3.59
   0   6  11    9.01    2.21
   0   6  12    1.89    2.09
   0   6  12    1.18    1.89
   0   6  13    2.27    2.04
   0   6  13    4.62    2.33
   0   6  14   -0.27    2.16
   0   6  15    1.51    2.42
   0  -7  15   -0.64    2.08
   0  -7  14   -0.62    1.92
   0  -7  13    2.18    2.02
   0  -7  12    0.00    1.80
   0   7 -12    0.98    1.38
   0  -7  11    1.75    2.19
   0   7 -11    0.56    1.51
   0  -7  10    2.85    1.98
   0  -7  10    5.14    1.46
   0   7 -10    2.96    1.46
   0  -7   9   26.51    2.96
   0  -7   9   21.34    2.05
   0   7  -9   24.14    2.36
   0  -7   8    9.38    1.33
   0  -7   8    7.06    1.93
   0  -7   7    0.05    1.69
   0  -7   7    0.50    0.87
   0   7  -7    0.44    1.17
   0  -7   6   12.02    1.06
   0  -7   6   11.54    1.85
   0   7  -6   13.42    1.74
   0  -7   5   65.46    2.85
   0  -7   5   62.70    3.84
   0   7  -5   63.65    3.65
   0  -7   4  224.76   10.34
   0   7  -4  226.10    9.84
   0  -7   3   28.20    2.35
   0   7  -3   30.51    2.21
   0  -7   2   32.32    2.64
   0   7  -2   27.82    2.16
   0  -7   1    1.17    1.24
   0   7  -1    0.61    1.00
   0  -7   0   -1.21    1.17
   0   7   0   -0.92    0.69
   0   7   1   -0.38    1.01
   0   7   2   29.43    2.25
   0   7   3   29.18    2.30
   0   7   4  225.56    9.89
   0   7   5   61.61    3.58
   0   7   6   10.18    1.75
   0   7   7   -0.87    1.61
   0   7   8    6.59    2.02
   0   7   9   22.58    2.83
   0   7  10    0.89    1.99
   0   7  11    1.81    2.13
   0   7  12    0.18    2.00
   0   7  12    0.62    1.67
   0   7  13    0.80    2.08
   0   7  13   -0.47    2.17
   0   7  14    0.84    2.27
   0   7  15    0.51    2.26
   0  -8  15    1.47    2.32
   0  -8  14   -0.55    2.05
   0  -8  13    0.37    2.01
   0  -8  12    5.94    2.26
   0   8 -12    7.32    1.94
   0  -8  11    3.59    2.33
   0   8 -11    3.19    1.54
   0  -8  10   16.23    2.71
   0   8 -10   21.14    2.49
   0  -8   9    8.35    2.22
   0  -8   8   38.33    3.43
   0  -8   8   35.17    2.23
   0   8  -8   37.51    2.84
   0  -8   7    8.49    2.02
   0  -8   7    6.92    0.99
   0   8  -7    9.51    1.81
   0  -8   6   28.28    1.54
   0  -8   6   30.35    2.90
   0   8  -6   33.51    2.51
   0  -8   5   23.02    2.45
   0   8  -5   21.58    2.17
   0  -8   4  106.94    5.71
   0   8  -4  112.09    5.43
   0  -8   3   33.90    2.90
   0   8  -3   32.73    2.50
   0  -8   2   67.18    4.05
   0   8  -2   64.70    3.70
   0  -8   1   65.26    4.10
   0   8  -1   70.08    3.79
   0  -8   0   63.40    3.97
   0   8   0   59.69    3.53
   0   8   1   62.49    3.62
   0   8   2   61.95    3.62
   0   8   3   33.86    2.62
   0   8   4  109.38    5.50
   0   8   5   18.69    2.14
   0   8   6   33.22    3.02
   0   8   7    8.62    2.15
   0   8   8   39.87    3.41
   0   8   9    5.70    1.97
   0   8  10   19.22    2.92
   0   8  11    2.00    1.82
   0   8  12    7.92    2.53
   0   8  12    1.94    1.88
   0   8  13    2.07    2.39
   0   8  13    7.09    2.57
   0   8  14    1.22    2.33
   0   8  15    1.68    2.46
   0  -9  14    0.29    2.47
   0  -9  13    5.36    2.38
   0  -9  12   -0.20    1.93
   0   9 -12    0.68    1.59
   0  -9  11   10.02    2.48
   0   9 -11   12.46    2.13
   0   9 -10   29.99    2.82
   0  -9   9   12.79    2.49
   0   9  -9    9.63    1.64
   0  -9   8    5.53    2.09
   0   9  -8    8.47    1.95
   0  -9   7   57.77    4.22
   0   9  -7   60.66    3.74
   0  -9   6   24.13    2.83
   0   9  -6   28.55    2.72
   0  -9   5   22.14    2.61
   0   9  -5   23.79    2.44
   0  -9   4   31.82    3.02
   0   9  -4   37.86    2.79
   0  -9   3  142.93    7.33
   0   9  -3  144.05    6.92
   0  -9   2  188.96    9.31
   0   9  -2  195.84    8.81
   0  -9   1   63.69    4.09
   0   9  -1   60.47    3.67
   0  -9   0   83.48    5.05
   0   9   0   86.16    4.63
   0   9   1   63.08    3.78
   0   9   2  189.12    8.68
   0   9   3  145.29    7.01
   0   9   4   33.38    2.89
   0   9   5   17.42    2.33
   0   9   6   23.27    2.62
   0   9   7   59.59    4.25
   0   9   8    9.26    2.14
   0   9   9   13.99    2.44
   0   9  10   59.97    4.57
   0   9  11   12.42    2.68
   0   9  12   -0.21    2.04
   0   9  12    1.99    2.34
   0   9  13    1.70    2.27
   0   9  13    2.89    2.35
   0   9  14    2.30    2.41
   0 -10  14    4.14    2.41
   0 -10  13    2.30    2.21
   0 -10  12    3.07    2.21
   0  10 -12    1.44    1.61
   0 -10  11   14.92    2.79
   0  10 -11   14.09    2.33
   0 -10  10   -4.65    1.65
   0  10 -10   -0.02    0.61
   0 -10   9   31.33    3.52
   0  10  -9   26.23    2.94
   0 -10   8    8.44    2.46
   0  10  -8   15.43    2.27
   0 -10   7    0.57    1.87
   0  10  -7   -0.75    1.66
   0 -10   6    9.09    2.25
   0  10  -6   10.19    2.22
   0 -10   5   31.86    3.19
   0  10  -5   31.52    2.94
   0 -10   4    4.39    1.93
   0  10  -4    4.33    1.60
   0 -10   3  162.53    8.14
   0  10  -3  154.90    7.64
   0 -10   2    5.09    1.93
   0  10  -2    7.03    1.75
   0 -10   1   11.78    2.23
   0  10  -1   12.98    1.99
   0 -10   0   26.03    2.97
   0  10   0   26.00    2.64
   0  10   1   11.26    1.92
   0  10   2    7.16    1.82
   0  10   3  167.56    8.02
   0  10   4    5.31    1.86
   0  10   5   26.18    2.88
   0  10   6    9.33    2.44
   0  10   7   -0.13    1.75
   0  10   8   14.50    2.78
   0  10   9   23.36    3.15
   0  10  10   -0.23    1.80
   0  10  11   10.18    2.45
   0  10  12    0.39    1.65
   0  10  12    0.35    2.36
   0  10  13   -0.18    2.41
   0  10  13   -0.80    2.14
   0  10  14    7.03    2.75
   0 -11  13   -0.38    2.61
   0 -11  12    5.52    2.55
   0  11 -12    7.06    2.01
   0 -11  11    0.30    2.20
   0  11 -11    0.84    0.63
   0 -11  10    2.22    2.20
   0  11 -10    1.29    1.65
   0 -11   9    1.02    2.05
   0  11  -9    2.22    1.68
   0 -11   8   20.66    3.10
   0  11  -8   24.43    2.76
   0 -11   7    2.74    2.11
   0  11  -7    5.33    2.14
   0 -11   6   16.81    2.76
   0  11  -6   19.74    2.58
   0 -11   5    2.35    2.08
   0  11  -5    3.12    1.73
   0 -11   4  109.80    6.59
   0  11  -4  123.05    6.28
   0 -11   3    5.97    2.20
   0  11  -3    5.67    2.15
   0 -11   2   -1.82    1.74
   0  11  -2    1.46    1.67
   0 -11   1   15.24    2.66
   0  11  -1   15.37    2.29
   0 -11   0   39.87    3.67
   0  11   0   31.10    3.11
   0  11   1   13.40    2.22
   0  11   2    0.09    1.63
   0  11   3    3.29    1.82
   0  11   4  108.44    5.96
   0  11   5    1.64    2.23
   0  11   6   10.50    2.37
   0  11   7    6.50    2.60
   0  11   8   28.04    3.50
   0  11   9    4.95    2.43
   0  11  10   -1.39    2.20
   0  11  11   -1.76    2.29
   0  11  11    1.97    1.75
   0  11  12    7.55    2.82
   0  11  12    5.74    2.62
   0  11  13   -0.84    2.28
   0  11  13    7.86    2.95
   0 -12  13   -2.08    2.24
   0 -12  12    4.13    2.89
   0  12 -12    0.31    1.55
   0 -12  11    0.69    2.21
   0  12 -11    0.07    1.49
   0 -12  10    0.94    2.16
   0  12 -10    1.86    1.78
   0 -12   9    0.51    2.09
   0  12  -9    1.42    1.82
   0 -12   8    1.02    2.05
   0  12  -8    0.90    1.49
   0 -12   7    3.42    2.25
   0  12  -7    0.11    1.66
   0 -12   6   27.05    3.48
   0  12  -6   26.33    3.07
   0 -12   5   -0.01    2.19
   0  12  -5    2.08    1.72
   0 -12   4    0.71    2.17
   0  12  -4   -1.32    1.62
   0 -12   3    4.82    2.31
   0  12  -3    1.54    1.81
   0 -12   2   -0.41    2.02
   0  12  -2    0.30    1.79
   0 -12   1    2.79    2.20
   0  12  -1    5.95    2.02
   0 -12   0   99.08    6.02
   0  12   0   90.54    5.42
   0  12   1    1.35    1.83
   0  12   2    0.05    1.84
   0  12   3    6.62    2.23
   0  12   4    0.15    1.83
   0  12   5    2.80    2.40
   0  12   6   26.38    3.23
   0  12   7    1.57    2.07
   0  12   8    2.05    2.01
   0  12   9    1.47    2.06
   0  12  10   -1.52    1.91
   0  12  11    1.18    2.51
   0  12  11   -0.78    2.13
   0  12  12    0.99    2.66
   0  12  12   -0.05    2.11
   0  12  13   -0.28    2.31
   0  12  13    0.13    2.60
   0 -13  12    0.14    2.39
   0  13 -12   -0.75    0.55
   0 -13  11   -0.63    2.24
   0  13 -11    2.88    2.03
   0 -13  10    1.87    2.41
   0  13 -10    9.32    2.33
   0 -13   9   -3.28    1.94
   0  13  -9    2.98    1.80
   0 -13   8    3.08    2.33
   0  13  -8   -1.94    1.79
   0 -13   7   14.45    2.98
   0  13  -7   18.81    2.80
   0 -13   6   32.58    3.86
   0  13  -6   31.61    3.66
   0 -13   5   15.56    3.07
   0  13  -5   14.80    2.63
   0 -13   4   12.69    2.94
   0  13  -4   13.50    2.56
   0 -13   3   -1.84    2.07
   0  13  -3    0.30    1.88
   0 -13   2   27.57    3.56
   0  13  -2   31.89    3.43
   0 -13   1   37.66    4.04
   0  13  -1   37.93    3.61
   0  13  -1   33.84    2.32
   0 -13   0    1.40    2.19
   0  13   0    1.74    1.85
   0  13   1   30.67    3.29
   0  13   2   31.27    3.39
   0  13   3   -1.04    1.92
   0  13   4    8.11    2.47
   0  13   5   17.62    2.87
   0  13   6   33.70    3.66
   0  13   7    8.41    2.51
   0  13   8    2.21    2.12
   0  13   9    0.97    2.12
   0  13  10    7.16    2.47
   0  13  10   10.60    3.03
   0  13  11    5.10    2.81
   0  13  11    4.72    2.48
   0  13  12   -0.51    2.15
   0  13  12   -2.33    2.13
   0 -14  11    1.05    2.40
   0  14 -11    2.17    1.97
   0 -14  10    4.32    2.57
   0  14 -10    3.27    1.72
   0 -14   9    8.82    2.83
   0  14  -9    8.79    2.31
   0 -14   8    0.27    2.33
   0  14  -8    6.77    2.39
   0 -14   7    5.59    2.72
   0  14  -7    8.44    2.56
   0 -14   6    6.31    2.60
   0  14  -6    4.59    2.01
   0 -14   5    6.22    2.64
   0  14  -5   14.07    2.62
   0 -14   4   -0.19    2.26
   0  14  -4   -1.03    1.73
   0 -14   3    1.14    2.34
   0  14  -3   -1.05    1.87
   0 -14   2    2.45    2.44
   0  14  -2    4.76    2.28
   0 -14   1   51.00    4.81
   0  14  -1   49.50    4.40
   0  14   0   20.14    2.90
   0  14   1   46.28    4.18
   0  14   2    8.89    2.46
   0  14   3   -3.42    1.85
   0  14   4   -1.12    2.01
   0  14   5   11.06    2.93
   0  14   6    6.58    2.35
   0  14   7   14.37    2.83
   0  14   8   -1.01    2.02
   0  14   9    6.89    2.71
   0  14   9    2.45    2.39
   0  14  10    2.26    2.77
   0  14  10    0.95    2.20
   0  14  11    1.67    2.29
   0  14  11    0.05    2.76
   0 -15  11   -5.37    2.32
   0  15 -11    3.13    2.05
   0 -15  10   -0.37    2.67
   0  15 -10    0.28    1.66
   0 -15   9   -1.00    2.40
   0  15  -9    1.26    1.84
   0 -15   8   16.83    3.51
   0  15  -8   16.87    3.16
   0 -15   7   -2.34    2.77
   0  15  -7    1.09    1.88
   0 -15   6    3.42    2.46
   0  15  -6    0.80    1.82
   0 -15   5   -1.16    2.26
   0  15  -5   -2.34    1.69
   0 -15   4    6.20    2.92
   0  15  -4    2.06    2.06
   0 -15   3   -1.12    2.14
   0  15  -3   -2.29    1.78
   0 -15   2    3.16    2.36
   0  15  -2    4.14    2.17
   0 -15   1    0.19    2.18
   0  15  -1   -0.19    1.95
   0  15   0   77.69    5.27
   0  15   1   -1.38    1.90
   0  15   2    1.60    2.44
   0  15   3    2.41    2.04
   0  15   4    4.64    2.32
   0  15   5   -1.82    1.97
   0  15   6    2.19    2.21
   0  15   7    1.99    2.25
   0  15   8   23.19    3.29
   0  15   8   16.46    3.19
   0  15   9   -0.56    2.14
   0  15   9    1.46    2.07
   0  15  10   -1.14    1.99
   0  15  10   -0.41    2.30
   0  15  11    0.95    2.44
   0  15  11   -0.57    2.19
   0 -16  10   -1.44    2.67
   0  16 -10    2.92    2.22
   0 -16   9   -2.37    2.61
   0  16  -9   -2.06    1.64
   0 -16   8   -0.30    2.57
   0  16  -8    1.71    2.43
   0 -16   7    7.47    3.03
   0  16  -7    4.67    2.32
   0 -16   6    2.28    2.62
   0  16  -6    0.31    1.90
   0 -16   5    1.63    2.46
   0  16  -5    0.66    1.96
   0 -16   4    1.77    2.42
   0  16  -4    2.88    2.10
   0 -16   3   -0.22    2.33
   0  16  -3   -0.47    2.30
   0 -16   2    4.16    2.47
   0  16  -2   -5.17    2.07
   0 -16   1    6.08    2.59
   0  16  -1    4.32    2.27
   0  16   0    3.20    2.13
   0  16   1    2.09    2.04
   0  16   2    1.94    2.18
   0  16   3   -1.14    1.98
   0  16   3    1.02    1.52
   0  16   4    1.46    2.16
   0  16   4    3.17    1.84
   0  16   5    1.70    0.59
   0  16   5   -1.25    2.03
   0  16   6    3.90    2.26
   0  16   6    3.83    2.39
   0  16   7    7.37    3.10
   0  16   7    8.85    2.69
   0  16   8   -1.60    2.24
   0  16   8    0.76    1.98
   0  16   9    0.30    2.29
   0  16   9    2.89    2.58
   0  16  10   -1.03    2.36
   0  16  10    4.55    2.64
   0 -17   8   -2.05    2.64
   0  17  -8    0.45    1.90
   0 -17   7   -1.61    2.42
   0  17  -7    0.99    2.01
   0 -17   6    9.97    3.10
   0  17  -6    5.86    2.81
   0 -17   5    1.54    2.62
   0  17  -5    4.10    2.24
   0 -17   4   -0.19    2.43
   0  17  -4   -1.19    2.05
   0 -17   3    7.12    2.89
   0  17  -3    7.02    2.52
   0 -17   2    2.46    2.85
   0  17  -2    6.02    2.43
   0  17  -1   -1.77    1.91
   0  17   0    0.75    2.04
   0  17   1    0.61    2.07
   0  17   2    6.78    2.51
   0  17   3    8.57    2.59
   0  17   4    0.20    1.77
   0  17   4    3.33    2.42
   0  17   5    2.42    2.03
   0  17   5    3.52    2.40
   0  17   6    8.35    2.77
   0  17   6    7.47    2.20
   0  17   7    0.34    2.27
   0  17   7    1.46    2.33
   0  17   8   -1.88    2.79
   0  17   8    1.20    2.05
   0 -18   7    0.07    2.70
   0  18  -7    2.85    2.57
   0 -18   6    1.18    2.60
   0  18  -6   -2.52    1.85
   0 -18   5    8.77    3.08
   0  18  -5    5.38    2.51
   0 -18   4    0.11    2.55
   0  18  -4    1.16    2.14
   0 -18   3   -0.79    2.37
   0  18  -3    3.00    2.72
   0 -18   2    8.45    2.81
   0  18  -2    3.53    2.39
   0  18  -1    3.83    2.44
   0  18   0   -0.11    2.08
   0  18   1    2.54    2.36
   0  18   2    4.80    2.41
   0  18   3    1.04    2.12
   0  18   4    3.07    2.44
   0  18   5    5.12    2.53
   0  18   6    2.17    0.77
   0  18   6    0.99    2.33
   0  18   7    3.04    2.13
   0  18   7   -1.66    2.31
   0 -19   5    0.55    2.71
   0  19  -5   -0.16    2.18
   0 -19   4    6.38    3.00
   0  19  -4    6.46    3.00
   0 -19   3   -1.47    2.37
   0  19  -3   -2.16    1.95
   0  19  -2   -2.77    2.09
   0  19  -1   -0.68    2.14
   0  19   0    9.76    3.27
   0  19   1    0.56    2.19
   0  19   2   -3.30    2.00
   0  19   3   -1.71    2.09
   0  19   4   10.28    2.91
   0  19   5    3.26    2.63
   0  20  -2   -2.32    2.67
   0  20  -1    0.93    2.39
   0  20   0    3.29    2.51
   0  20   1    0.39    2.72
   0  20   2    3.24    2.52
   1  19   4    7.08    2.72
   1  19   3    3.65    2.54
   1  19   2   -0.05    2.19
   1  19   1    2.30    2.29
   1  19   0   -0.07    2.11
   1  19  -1    4.41    2.54
   1  19  -2    0.03    2.15
   1  19  -3   -1.72    2.19
  -1 -19   3   -3.23    2.36
   1  19  -4    6.07    2.71
  -1 -19   4    2.87    2.72
   1  18   6   -1.70    2.68
   1  18   5    3.12    2.93
   1  18   4    3.58    2.47
   1  18   3    2.43    2.43
   1  18   2   -3.68    1.98
   1  18   1   -1.25    2.08
   1  18   0    9.17    2.69
   1  18  -1   -0.21    2.67
   1  18  -2   -0.05    2.14
   1  18  -3    6.46    2.57
  -1 -18   3    3.21    2.68
   1  18  -4   -1.42    2.00
  -1 -18   4    1.47    3.05
   1  18  -5    2.71    2.30
  -1 -18   5    1.83    2.72
   1  18  -6    0.13    2.68
  -1 -18   6    2.83    2.91
   1  17   8   -1.02    2.34
   1  17   8   -3.93    2.11
   1  17   7   -0.89    1.82
   1  17   7   -2.09    2.20
   1  17   6    0.41    2.35
   1  17   6    1.43    1.38
   1  17   5   -3.59    1.79
   1  17   5   -1.79    2.05
   1  17   4    1.25    2.75
   1  17   3    4.59    2.78
   1  17   2    4.19    2.35
   1  17   1   -0.03    2.02
   1  17   0   -3.30    1.93
   1  17  -1    0.57    2.63
   1  17  -2   10.23    2.70
  -1 -17   2    3.54    3.01
   1  17  -3    1.28    2.22
  -1 -17   3    4.85    2.66
   1  17  -4    3.29    2.31
  -1 -17   4    1.88    3.04
   1  17  -5   -0.48    1.99
  -1 -17   5    3.63    2.69
   1  17  -6   -0.62    1.91
  -1 -17   6    0.79    2.66
   1  17  -7    1.68    2.50
  -1 -17   7   -0.08    2.65
   1  17  -8   -0.88    1.99
  -1 -17   8    2.39    2.87
   1  16   9   -1.72    2.46
   1  16   9   -0.82    2.33
   1  16   8    1.03    2.38
   1  16   8   -1.99    2.33
   1  16   7   -0.02    2.27
   1  16   7    1.73    2.27
   1  16   6    4.28    2.46
   1  16   6    6.58    2.55
   1  16   5    0.18    1.94
   1  16   5    3.77    2.35
   1  16   4   10.61    2.31
   1  16   4    3.34    2.37
   1  16   3   -0.82    1.99
   1  16   2    1.79    1.99
   1  16   1    1.22    1.97
   1  16   0    1.33    2.09
   1  16  -1    0.69    2.35
   1  16  -2    2.27    2.20
  -1 -16   2   -3.20    2.01
   1  16  -3    2.63    2.17
  -1 -16   3    4.95    2.65
   1  16  -4    7.96    2.52
  -1 -16   4    2.81    3.14
   1  16  -5    1.49    2.49
  -1 -16   5    0.75    2.44
   1  16  -6    6.67    2.45
  -1 -16   6    5.13    2.76
   1  16  -7    6.83    2.64
  -1 -16   7    1.67    3.16
   1  16  -8    0.73    1.83
  -1 -16   8    1.43    2.84
   1  16  -9    0.88    1.92
  -1 -16   9    1.48    2.93
   1  15  10    1.67    2.33
   1  15  10    2.33    2.82
   1  15   9   -3.68    2.06
   1  15   9   -0.84    2.07
   1  15   8    6.94    2.48
   1  15   8    8.19    2.80
   1  15   7    6.09    2.54
   1  15   7    8.21    2.39
   1  15   6    3.11    1.89
   1  15   6   -0.86    2.08
   1  15   5   -3.46    1.88
   1  15   5    2.25    0.76
   1  15   4    2.22    1.56
   1  15   4    1.20    2.12
   1  15   3    3.79    2.14
   1  15   3    1.56    1.53
   1  15   2    1.12    2.00
   1  15   1    6.47    2.64
   1  15   0    3.07    2.09
   1  15  -1    9.76    2.50
  -1 -15   1    7.71    2.66
   1  15  -2    2.16    2.13
  -1 -15   2    0.77    2.20
   1  15  -3    4.08    2.23
  -1 -15   3    0.98    2.23
   1  15  -4   -1.97    2.12
  -1 -15   4    0.49    2.23
   1  15  -5   -1.72    1.83
  -1 -15   5   -0.47    2.26
   1  15  -6   -0.92    1.88
  -1 -15   6   -1.93    2.30
   1  15  -7    8.32    2.53
  -1 -15   7    9.34    3.50
   1  15  -8    0.99    1.90
  -1 -15   8    5.04    2.84
   1  15  -9   -0.89    2.17
  -1 -15   9    0.31    2.66
   1  15 -10    3.05    2.21
  -1 -15  10    4.55    3.00
   1  14  11   -2.17    2.14
   1  14  11    1.69    2.92
   1  14  10    3.83    2.84
   1  14  10   -0.12    2.19
   1  14   9    1.78    2.75
   1  14   9    7.97    2.49
   1  14   8    2.85    2.17
   1  14   8   11.38    3.06
   1  14   7    5.14    2.44
   1  14   7    7.32    2.31
   1  14   6    2.93    2.08
   1  14   6    0.51    2.09
   1  14   5    2.04    2.10
   1  14   5    2.28    1.66
   1  14   4    2.12    1.85
   1  14   4    6.54    2.35
   1  14   3    2.39    1.67
   1  14   3    3.14    2.13
   1  14   2   -2.83    1.75
   1  14   2    1.27    1.59
   1  14   1   18.38    2.87
   1  14   1   24.53    2.34
   1  14   0   30.67    3.44
   1  14  -1   24.13    3.20
  -1 -14   1   25.68    3.57
   1  14  -2   -1.77    1.95
  -1 -14   2   -4.80    2.04
   1  14  -3    0.45    1.91
  -1 -14   3    1.19    2.36
   1  14  -4    1.29    1.99
  -1 -14   4    2.04    2.35
   1  14  -5   -0.01    1.84
  -1 -14   5    1.86    2.36
   1  14  -6    0.98    1.82
  -1 -14   6    0.48    2.39
   1  14  -7    4.16    2.02
  -1 -14   7    7.37    2.86
   1  14  -8    7.77    2.31
  -1 -14   8    4.15    2.67
   1  14  -9    8.09    2.29
  -1 -14   9    8.35    2.96
   1  14 -10    6.04    2.38
  -1 -14  10    3.38    2.67
   1  14 -11    1.16    2.03
  -1 -14  11   -3.32    2.28
   1  13  12    2.82    2.96
   1  13  12   -0.71    2.36
   1  13  11    0.06    2.17
   1  13  11    1.48    2.29
   1  13  10    0.70    2.55
   1  13  10    4.42    2.50
   1  13   9   -1.45    1.96
   1  13   9    0.31    2.03
   1  13   8    2.29    2.19
   1  13   8    5.05    2.19
   1  13   7    0.79    1.76
   1  13   7    1.64    2.06
   1  13   6   32.50    3.62
   1  13   6   30.81    3.50
   1  13   5   -0.13    1.96
   1  13   5    1.10    1.63
   1  13   4   -0.20    0.92
   1  13   4   -1.10    2.39
   1  13   3    3.39    2.17
   1  13   3    3.59    1.68
   1  13   2   17.64    2.84
   1  13   2   16.27    2.12
   1  13   1    2.59    1.39
   1  13   1   -0.19    1.89
   1  13   0   44.96    3.95
   1  13   0   45.08    2.87
   1  13  -1    2.79    2.03
  -1 -13   1    1.16    2.23
   1  13  -2   21.02    2.98
  -1 -13   2   23.22    3.43
   1  13  -3    1.99    2.03
  -1 -13   3    2.56    2.37
   1  13  -4   -0.94    1.79
  -1 -13   4    0.54    2.38
   1  13  -5    4.69    2.36
  -1 -13   5    0.53    2.33
   1  13  -6   32.87    3.58
  -1 -13   6   28.27    4.01
   1  13  -7    2.94    1.87
  -1 -13   7   -5.19    1.99
   1  13  -8    7.44    2.15
  -1 -13   8    5.98    3.01
   1  13  -9    0.17    1.65
  -1 -13   9   -0.63    2.23
   1  13 -10    5.02    2.28
  -1 -13  10    3.19    2.98
   1  13 -11    4.47    2.14
  -1 -13  11    4.57    2.64
   1  13 -12   -0.04    1.98
  -1 -13  12    2.85    2.65
   1  12  12    2.63    2.44
   1  12  12    5.35    2.83
   1  12  11    1.35    2.30
   1  12  11    2.07    2.65
   1  12  10    4.24    2.31
   1  12  10    1.25    2.52
   1  12   9    1.21    2.03
   1  12   9    1.64    2.07
   1  12   8    4.62    2.61
   1  12   8    2.52    1.97
   1  12   7    9.51    2.49
   1  12   7   17.31    2.95
   1  12   6    0.84    2.06
   1  12   5    8.56    2.41
   1  12   4   10.36    2.44
   1  12   3   -0.37    1.82
   1  12   2    5.22    2.11
   1  12   2    4.29    1.50
   1  12   1   27.24    2.44
   1  12   1   31.47    3.22
   1  12   0   40.92    2.58
   1  12   0   37.32    3.59
   1  12  -1   31.49    3.24
   1  12  -1   24.79    1.82
  -1 -12   1   28.17    3.50
   1  12  -2    5.41    2.05
  -1 -12   2    3.48    2.26
   1  12  -3    1.92    1.86
  -1 -12   3    1.97    2.12
   1  12  -4    6.10    2.13
  -1 -12   4    9.30    2.59
   1  12  -5   12.31    2.43
  -1 -12   5    4.50    2.49
   1  12  -6    2.62    2.18
  -1 -12   6    3.64    2.52
   1  12  -7   10.29    2.34
  -1 -12   7   12.29    2.89
   1  12  -8    4.16    1.85
  -1 -12   8    1.75    2.53
   1  12  -9    1.52    1.87
  -1 -12   9    0.18    2.13
   1  12 -10    1.70    2.03
  -1 -12  10    1.14    2.28
   1  12 -11    0.70    1.62
  -1 -12  11    1.85    2.31
   1  12 -12    0.33    1.59
  -1 -12  12    4.53    2.62
   1  11  13    3.68    2.69
   1  11  13    0.52    2.30
   1  11  12    2.08    2.60
   1  11  12    5.60    2.55
   1  11  11    2.62    2.54
   1  11  11    3.89    2.49
   1  11  10   -0.58    1.96
   1  11  10    1.05    2.32
   1  11   9    1.39    2.00
   1  11   9    1.09    2.02
   1  11   8    4.25    2.47
   1  11   8    3.74    2.06
   1  11   7    1.73    2.35
   1  11   6   -2.99    1.79
   1  11   5    8.23    2.56
   1  11   4    5.88    2.10
   1  11   3   37.18    3.67
   1  11   2    2.07    1.78
   1  11   1    8.79    2.04
   1  11   0   40.50    2.54
   1  11   0   46.08    3.43
  -1 -11   0   44.32    4.11
   1  11  -1    7.47    2.05
   1  11  -1    9.47    1.16
  -1 -11   1   13.19    2.54
   1  11  -2    3.20    1.82
   1  11  -2    2.03    0.69
  -1 -11   2    6.77    2.31
   1  11  -3   36.17    3.39
  -1 -11   3   37.76    3.79
   1  11  -4    9.16    2.08
  -1 -11   4    5.59    2.33
   1  11  -5    5.44    2.20
  -1 -11   5    8.82    2.54
   1  11  -6    1.52    1.74
  -1 -11   6    1.50    2.20
   1  11  -7    4.06    1.88
  -1 -11   7    1.17    2.15
   1  11  -8    3.73    1.78
  -1 -11   8    4.85    2.28
   1  11  -9    3.74    2.00
  -1 -11   9    0.85    2.42
   1  11 -10    0.89    1.58
  -1 -11  10   -1.16    2.04
   1  11 -11    6.89    2.20
  -1 -11  11    4.99    2.41
   1  11 -12    2.84    1.50
  -1 -11  12    0.32    2.71
  -1 -11  13    4.22    2.95
   1  10  14    2.30    2.41
   1  10  13    3.73    2.52
   1  10  13    4.53    2.61
   1  10  12    5.04    2.09
   1  10  12    3.49    2.45
   1  10  11    2.18    1.96
   1  10  11    2.74    2.30
   1  10  10    7.43    2.39
   1  10  10    7.35    2.26
   1  10   9    6.67    2.53
   1  10   9    6.58    2.36
   1  10   8    4.75    2.10
   1  10   7    4.91    2.09
   1  10   6   16.11    2.55
   1  10   5   10.82    2.17
   1  10   4   67.11    4.31
   1  10   3   40.84    3.45
   1  10   2    5.16    1.79
   1  10   1    5.54    1.75
   1  10   0    0.26    1.43
   1  10   0    1.58    0.88
  -1 -10   0   -0.27    1.70
   1  10  -1    8.08    1.81
   1  10  -1    9.46    1.07
  -1 -10   1   11.55    2.33
   1  10  -2    4.58    1.74
   1  10  -2    4.28    0.65
  -1 -10   2    1.18    1.83
   1  10  -3   42.28    3.26
  -1 -10   3   41.77    3.78
   1  10  -4   71.35    4.35
  -1 -10   4   70.06    4.75
   1  10  -5   14.67    2.43
  -1 -10   5   11.45    2.44
   1  10  -6   15.20    2.34
  -1 -10   6   16.71    2.64
   1  10  -7    3.11    1.71
  -1 -10   7    6.99    2.60
   1  10  -8    3.04    1.94
  -1 -10   8    4.81    2.24
   1  10  -9    7.09    2.10
  -1 -10   9    7.80    2.72
   1  10 -10    7.25    2.08
  -1 -10  10   10.17    2.53
   1  10 -11    4.68    1.71
  -1 -10  11    3.02    2.28
   1  10 -12    1.04    0.57
  -1 -10  12   -0.24    2.10
  -1 -10  13    1.96    2.25
  -1 -10  14   -1.46    2.09
   1   9  14    5.83    2.75
   1   9  13    4.77    2.55
   1   9  13    3.75    2.36
   1   9  12    2.42    2.34
   1   9  12   -2.13    2.03
   1   9  11    4.92    2.38
   1   9  11   -0.47    1.73
   1   9  10   29.25    3.65
   1   9  10   33.48    3.34
   1   9   9    8.93    2.20
   1   9   9   12.43    2.60
   1   9   8    5.29    2.26
   1   9   7   44.31    3.80
   1   9   6   28.09    2.89
   1   9   5   10.09    2.03
   1   9   4   66.73    4.08
   1   9   3   29.01    2.73
   1   9   2  163.65    7.76
   1   9   1   30.93    2.85
   1   9   0    0.61    0.99
  -1  -9   0   -0.88    1.47
   1   9  -1   24.45    1.54
   1   9  -1   23.55    2.35
  -1  -9   1   26.56    2.88
   1   9  -2  161.81    7.73
   1   9  -2  170.85    6.86
  -1  -9   2  152.09    8.15
   1   9  -3   33.80    2.89
  -1  -9   3   31.89    3.15
   1   9  -4   67.00    4.06
  -1  -9   4   69.71    4.43
   1   9  -5    8.44    1.78
  -1  -9   5    7.36    2.00
   1   9  -6   30.87    2.90
  -1  -9   6   23.74    2.86
   1   9  -7   36.30    3.18
  -1  -9   7   36.49    3.52
   1   9  -8    6.74    1.88
  -1  -9   8    4.74    2.37
   1   9  -9   10.90    2.03
  -1  -9   9    8.99    2.43
   1   9 -10   37.08    3.43
  -1  -9  10   32.59    3.77
   1   9 -11   -0.12    0.99
  -1  -9  11    1.63    1.91
   1   9 -12    4.12    1.56
  -1  -9  12    2.47    2.01
   1   9 -13    1.12    1.64
  -1  -9  13   -1.87    2.32
  -1  -9  14    4.07    2.74
   1   8  14    0.52    2.29
   1   8  13    2.55    2.36
   1   8  13    2.62    2.28
   1   8  12   14.81    3.00
   1   8  12    7.54    2.49
   1   8  11   18.89    2.59
   1   8  11   12.85    2.44
   1   8  10    2.46    1.77
   1   8  10    3.09    2.16
   1   8   9   32.23    3.33
   1   8   8   25.75    2.75
   1   8   7   13.65    2.40
   1   8   6   13.12    2.07
   1   8   5   49.90    3.36
   1   8   4   11.29    1.86
   1   8   3  176.37    8.13
   1   8   2    4.06    1.45
   1   8   1   23.70    2.35
   1   8   0  142.79    6.84
  -1  -8   0  148.85    7.41
   1   8  -1   23.90    2.26
   1   8  -1   22.61    1.41
  -1  -8   1   24.64    2.63
   1   8  -2    5.39    0.55
   1   8  -2    5.22    1.48
  -1  -8   2    7.32    1.82
   1   8  -3  190.71    8.75
  -1  -8   3  194.39    9.25
   1   8  -4   12.96    1.83
  -1  -8   4   15.52    2.11
   1   8  -5   44.59    3.06
  -1  -8   5   42.95    3.25
   1   8  -6   14.88    2.19
  -1  -8   6   11.45    2.12
   1   8  -7   10.86    1.89
  -1  -8   7    8.74    2.12
   1   8  -8   32.35    2.89
  -1  -8   8   32.71    3.46
   1   8  -9   28.01    2.93
  -1  -8   9   34.08    3.33
   1   8 -10    2.10    1.40
  -1  -8  10    3.04    1.92
  -1  -8  11   16.88    3.04
   1   8 -12   12.12    2.21
  -1  -8  12    7.44    2.31
   1   8 -13   -0.97    1.53
  -1  -8  13    4.01    2.56
  -1  -8  14   -1.19    1.86
   1   7  15   -0.74    2.31
   1   7  14    5.35    2.67
   1   7  13    1.87    2.34
   1   7  13    4.63    2.32
   1   7  12   -0.86    1.92
   1   7  12    1.95    2.18
   1   7  11    2.30    2.02
   1   7  11    2.25    2.17
   1   7  10    9.12    2.47
   1   7  10   10.57    2.14
   1   7   9   23.98    2.88
   1   7   8   11.54    2.24
   1   7   7   40.71    3.23
   1   7   6    9.97    1.74
   1   7   5   21.41    2.19
   1   7   4  164.37    7.56
   1   7   3   29.30    2.44
   1   7   2    5.29    1.39
   1   7   1  102.98    5.08
   1   7   0   15.42    1.82
  -1  -7   0   17.47    2.20
   1   7  -1   99.25    4.86
   1   7  -1   98.39    4.29
  -1  -7   1   97.21    5.24
   1   7  -2    6.77    0.50
   1   7  -2    7.04    1.41
  -1  -7   2    6.32    1.59
   1   7  -3   24.73    2.26
  -1  -7   3   28.50    2.56
   1   7  -4  170.17    7.64
  -1  -7   4  162.81    7.94
   1   7  -5   22.99    2.26
  -1  -7   5   22.01    2.44
   1   7  -6   14.72    1.84
  -1  -7   6   14.98    2.07
  -1  -7   6   12.58    0.95
   1   7  -7   41.40    2.79
  -1  -7   7   42.10    3.14
  -1  -7   7   35.12    2.06
   1   7  -8   15.45    2.16
  -1  -7   8   12.90    2.22
  -1  -7   8   12.22    1.38
   1   7  -9   19.05    2.40
  -1  -7   9   18.88    2.65
  -1  -7  10    7.80    2.21
   1   7 -11    2.42    1.31
  -1  -7  11    2.97    2.25
   1   7 -12    1.59    1.51
  -1  -7  12    2.72    1.98
   1   7 -13    1.49    1.67
  -1  -7  13    4.26    2.12
  -1  -7  14    4.27    2.24
  -1  -7  15    1.26    2.16
   1   6  15    0.95    2.44
   1   6  14    3.98    2.52
   1   6  13   -0.56    1.89
   1   6  13    2.79    2.20
   1   6  12    2.39    1.94
   1   6  12    0.67    2.04
   1   6  11    5.99    2.33
   1   6  11    8.30    2.15
   1   6  10    4.42    2.04
   1   6  10    1.84    2.09
   1   6   9   29.97    2.81
   1   6   8    7.30    1.95
   1   6   7   37.66    2.78
   1   6   6    2.40    1.26
   1   6   5   85.90    4.41
   1   6   4   31.69    2.50
   1   6   3  126.26    5.90
   1   6   2    1.20    1.09
   1   6   1   59.01    3.26
   1   6   0   82.54    4.18
  -1  -6   0   85.07    4.57
   1   6  -1   47.56    2.29
   1   6  -1   50.60    2.86
  -1  -6   1   56.25    3.25
   1   6  -2    3.79    1.12
  -1  -6   2    1.57    1.18
   1   6  -3  122.28    5.63
  -1  -6   3  118.26    5.87
   1   6  -4   30.32    2.37
  -1  -6   4   33.21    2.45
   1   6  -5  100.58    4.79
  -1  -6   5   96.01    5.00
  -1  -6   5   92.16    4.06
   1   6  -6    2.67    1.28
  -1  -6   6    3.18    1.38
  -1  -6   6    2.93    0.70
   1   6  -7   42.52    2.79
  -1  -6   7   44.36    3.36
  -1  -6   7   42.23    2.34
   1   6  -8   10.09    1.80
  -1  -6   8   11.32    2.30
  -1  -6   8    9.70    1.29
  -1  -6   9   29.03    2.21
  -1  -6   9   23.23    2.82
   1   6 -10    1.56    1.13
  -1  -6  10    0.81    1.41
  -1  -6  10   -0.47    1.75
   1   6 -11   10.40    1.94
  -1  -6  11    6.18    2.34
   1   6 -12    3.23    1.53
  -1  -6  12    1.10    1.73
   1   6 -13    1.49    1.65
  -1  -6  13    1.72    1.83
  -1  -6  14   -1.54    1.68
  -1  -6  15    2.61    2.38
   1   5  15    3.65    2.52
   1   5  14   -1.44    2.13
   1   5  13    0.52    1.91
   1   5  13    7.37    2.47
   1   5  12    4.78    2.28
   1   5  12    2.21    1.86
   1   5  11    6.69    2.16
   1   5  11    4.05    2.24
   1   5  10   78.38    5.10
   1   5  10   73.45    4.54
   1   5   9   26.53    2.65
   1   5   8   -3.00    1.34
   1   5   7   52.45    3.16
   1   5   6  100.76    4.93
   1   5   5   61.95    3.46
   1   5   4  109.69    5.14
   1   5   3  171.67    7.59
   1   5   2  391.02   16.17
   1   5   1  124.74    5.69
   1   5   0    9.87    1.39
  -1  -5   0   10.32    1.60
   1   5  -1  119.78    4.96
   1   5  -1  114.22    5.37
  -1  -5   1  117.73    5.75
   1   5  -2  395.35   16.31
  -1  -5   2  393.97   17.07
   1   5  -3  172.01    7.44
  -1  -5   3  166.34    7.75
   1   5  -4  112.46    5.46
  -1  -5   4  116.27    5.73
  -1  -5   4  123.11    4.95
   1   5  -5   68.00    3.33
  -1  -5   5   57.62    2.78
  -1  -5   5   60.73    3.48
   1   5  -6  105.36    4.91
  -1  -5   6   97.52    4.48
  -1  -5   6   95.12    5.12
   1   5  -7   61.35    3.48
  -1  -5   7   59.14    3.81
  -1  -5   7   70.20    3.29
   1   5  -8    0.77    0.88
  -1  -5   8    0.55    1.06
  -1  -5   8   -0.30    1.31
  -1  -5   9   19.84    2.50
  -1  -5   9   22.31    2.08
   1   5 -10   72.47    4.27
  -1  -5  10   77.30    4.35
  -1  -5  10   74.81    4.74
   1   5 -11    6.78    1.75
  -1  -5  11   12.83    2.08
  -1  -5  11    6.67    2.00
   1   5 -12    5.01    1.67
  -1  -5  12    1.45    1.78
  -1  -5  12    3.98    1.82
   1   5 -13    4.04    1.68
  -1  -5  13    1.64    1.79
  -1  -5  14    0.60    1.83
  -1  -5  15    0.08    1.92
   1   4  16    6.07    2.83
   1   4  15    2.61    2.48
   1   4  14   -2.95    1.95
   1   4  13    4.67    2.29
   1   4  12    5.12    2.31
   1   4  12    2.39    1.74
   1   4  11   28.90    3.39
   1   4  11   22.51    2.60
   1   4  10   33.48    3.50
   1   4  10   30.94    2.83
   1   4   9   43.08    3.13
   1   4   9   49.63    3.72
   1   4   8   15.29    1.88
   1   4   7   79.12    4.09
   1   4   6    5.21    1.34
   1   4   5   85.14    4.19
   1   4   4  295.90   12.37
   1   4   3  329.77   13.67
   1   4   2  125.51    5.60
   1   4   1  218.09    9.23
   1   4   0    7.86    1.22
  -1  -4   0   10.26    1.46
   1   4  -1  212.03    9.09
   1   4  -1  217.44    8.84
  -1  -4   1  214.58    9.58
   1   4  -2  141.48    6.02
  -1  -4   2  130.26    6.23
   1   4  -3  318.49   14.16
  -1  -4   3  324.92   14.81
  -1  -4   3  378.94   14.00
   1   4  -4  265.29   11.37
  -1  -4   4  267.64   11.19
  -1  -4   4  280.40   11.91
   1   4  -5   86.89    4.17
  -1  -4   5   86.08    3.92
  -1  -4   5   88.05    4.46
   1   4  -6    3.91    1.17
  -1  -4   6    6.77    1.01
  -1  -4   6    7.12    1.35
   1   4  -7   51.94    3.39
  -1  -4   7   77.12    3.52
  -1  -4   7   73.41    3.91
  -1  -4   8   16.85    2.20
  -1  -4   8   14.23    1.65
   1   4  -9   40.93    2.76
  -1  -4   9   48.98    2.99
  -1  -4   9   42.90    3.26
   1   4 -10   34.06    2.84
  -1  -4  10   34.25    2.78
  -1  -4  10   30.79    3.08
   1   4 -11   23.91    2.55
  -1  -4  11   25.86    2.75
  -1  -4  11   21.56    2.82
   1   4 -12    4.32    1.58
  -1  -4  12    3.56    1.86
  -1  -4  12    4.66    1.94
   1   4 -13    4.30    1.73
  -1  -4  13    6.02    2.10
  -1  -4  13    3.87    2.22
  -1  -4  14    0.35    2.11
  -1  -4  15    2.12    2.03
  -1  -4  16    2.77    2.45
   1   3  16   -0.81    2.83
   1   3  15    2.59    2.42
   1   3  14   -2.03    1.95
   1   3  13    1.22    2.08
   1   3  12   22.28    2.71
   1   3  12   19.32    3.04
   1   3  11   39.81    3.21
   1   3  11   39.15    3.86
   1   3  10   18.86    2.74
   1   3  10   16.59    2.15
   1   3   9   78.16    4.95
   1   3   9   87.61    4.55
   1   3   8   68.87    3.74
   1   3   7   22.68    1.97
   1   3   6    5.63    1.07
   1   3   5  108.86    4.95
   1   3   4  164.75    7.11
   1   3   3  655.18   26.40
   1   3   2  196.76    8.29
   1   3   1  141.97    6.11
   1   3   0   13.43    1.14
   1   3   0   11.48    0.83
  -1  -3   0   14.26    1.34
   1   3  -1  142.56    6.34
   1   3  -1  159.79    6.11
  -1  -3   1  139.69    6.66
   1   3  -2  202.90    8.30
  -1  -3   2  191.60    8.63
   1   3  -3  662.31   26.26
  -1  -3   3  638.76   27.40
   1   3  -4  160.40    6.75
  -1  -3   4  150.12    7.02
   1   3  -5  113.99    5.14
  -1  -3   5  112.79    5.46
   1   3  -6    4.88    1.02
  -1  -3   6    4.63    1.17
  -1  -3   7   19.96    2.16
  -1  -3   7   19.54    1.77
   1   3  -8   40.51    2.44
   1   3  -9   82.91    4.34
  -1  -3   9   81.13    4.48
   1   3 -10   18.13    2.08
  -1  -3  10   19.18    2.36
   1   3 -11   41.81    3.06
  -1  -3  11   44.70    3.50
   1   3 -12   20.71    2.36
  -1  -3  12   20.88    2.59
   1   3 -13    0.57    1.37
  -1  -3  13    0.17    1.90
  -1  -3  14    0.43    2.06
  -1  -3  15   -1.00    2.13
  -1  -3  15    2.63    2.03
  -1  -3  16   -1.19    1.86
   1   2  16    1.00    2.38
   1   2  15   -2.04    2.08
   1   2  14   -0.50    2.05
   1   2  13   12.74    2.76
   1   2  12   -1.10    1.90
   1   2  12    1.31    1.51
   1   2  11   13.17    2.09
   1   2  11   13.06    2.60
   1   2  10   30.23    3.24
   1   2  10   31.25    2.52
   1   2   9    2.38    1.22
   1   2   9    2.35    1.66
   1   2   8   14.16    1.59
   1   2   8   12.72    2.00
   1   2   7   96.47    4.54
   1   2   6   -0.29    0.83
   1   2   5    8.46    1.07
   1   2   4   34.31    1.96
   1   2   3   47.87    2.44
   1   2   2  442.68   17.84
   1   2   1   85.37    3.72
   1   2   0  110.60    4.57
   1   2   0  108.12    4.61
  -1  -2   0  108.03    4.88
   1   2  -1   75.91    3.61
  -1  -2   1   90.80    3.83
   1   2  -2  420.57   17.09
  -1  -2   2  424.37   17.81
   1   2  -3   54.74    2.56
  -1  -2   3   44.63    2.63
   1   2  -4   33.51    1.91
  -1  -2   4   32.97    2.14
   1   2  -5    4.59    0.87
   1   2  -6   -0.02    0.22
   1   2  -8   12.64    1.50
   1   2  -9    1.74    1.17
  -1  -2   9    3.86    1.51
   1   2 -10   30.14    2.53
  -1  -2  10   27.54    2.84
   1   2 -11   13.96    1.99
  -1  -2  11   15.28    2.27
   1   2 -12    2.20    1.44
  -1  -2  12   -0.53    1.51
   1   2 -13   16.93    2.25
  -1  -2  13   11.14    2.38
  -1  -2  14    0.47    2.14
  -1  -2  15    2.46    2.43
  -1  -2  16   -1.74    2.34
   1   1  16   -1.15    2.23
   1   1  15   -0.41    2.15
   1   1  14   21.35    3.30
   1   1  13    2.65    2.12
   1   1  12    2.42    1.66
   1   1  12    3.59    2.11
   1   1  11    2.65    1.98
   1   1  11    3.05    1.49
   1   1  10    0.72    1.42
   1   1  10   -0.77    1.62
   1   1   9   -1.94    1.06
   1   1   9    2.57    1.58
   1   1   8   25.94    2.01
   1   1   8   29.20    2.64
   1   1   7   16.72    1.59
   1   1   7   15.42    1.92
   1   1   6  376.99   15.45
   1   1   5    7.97    1.02
   1   1   4  209.59    8.66
   1   1   3   82.32    3.59
   1   1   2    8.45    0.81
   1   1   2    9.57    0.73
   1   1   1  117.35    4.83
   1   1   1  116.21    4.97
   1   1   0  469.89   18.37
  -1  -1   0  449.48   19.21
   1   1  -1  122.68    5.00
   1   1  -1  125.32    5.05
  -1  -1   1  115.65    5.22
   1   1  -2    9.06    0.74
  -1  -1   2    9.72    0.81
   1   1  -3   75.66    3.40
   1   1  -4  192.90    8.07
   1   1  -5    0.26    0.39
   1   1  -6   -0.15    0.20
   1   1  -7    9.41    1.19
   1   1  -8   26.00    1.88
   1   1  -9    1.20    1.09
   1   1 -10   -1.06    1.15
  -1  -1  10   -1.56    1.62
   1   1 -11    2.13    1.46
  -1  -1  11    0.98    1.93
   1   1 -12    1.20    1.44
  -1  -1  12   -0.15    1.95
   1   1 -13    4.35    1.64
  -1  -1  13    0.21    2.00
  -1  -1  14   29.00    3.42
  -1  -1  15   -0.27    1.88
  -1  -1  16    1.96    2.21
   1   0  16   -1.92    2.13
   1   0  15    4.36    2.40
   1   0  14    0.32    2.07
   1   0  13   28.77    3.48
   1   0  12    4.79    2.12
   1   0  12    7.69    1.79
   1   0  11   18.14    2.18
   1   0  11   13.78    2.49
   1   0  10   -0.13    1.56
   1   0  10    4.26    1.45
   1   0   9    2.26    1.55
   1   0   9    3.92    1.21
   1   0   8   64.88    3.88
   1   0   8   65.97    3.42
   1   0   7  245.41   10.65
   1   0   7  265.53   11.32
   1   0   6   27.53    1.66
   1   0   6   23.71    1.96
  -1   0  -6   27.24    1.62
   1   0   5   83.36    3.68
   1   0   5   79.96    4.05
  -1   0  -5   82.52    3.66
   1   0   4    9.15    0.90
   1   0   4   10.00    1.22
   1   0   3    7.87    0.98
   1   0   3    7.93    0.72
   1   0   2   52.41    2.25
   1   0   2   53.08    2.46
   1   0   1  970.38   39.65
   1   0   1  960.82   38.58
   1   0   0   -0.08    0.06
   1   0   0   -0.05    0.05
   1   0  -1  993.52   39.49
   1   0  -2   52.18    2.33
   1   0  -3    8.53    0.82
   1   0  -4    5.73    0.80
   1   0  -6    0.11    0.25
   1   0  -8   68.30    3.57
   1   0  -9    4.12    1.29
   1   0 -10   -1.81    1.13
   1   0 -11   16.06    2.13
  -1   0  11   15.58    2.44
   1   0 -12    7.11    1.81
  -1   0  12   11.05    2.30
  -1   0  13   25.10    3.18
  -1   0  13   27.47    2.89
  -1   0  14    5.56    2.45
  -1   0  15    6.13    2.74
  -1   0  16   -0.45    2.48
   1  -1  16   -3.71    2.51
   1  -1  15    3.44    2.34
   1  -1  14    5.12    2.29
   1  -1  13   33.64    3.64
   1  -1  12    6.40    2.18
   1  -1  12   10.94    1.96
   1  -1  11   12.54    2.42
   1  -1  11   19.11    2.15
   1  -1  10    1.53    1.54
  -1   1 -10    0.91    1.09
   1  -1   9    3.19    1.48
  -1   1  -9    3.52    1.15
   1  -1   8   69.57    3.94
  -1   1  -8   68.13    3.42
   1  -1   7  252.44   10.94
  -1   1  -7  241.91   10.30
   1  -1   6   27.31    1.98
  -1   1  -6   26.63    1.64
   1  -1   5   88.54    4.27
  -1   1  -5   88.59    3.90
   1  -1   4   10.76    1.19
  -1   1  -4   11.22    0.91
   1  -1   3    7.80    0.90
  -1   1  -3    7.45    0.65
   1  -1   2   52.85    2.41
  -1   1  -2   52.16    2.21
   1  -1   1 1000.00   41.13
   1  -1   0   -0.16    0.04
   1  -1   0   -0.09    0.06
  -1   1   0   -0.13    0.03
   1  -1  -1  970.48   37.76
   1  -1  -1  913.85   38.60
   1  -1  -2   48.30    2.18
   1  -1  -3   11.10    0.99
   1  -1  -4    8.14    0.92
   1  -1  -6    0.01    0.19
   1  -1  -8   57.08    3.15
   1  -1  -9    1.29    1.20
   1  -1 -10   -0.20    1.24
  -1   1  10   -0.31    1.41
  -1   1  11   15.71    2.18
  -1   1  12    9.45    2.31
  -1   1  12    9.98    2.09
  -1   1  13   30.08    3.58
  -1   1  13   25.49    3.03
  -1   1  14    5.71    2.64
  -1   1  15    5.01    2.29
  -1   1  16   -1.01    1.98
   1  -2  16    5.02    2.40
   1  -2  15   -2.28    1.87
   1  -2  14   31.31    3.90
   1  -2  13    1.26    1.83
   1  -2  12    2.84    1.90
  -1   2 -12    1.22    1.25
   1  -2  11   -0.45    1.94
  -1   2 -11    1.91    1.31
   1  -2  10    0.11    1.45
  -1   2 -10    0.75    1.04
   1  -2   9    1.11    1.31
  -1   2  -9    0.78    0.96
   1  -2   8   31.05    2.64
  -1   2  -8   28.68    1.97
   1  -2   7   14.02    1.65
  -1   2  -7   13.98    1.34
   1  -2   6  351.11   15.24
  -1   2  -6  367.30   14.70
   1  -2   5    8.66    1.19
  -1   2  -5    9.26    0.93
   1  -2   4  217.06    9.37
  -1   2  -4  222.57    9.02
   1  -2   3   81.53    3.60
  -1   2  -3   76.82    3.39
   1  -2   2   10.33    0.70
  -1   2  -2    8.86    0.61
   1  -2   1  108.63    4.67
   1  -2   1  114.68    4.86
   1  -2   0  464.99   19.02
   1  -2   0  460.54   19.49
  -1   2   0  473.08   18.63
  -1   2   1  114.67    4.78
  -1   2   2    9.98    0.83
  -1   2   3   79.39    3.58
  -1   2   4  210.78    8.85
  -1   2   5    8.01    1.16
  -1   2   6  377.07   15.59
  -1   2   7   16.49    1.72
  -1   2   8   28.10    2.32
  -1   2   9    1.02    1.31
  -1   2  10    0.85    1.52
  -1   2  11    1.77    1.44
  -1   2  12    1.85    1.77
  -1   2  12    0.71    1.85
  -1   2  13   -1.83    1.80
  -1   2  13    1.22    1.85
  -1   2  14   22.61    3.29
  -1   2  15    1.79    2.52
  -1   2  16    1.89    2.38
   1  -3  16   -0.57    2.06
   1  -3  15    2.14    2.13
   1  -3  14   -0.92    1.73
   1  -3  13   19.82    2.86
   1  -3  12    1.55    2.04
  -1   3 -12   -0.45    1.12
   1  -3  11   11.76    2.50
  -1   3 -11   13.11    1.73
   1  -3  10   27.65    2.97
  -1   3 -10   33.04    2.40
   1  -3   9    0.36    1.27
  -1   3  -9    1.73    0.98
   1  -3   8    9.11    1.66
  -1   3  -8   14.70    1.45
   1  -3   7   95.36    4.88
  -1   3  -7  102.17    4.59
   1  -3   6    0.46    0.91
  -1   3  -6    0.67    0.68
   1  -3   5    7.61    1.07
  -1   3  -5    5.39    0.84
   1  -3   4   36.91    1.97
  -1   3  -4   34.55    1.90
   1  -3   3   55.57    2.46
   1  -3   3   55.77    2.78
  -1   3  -3   44.75    2.43
   1  -3   2  415.06   17.84
   1  -3   2  428.36   17.28
   1  -3   1   73.73    3.35
   1  -3   1   80.75    3.63
  -1   3  -1   83.22    3.45
   1  -3   0  110.49    4.66
   1  -3   0  112.46    4.95
  -1   3   0  108.28    4.67
  -1   3   1   81.93    3.61
  -1   3   2  429.43   17.38
  -1   3   3   55.71    2.76
  -1   3   4   35.41    2.07
  -1   3   5    3.47    1.05
  -1   3   6    1.11    0.88
  -1   3   7   97.91    4.74
  -1   3   8   11.92    1.73
  -1   3   9    2.42    1.50
  -1   3  10   33.97    3.00
  -1   3  11   12.96    2.26
  -1   3  12    2.25    1.78
  -1   3  13   15.99    2.56
  -1   3  13   17.59    2.88
  -1   3  14    0.41    1.82
  -1   3  14    4.53    2.71
  -1   3  15    3.16    2.32
  -1   3  16   -0.05    2.15
   1  -4  16    5.77    2.73
   1  -4  15    5.67    2.45
   1  -4  14    1.59    1.86
   1  -4  13    0.72    2.02
   1  -4  12   21.13    2.85
  -1   4 -12   19.22    2.09
   1  -4  11   38.04    3.55
  -1   4 -11   40.90    2.76
   1  -4  10   16.88    2.23
  -1   4 -10   21.53    2.00
   1  -4   9   86.17    4.63
  -1   4  -9   79.98    4.21
   1  -4   8   77.00    4.07
  -1   4  -8   71.91    3.71
   1  -4   7   17.04    1.73
  -1   4  -7   19.01    1.62
   1  -4   6    6.48    1.10
  -1   4  -6    5.39    0.99
   1  -4   5  116.55    5.05
   1  -4   5  107.25    5.42
  -1   4  -5  111.16    4.96
   1  -4   4  163.77    7.49
   1  -4   4  172.76    7.03
  -1   4  -4  156.10    6.97
   1  -4   3  642.13   27.67
   1  -4   3  668.42   26.80
   1  -4   2  191.70    7.74
   1  -4   2  190.62    8.22
  -1   4  -2  175.98    7.79
   1  -4   1  138.57    6.33
   1  -4   1  146.10    5.91
  -1   4  -1  138.11    6.03
   1  -4   0   16.13    1.45
  -1   4   0   14.47    1.24
  -1   4   1  150.41    6.43
  -1   4   2  197.95    8.35
  -1   4   3  652.18   26.34
  -1   4   4  158.40    6.90
  -1   4   5  107.78    4.97
  -1   4   6    5.76    1.28
  -1   4   7   18.35    1.80
  -1   4   8   76.84    4.17
  -1   4   9   82.28    4.53
  -1   4  10   19.70    2.40
  -1   4  11   39.27    3.34
  -1   4  12   17.58    2.37
  -1   4  13    0.91    1.84
  -1   4  13    3.58    2.08
  -1   4  14   -0.30    1.86
  -1   4  14   -2.18    1.90
  -1   4  15    4.03    2.39
  -1   4  16    2.00    2.34
   1  -5  16    4.04    2.33
   1  -5  15    2.41    2.10
   1  -5  14    1.93    1.95
   1  -5  14   -1.65    1.95
   1  -5  13    2.54    1.95
   1  -5  13    2.63    1.98
   1  -5  12    8.10    2.08
   1  -5  12    7.83    2.22
  -1   5 -12    4.59    1.54
   1  -5  11   21.57    2.96
   1  -5  11   26.68    2.83
  -1   5 -11   29.27    2.49
   1  -5  10   32.60    2.85
   1  -5  10   27.31    3.05
  -1   5 -10   31.46    2.39
   1  -5   9   39.94    3.31
   1  -5   9   43.72    2.98
  -1   5  -9   48.08    2.90
   1  -5   8   11.67    1.95
   1  -5   8   17.08    1.78
  -1   5  -8   16.78    1.68
   1  -5   7   77.07    3.76
   1  -5   7   73.13    4.23
  -1   5  -7   72.26    3.72
   1  -5   6    5.72    1.38
   1  -5   6    5.07    1.04
  -1   5  -6    5.79    1.07
   1  -5   5   84.63    3.87
   1  -5   5   88.44    4.40
  -1   5  -5   79.30    3.94
   1  -5   4  277.04   12.35
   1  -5   4  283.38   11.68
   1  -5   3  300.05   13.28
   1  -5   3  322.81   12.61
  -1   5  -3  290.97   12.61
   1  -5   2  131.57    5.60
   1  -5   2  140.89    6.21
  -1   5  -2  129.29    5.87
   1  -5   1  213.35    8.71
   1  -5   1  205.91    9.32
  -1   5  -1  209.01    8.88
   1  -5   0    7.84    1.42
  -1   5   0   11.62    1.32
   1  -5  -1  215.41    9.50
  -1   5   1  207.84    8.96
  -1   5   2  139.35    6.18
  -1   5   3  312.64   13.03
  -1   5   4  256.61   10.85
  -1   5   5   92.65    4.50
  -1   5   6    5.08    1.24
  -1   5   7   80.16    4.19
  -1   5   8   13.50    1.80
  -1   5   9   42.85    3.22
  -1   5  10   36.82    3.25
  -1   5  11   28.34    3.02
  -1   5  12    5.98    1.87
  -1   5  13    3.78    2.23
  -1   5  13    2.01    2.03
  -1   5  14    2.87    2.18
  -1   5  14    0.03    2.01
  -1   5  15    4.36    2.44
  -1   5  16    4.97    2.68
   1  -6  15   -1.14    1.92
   1  -6  14    0.32    1.92
   1  -6  13    3.98    2.02
   1  -6  12    1.32    1.76
   1  -6  12    2.90    1.88
  -1   6 -12    2.46    1.35
   1  -6  11    5.99    1.94
   1  -6  11    7.50    2.15
  -1   6 -11    6.61    1.66
   1  -6  10   75.80    4.33
   1  -6  10   71.59    4.77
  -1   6 -10   78.99    4.24
   1  -6   9   20.77    2.09
   1  -6   9   19.62    2.53
  -1   6  -9   22.68    2.10
   1  -6   8   -0.74    0.99
   1  -6   8   -0.11    1.44
  -1   6  -8    0.73    1.08
   1  -6   7   54.43    3.06
   1  -6   7   56.21    3.66
  -1   6  -7   65.18    3.28
   1  -6   6  107.38    5.30
   1  -6   6   99.36    4.58
  -1   6  -6   94.98    4.75
   1  -6   5   64.81    3.13
   1  -6   5   69.84    3.82
   1  -6   4  100.07    4.62
   1  -6   4  113.75    5.33
  -1   6  -4  110.91    4.98
   1  -6   3  172.18    8.06
   1  -6   3  177.86    7.33
  -1   6  -3  175.89    7.68
   1  -6   2  376.97   16.66
   1  -6   2  396.03   15.80
  -1   6  -2  381.23   15.91
   1  -6   1  124.71    6.04
  -1   6  -1  125.01    5.67
   1  -6   0   11.80    1.66
  -1   6   0   10.36    1.40
   1  -6  -1  117.92    5.84
  -1   6   1  119.38    5.47
  -1   6   2  389.59   16.13
  -1   6   3  173.51    7.66
  -1   6   4  119.79    5.61
  -1   6   5   66.93    3.61
  -1   6   6   97.99    4.87
  -1   6   7   58.54    3.47
  -1   6   8   -0.77    1.50
  -1   6   9   18.69    2.44
  -1   6  10   75.15    4.53
  -1   6  11   11.88    2.42
  -1   6  12    5.78    2.15
  -1   6  13    2.39    2.11
  -1   6  14   -0.97    1.98
  -1   6  14   -0.83    2.02
  -1   6  15    0.88    2.20
   1  -7  15   -0.73    2.36
   1  -7  14    2.16    2.11
   1  -7  13   -0.66    1.84
   1  -7  12    5.50    2.14
  -1   7 -12    4.29    1.58
   1  -7  11    4.20    2.04
   1  -7  11    8.40    1.90
  -1   7 -11    7.98    1.74
   1  -7  10    2.71    1.57
   1  -7  10    2.14    1.87
  -1   7 -10    3.08    1.38
   1  -7   9   29.93    3.08
   1  -7   9   29.11    2.39
  -1   7  -9   29.54    2.59
   1  -7   8   11.34    2.14
   1  -7   8    9.43    1.43
  -1   7  -8   11.59    1.69
   1  -7   7   36.74    3.16
   1  -7   7   45.04    2.50
  -1   7  -7   43.83    2.76
   1  -7   6    3.94    0.87
   1  -7   6    3.23    1.46
   1  -7   5   99.20    4.99
   1  -7   5   93.28    4.14
  -1   7  -5   87.43    4.50
   1  -7   4   30.48    1.60
   1  -7   4   32.18    2.29
  -1   7  -4   33.85    2.33
   1  -7   3  130.87    6.39
   1  -7   3  136.47    5.57
  -1   7  -3  127.10    6.11
   1  -7   2    3.74    0.57
   1  -7   2    3.89    1.25
  -1   7  -2    4.15    1.22
   1  -7   1   51.03    3.26
  -1   7  -1   63.80    3.23
   1  -7   0   75.25    4.34
  -1   7   0   82.41    4.05
   1  -7  -1   51.72    3.17
  -1   7   1   52.33    3.02
  -1   7   2    5.37    1.23
  -1   7   3  127.03    5.94
  -1   7   4   29.40    2.33
  -1   7   5   98.09    4.95
  -1   7   6    4.66    1.45
  -1   7   7   43.58    3.22
  -1   7   8    6.80    1.74
  -1   7   9   28.66    2.98
  -1   7  10    1.28    1.99
  -1   7  11    9.71    2.38
  -1   7  12    1.19    2.01
  -1   7  13    2.29    2.12
  -1   7  14    0.57    2.21
  -1   7  14   -0.31    2.04
  -1   7  15    2.94    2.54
   1  -8  15   -1.04    2.06
   1  -8  14    1.75    2.13
   1  -8  13    2.47    2.11
   1  -8  12    3.95    2.33
  -1   8 -12    2.27    1.41
   1  -8  11    3.11    2.05
  -1   8 -11    2.91    1.41
   1  -8  10   10.29    2.35
  -1   8 -10    7.90    1.70
   1  -8   9   24.20    2.91
   1  -8   9   19.74    1.95
  -1   8  -9   19.31    2.27
   1  -8   8   11.80    1.45
   1  -8   8   11.71    2.25
  -1   8  -8   13.50    1.88
   1  -8   7   41.47    3.31
   1  -8   7   42.49    2.37
   1  -8   6   15.62    2.13
   1  -8   6   14.24    1.20
  -1   8  -6   15.02    1.92
   1  -8   5   21.15    1.31
   1  -8   5   23.18    2.40
  -1   8  -5   22.90    2.09
   1  -8   4  170.64    8.32
   1  -8   4  173.49    7.27
  -1   8  -4  180.85    7.92
   1  -8   3   23.37    2.31
   1  -8   3   24.85    1.29
  -1   8  -3   27.51    2.14
   1  -8   2    7.58    1.68
  -1   8  -2    9.14    1.50
   1  -8   1  101.91    5.38
  -1   8  -1  100.50    5.01
   1  -8   0   13.63    2.02
  -1   8   0   10.69    1.64
   1  -8  -1   89.73    5.15
  -1   8   1   98.56    4.80
  -1   8   2    8.44    1.34
  -1   8   3   27.93    2.52
  -1   8   4  170.30    7.81
  -1   8   5   21.98    2.27
  -1   8   6   13.73    2.06
  -1   8   7   43.03    3.21
  -1   8   8   12.49    2.38
  -1   8   9   23.52    2.95
  -1   8  10   10.81    2.51
  -1   8  11    1.78    2.11
  -1   8  12    1.38    2.16
  -1   8  13   -0.13    2.16
  -1   8  14    0.32    2.27
  -1   8  14    1.35    2.33
  -1   8  15    0.80    2.38
   1  -9  14   -1.22    2.51
   1  -9  13    1.85    2.11
   1  -9  12    6.36    2.29
  -1   9 -12    6.56    1.72
   1  -9  11   14.58    2.94
  -1   9 -11   14.80    2.17
   1  -9  10    0.47    1.89
  -1   9 -10    3.12    1.58
   1  -9   9   25.36    3.10
  -1   9  -9   28.47    2.78
   1  -9   8   31.40    3.09
  -1   9  -8   12.03    1.59
   1  -9   7   12.23    1.25
   1  -9   7   15.57    2.38
  -1   9  -7   13.27    1.93
   1  -9   6   11.91    2.18
   1  -9   6   13.51    1.06
  -1   9  -6   13.50    1.88
   1  -9   5   43.22    2.00
   1  -9   5   45.55    3.35
  -1   9  -5   44.81    3.13
   1  -9   4   13.95    2.08
  -1   9  -4   13.94    1.89
   1  -9   3  192.34    8.98
  -1   9  -3  179.82    8.44
   1  -9   2    5.36    1.72
  -1   9  -2    6.05    1.47
   1  -9   1   28.97    2.82
  -1   9  -1   23.81    2.34
   1  -9   0  141.38    7.44
  -1   9   0  151.98    6.97
   1  -9  -1   27.13    2.87
  -1   9   1   28.23    2.50
  -1   9   2    6.00    1.57
  -1   9   3  198.04    9.02
  -1   9   4   14.00    2.00
  -1   9   5   51.04    3.65
  -1   9   6   13.66    2.11
  -1   9   7   13.14    2.24
  -1   9   8   30.05    3.08
  -1   9   9   28.09    3.08
  -1   9  10    6.42    2.08
  -1   9  11   17.51    2.93
  -1   9  12    6.64    2.57
  -1   9  13    0.42    2.13
  -1   9  13    0.40    2.29
  -1   9  14    2.09    2.22
  -1   9  14    0.39    2.36
   1 -10  14    4.43    2.45
   1 -10  13    1.67    2.18
   1 -10  12    1.42    2.03
   1 -10  11    1.62    2.04
  -1  10 -11    3.26    1.59
   1 -10  10   23.63    3.22
  -1  10 -10   35.76    3.14
   1 -10   9   11.33    2.75
  -1  10  -9    7.85    1.74
   1 -10   8    1.16    2.00
  -1  10  -8    2.53    1.35
   1 -10   7   38.04    3.64
  -1  10  -7   36.31    3.28
   1 -10   6   28.87    3.11
  -1  10  -6   30.96    2.84
   1 -10   5    6.34    1.96
  -1  10  -5    9.65    1.77
   1 -10   4   65.63    4.27
  -1  10  -4   66.20    4.11
   1 -10   3   35.74    3.32
  -1  10  -3   37.17    2.86
   1 -10   2  158.19    8.16
  -1  10  -2  166.41    7.78
   1 -10   1   28.26    2.95
  -1  10  -1   25.86    2.56
   1 -10   0    1.03    1.69
  -1  10   0    2.70    1.49
  -1  10   1   27.01    2.60
  -1  10   2  172.59    8.12
  -1  10   3   28.00    2.68
  -1  10   4   70.50    4.30
  -1  10   5    7.79    1.95
  -1  10   6   25.15    2.78
  -1  10   7   39.19    3.48
  -1  10   8    3.49    2.00
  -1  10   9    8.67    2.27
  -1  10  10   38.08    3.64
  -1  10  11    0.59    1.93
  -1  10  12   -2.35    1.87
  -1  10  13    1.75    2.51
  -1  10  13    2.93    2.36
  -1  10  14    2.75    2.48
  -1  10  14    5.43    2.77
   1 -11  14    0.32    2.23
   1 -11  13    4.21    2.72
   1 -11  12    3.83    2.29
   1 -11  11    1.34    2.11
  -1  11 -11    6.30    1.92
   1 -11  10   11.89    2.99
  -1  11 -10    6.04    1.89
   1 -11   9    9.46    2.49
   1 -11   8    2.60    2.15
  -1  11  -8    1.87    1.49
   1 -11   7    8.21    2.34
  -1  11  -7    9.18    2.21
   1 -11   6   20.67    2.85
  -1  11  -6   16.29    2.35
   1 -11   5   12.79    2.42
  -1  11  -5   11.46    2.09
   1 -11   4   69.10    4.74
  -1  11  -4   73.53    4.60
   1 -11   3   41.37    3.77
  -1  11  -3   40.13    3.19
   1 -11   2    3.38    1.99
  -1  11  -2    6.80    1.82
   1 -11   1   11.61    2.31
  -1  11  -1    8.64    2.12
   1 -11   0    1.27    1.87
  -1  11   0    2.92    1.57
  -1  11   1   10.45    2.05
  -1  11   2    5.56    1.87
  -1  11   3   44.97    3.47
  -1  11   4   70.77    4.48
  -1  11   5   12.60    2.27
  -1  11   6   13.38    2.43
  -1  11   7   10.30    2.60
  -1  11   8    3.67    2.07
  -1  11   9    6.33    2.47
  -1  11  10    9.01    2.34
  -1  11  11   -0.70    2.27
  -1  11  12   -1.50    2.00
  -1  11  13   -0.48    2.51
  -1  11  13   -1.32    2.04
  -1  11  14    4.80    2.65
  -1  11  14   -0.02    2.56
   1 -12  13    1.70    2.36
   1 -12  12    5.15    2.98
   1 -12  11    4.85    2.49
  -1  12 -11    4.40    1.90
   1 -12  10    0.94    2.17
  -1  12 -10    0.79    0.54
   1 -12   9    3.72    2.27
  -1  12  -9    2.00    1.75
   1 -12   8    2.34    2.14
  -1  12  -8    5.63    1.98
   1 -12   7    0.62    2.13
  -1  12  -7    4.61    1.81
   1 -12   6    0.48    2.02
  -1  12  -6    1.78    1.68
   1 -12   5    6.03    2.30
  -1  12  -5    7.28    2.25
   1 -12   4    8.01    2.48
  -1  12  -4    8.87    2.08
   1 -12   3   37.23    3.74
  -1  12  -3   33.63    3.30
   1 -12   2    0.38    1.99
  -1  12  -2    1.31    1.77
   1 -12   1    6.45    2.30
  -1  12  -1    7.38    2.04
   1 -12   0   53.19    4.17
  -1  12   0   38.74    3.55
  -1  12   1    4.07    1.86
  -1  12   2    4.43    1.96
  -1  12   3   34.61    3.39
  -1  12   4   10.19    2.36
  -1  12   5    6.72    2.21
  -1  12   6   -2.26    1.89
  -1  12   7    1.43    2.45
  -1  12   8    2.80    2.08
  -1  12   9    1.63    2.39
  -1  12  10    0.43    1.97
  -1  12  11    3.47    2.24
  -1  12  12    1.69    2.20
  -1  12  13    3.18    2.36
  -1  12  13    1.82    2.44
   1 -13  12   -0.28    2.35
   1 -13  11    2.24    2.39
  -1  13 -11    3.90    1.63
   1 -13  10    1.78    2.30
  -1  13 -10    2.17    1.66
   1 -13   9    2.73    2.64
  -1  13  -9   -1.50    1.64
   1 -13   8    2.64    2.21
  -1  13  -8    5.20    1.87
   1 -13   7   11.69    2.75
  -1  13  -7   12.81    2.37
   1 -13   6    1.60    2.31
  -1  13  -6   -0.19    1.62
   1 -13   5    9.78    2.74
  -1  13  -5    7.02    2.12
   1 -13   4    9.27    2.66
  -1  13  -4    4.50    2.12
   1 -13   3    2.59    2.24
  -1  13  -3   -1.54    1.72
   1 -13   2    4.55    2.33
  -1  13  -2    5.25    2.07
   1 -13   1   28.09    3.59
  -1  13  -1   27.74    3.15
   1 -13   0   34.86    3.92
  -1  13   0   37.80    3.58
  -1  13   1   30.83    3.25
  -1  13   2    4.52    2.07
  -1  13   3   -1.23    1.86
  -1  13   4    9.55    2.37
  -1  13   5   11.72    2.67
  -1  13   6   -1.34    1.95
  -1  13   7   11.49    2.57
  -1  13   8    5.90    2.32
  -1  13   9    4.65    2.29
  -1  13  10    1.29    2.20
  -1  13  11    5.02    2.60
  -1  13  12    5.23    2.92
  -1  13  12    1.84    2.33
   1 -14  12    1.05    2.45
   1 -14  11   -4.12    2.13
  -1  14 -11    0.88    0.90
   1 -14  10    4.64    2.55
  -1  14 -10    7.26    2.22
   1 -14   9    3.14    2.44
  -1  14  -9    2.90    1.65
   1 -14   8    7.56    2.61
  -1  14  -8    6.95    2.06
   1 -14   7    0.93    2.26
  -1  14  -7    1.84    2.00
   1 -14   6   28.31    4.13
  -1  14  -6   29.54    3.37
   1 -14   5   -1.03    2.17
  -1  14  -5    1.06    2.11
   1 -14   4    0.13    2.29
  -1  14  -4    2.41    2.34
   1 -14   3    0.20    2.25
  -1  14  -3   -1.29    1.86
   1 -14   2   21.77    3.35
  -1  14  -2   18.67    2.90
   1 -14   1   -1.68    2.21
  -1  14  -1    2.25    2.32
   1 -14   0   42.70    4.40
  -1  14   0   41.67    3.90
  -1  14   1   -0.80    1.92
  -1  14   2   20.05    2.94
  -1  14   3    0.46    2.07
  -1  14   4    1.51    2.13
  -1  14   5   -1.87    1.96
  -1  14   6   28.00    3.44
  -1  14   7    0.18    2.07
  -1  14   8    1.96    2.67
  -1  14   9   -0.89    2.45
  -1  14  10    5.28    2.47
  -1  14  11    3.76    2.44
  -1  14  12    5.08    3.00
  -1  14  12   -2.28    2.06
   1 -15  11   -0.84    2.41
  -1  15 -11    1.93    1.71
   1 -15  10    0.72    2.37
  -1  15 -10    3.28    2.03
   1 -15   9    5.04    2.81
  -1  15  -9    4.16    1.97
   1 -15   8   10.80    3.05
  -1  15  -8   13.73    2.84
   1 -15   7    6.30    2.82
  -1  15  -7    9.14    2.56
   1 -15   6    2.88    2.42
  -1  15  -6    0.26    2.06
   1 -15   5    2.95    2.50
  -1  15  -5    1.15    1.89
   1 -15   4    3.46    2.51
  -1  15  -4    2.59    2.05
   1 -15   3   -1.67    2.09
  -1  15  -3   -1.41    1.88
   1 -15   2    4.08    2.55
  -1  15  -2    2.00    2.10
   1 -15   1   22.73    3.49
  -1  15  -1   30.90    3.46
  -1  15   0   28.33    3.37
  -1  15   1   24.85    3.23
  -1  15   2    0.23    2.08
  -1  15   3   -0.87    2.41
  -1  15   4    4.70    2.26
  -1  15   5    2.28    2.12
  -1  15   6    1.69    2.24
  -1  15   7    5.35    2.44
  -1  15   8    3.14    2.81
  -1  15   9    7.85    3.05
  -1  15  10   -1.70    2.27
  -1  15  11    0.81    2.38
  -1  15  11    0.08    2.04
   1 -16  10   -1.94    2.66
  -1  16 -10    0.97    2.08
   1 -16   9    1.66    3.17
  -1  16  -9    0.96    2.06
   1 -16   8    0.91    3.14
  -1  16  -8    2.30    2.08
   1 -16   7    7.29    2.92
  -1  16  -7    5.81    2.24
   1 -16   6   -0.72    2.37
  -1  16  -6    0.78    2.25
   1 -16   5    2.86    2.49
  -1  16  -5    0.61    1.89
   1 -16   4   -0.71    2.68
  -1  16  -4    0.37    1.89
   1 -16   3   -1.31    2.10
  -1  16  -3    3.75    2.49
   1 -16   2   -0.09    2.24
  -1  16  -2    4.38    2.17
   1 -16   1    3.30    2.36
  -1  16  -1    9.56    2.49
  -1  16   0    4.27    2.18
  -1  16   1    7.75    2.46
  -1  16   2   -0.48    2.06
  -1  16   3    3.63    2.26
  -1  16   4    0.45    2.02
  -1  16   5    1.93    2.27
  -1  16   6    3.09    2.39
  -1  16   7    4.54    2.52
  -1  16   8    4.86    2.66
  -1  16   9   -0.85    2.71
  -1  16  10    4.61    2.42
  -1  16  10    2.92    2.49
   1 -17   9   -2.07    2.70
  -1  17  -9    1.05    1.86
   1 -17   8   -2.47    2.47
  -1  17  -8   -3.38    2.03
   1 -17   7   -0.88    2.54
  -1  17  -7    0.56    1.97
   1 -17   6    2.83    2.67
  -1  17  -6    4.73    2.27
   1 -17   5    0.19    2.51
  -1  17  -5    4.22    2.22
   1 -17   4    6.66    2.80
  -1  17  -4    6.15    2.78
   1 -17   3   -0.71    2.25
  -1  17  -3    0.80    2.07
   1 -17   2    2.76    2.42
  -1  17  -2    1.40    2.15
   1 -17   1    0.01    2.30
  -1  17  -1   -0.22    1.98
  -1  17   0   -0.03    1.95
  -1  17   1   -0.39    2.05
  -1  17   2    0.97    2.11
  -1  17   3    2.33    2.26
  -1  17   4   11.79    2.74
  -1  17   5    1.26    2.31
  -1  17   6    4.73    2.50
  -1  17   7    3.27    2.48
  -1  17   8    0.26    2.39
  -1  17   9   -0.81    2.34
  -1  17   9    0.23    2.08
   1 -18   8    1.68    2.92
  -1  18  -8   -1.08    1.94
   1 -18   7   -1.52    2.59
  -1  18  -7    0.65    2.09
   1 -18   6   -0.64    2.50
  -1  18  -6    1.90    2.48
   1 -18   5   -2.47    2.32
  -1  18  -5   -0.27    1.99
   1 -18   4    4.28    2.76
  -1  18  -4   -0.65    2.05
   1 -18   3    2.97    3.17
  -1  18  -3    3.80    2.33
   1 -18   2    7.51    2.76
  -1  18  -2    4.24    2.45
  -1  18  -1   -0.32    2.04
  -1  18   0    2.91    2.69
  -1  18   1   -0.71    1.92
  -1  18   2    7.22    2.63
  -1  18   3    2.26    2.32
  -1  18   4    1.40    2.29
  -1  18   5   -1.31    2.18
  -1  18   6    3.23    1.87
  -1  18   6   -0.33    2.29
  -1  18   7    2.17    1.99
  -1  18   7    6.81    3.12
  -1  18   8    4.52    2.60
  -1  18   8    3.33    2.76
   1 -19   6   -1.49    2.61
  -1  19  -6    0.38    2.19
   1 -19   5    0.84    2.63
  -1  19  -5    8.50    2.64
   1 -19   4    0.14    2.47
  -1  19  -4    1.52    2.30
   1 -19   3    0.90    2.54
  -1  19  -3    3.67    2.44
   1 -19   2   -1.28    2.34
  -1  19  -2   -0.73    2.12
  -1  19  -1    1.54    2.26
  -1  19   0    5.56    2.56
  -1  19   1    4.48    2.47
  -1  19   2    0.13    2.12
  -1  19   3    0.35    2.28
  -1  19   4    1.98    2.78
  -1  19   5    4.91    2.55
  -1  19   6   -1.22    2.22
   1 -20   4    1.56    2.72
  -1  20  -4    6.77    2.62
   1 -20   3    3.11    2.69
  -1  20  -3    1.67    2.28
  -1  20  -2   -3.18    2.10
  -1  20  -1    2.02    2.37
  -1  20   0    3.68    2.48
  -1  20   1    1.03    2.22
  -1  20   2    0.26    2.32
  -1  20   3   -1.41    2.17
  -1  20   4    4.93    2.72
   2  19   2   -0.31    2.32
   2  19   1   -0.45    2.27
   2  19   0   -0.77    2.18
   2  19  -1    2.31    2.87
   2  19  -2    1.45    2.47
   2  18   5   -0.14    2.66
   2  18   4    0.96    2.31
   2  18   3    0.83    2.19
   2  18   2    1.01    2.27
   2  18   1   -1.06    2.10
   2  18   0   -5.26    2.43
   2  18  -1    2.22    2.71
   2  18  -2    1.03    2.38
   2  18  -3    2.75    2.70
  -2 -18   3   -0.20    2.86
   2  18  -4    0.33    2.62
  -2 -18   4   -0.94    2.48
   2  18  -5   -0.99    2.12
  -2 -18   5    2.17    2.73
   2  17   7    0.33    2.81
   2  17   7   -2.75    1.82
   2  17   6    0.77    2.42
   2  17   5    3.13    2.43
   2  17   4   -0.73    2.22
   2  17   3    0.72    2.65
   2  17   2    2.88    2.28
   2  17   1   -1.48    1.96
   2  17   0    1.78    2.29
   2  17  -1    2.32    2.31
   2  17  -2    7.26    2.54
   2  17  -3   -1.14    2.12
  -2 -17   3    1.04    2.43
   2  17  -4   -0.39    2.44
  -2 -17   4    3.95    2.78
   2  17  -5   -0.68    2.07
  -2 -17   5    3.55    2.87
   2  17  -6   -0.88    1.98
  -2 -17   6    0.37    2.60
   2  17  -7   -2.72    2.25
  -2 -17   7    0.30    2.69
   2  16   8    5.10    2.53
   2  16   8    0.83    2.22
   2  16   7   -2.37    2.06
   2  16   7    3.10    2.11
   2  16   6   -0.36    1.69
   2  16   6    0.53    2.24
   2  16   5   -0.34    2.17
   2  16   5   -1.33    1.94
   2  16   4    6.67    2.83
   2  16   3    4.97    2.41
   2  16   2    1.06    2.10
   2  16   1   -1.35    1.98
   2  16   0    2.97    2.16
   2  16  -1   -0.36    2.02
   2  16  -2   -2.25    1.84
  -2 -16   2   -0.18    2.26
   2  16  -3    5.60    2.44
  -2 -16   3    8.06    3.25
   2  16  -4    1.58    2.12
  -2 -16   4    4.43    2.70
   2  16  -5    0.70    2.45
  -2 -16   5    0.29    2.39
   2  16  -6    0.82    2.39
  -2 -16   6    0.73    2.98
   2  16  -7    1.77    2.24
  -2 -16   7    4.15    3.40
   2  16  -8   -0.01    1.87
  -2 -16   8    0.11    2.81
   2  15  10    2.12    2.56
   2  15   9   -0.13    2.19
   2  15   9    2.28    2.46
   2  15   8    0.26    2.19
   2  15   8    0.54    2.47
   2  15   7    2.57    2.45
   2  15   7   -0.70    1.93
   2  15   6    6.67    2.55
   2  15   5    0.65    1.46
   2  15   5    0.00    2.10
   2  15   4    4.80    2.70
   2  15   4    5.29    2.06
   2  15   3    2.96    1.77
   2  15   3    3.72    2.13
   2  15   2    3.54    2.63
   2  15   1    0.32    1.91
   2  15   0    0.51    1.91
   2  15  -1   -0.06    1.99
   2  15  -2    1.77    2.45
  -2 -15   2    3.24    2.42
   2  15  -3    2.75    2.17
  -2 -15   3    2.78    2.46
   2  15  -4    4.54    2.19
  -2 -15   4    5.87    2.74
   2  15  -5   -1.65    1.82
  -2 -15   5    2.50    2.50
   2  15  -6    6.60    2.72
  -2 -15   6    4.46    2.74
   2  15  -7    2.32    2.19
  -2 -15   7   -0.04    2.53
   2  15  -8    0.47    1.74
  -2 -15   8    1.01    2.70
   2  15  -9    2.59    2.29
  -2 -15   9    0.03    2.62
   2  15 -10    2.66    2.33
  -2 -15  10   -5.93    2.43
   2  14  11   -4.43    2.08
   2  14  10    4.13    2.96
   2  14  10    7.18    2.70
   2  14   9    0.27    2.20
   2  14   9    0.38    2.22
   2  14   8    3.04    2.25
   2  14   8    5.54    2.56
   2  14   7   -0.68    2.20
   2  14   7    3.32    2.59
   2  14   6    3.41    2.19
   2  14   6    4.53    2.32
   2  14   5    0.14    0.87
   2  14   5    1.46    2.13
   2  14   4    2.40    2.10
   2  14   4    0.49    1.73
   2  14   3    2.68    1.68
   2  14   3    0.03    1.90
   2  14   2    0.52    1.91
   2  14   2    0.44    1.41
   2  14   1    0.80    1.95
   2  14   0   14.30    2.73
   2  14  -1    1.89    2.04
   2  14  -2    1.45    2.01
  -2 -14   2   -0.28    2.23
   2  14  -3    0.07    1.90
  -2 -14   3   -1.14    2.26
   2  14  -4    1.73    1.94
  -2 -14   4    0.18    2.16
   2  14  -5   -1.90    1.77
  -2 -14   5   -0.68    2.21
   2  14  -6    8.25    2.31
  -2 -14   6    3.47    2.55
   2  14  -7    4.94    2.20
  -2 -14   7    3.76    3.13
   2  14  -8    8.15    2.32
  -2 -14   8    8.76    3.01
   2  14  -9   -0.69    1.81
  -2 -14   9   -1.39    2.42
   2  14 -10   -0.51    1.67
  -2 -14  10   -5.44    2.30
   2  14 -11   -0.28    2.05
  -2 -14  11    1.11    3.26
   2  13  11   -2.78    2.07
   2  13  11    3.10    2.35
   2  13  10   -1.72    2.07
   2  13  10    2.79    2.38
   2  13   9    2.35    2.20
   2  13   9    3.11    2.31
   2  13   8   -0.85    1.88
   2  13   8   -1.67    1.98
   2  13   7    8.70    2.40
   2  13   7    8.40    2.43
   2  13   6   12.94    2.47
   2  13   6    7.37    2.48
   2  13   5   -0.65    1.93
   2  13   5    1.30    1.67
   2  13   4    7.45    2.05
   2  13   4    6.91    2.34
   2  13   3    4.08    2.17
   2  13   3    0.87    1.56
   2  13   2   11.64    2.57
   2  13   2   10.58    2.03
   2  13   1   13.86    1.99
   2  13   1   15.52    2.77
   2  13   0    1.54    2.07
   2  13  -1   12.45    2.58
  -2 -13   1   10.14    2.87
   2  13  -2    8.81    2.46
  -2 -13   2    9.12    2.84
   2  13  -3    2.27    2.02
  -2 -13   3   -1.28    2.31
   2  13  -4    7.89    2.31
  -2 -13   4    8.48    2.63
   2  13  -5    0.97    1.88
  -2 -13   5   -1.55    2.56
   2  13  -6   12.10    2.52
  -2 -13   6    9.09    2.78
   2  13  -7   10.48    2.45
  -2 -13   7    9.60    2.80
   2  13  -8    1.15    1.72
  -2 -13   8    0.56    2.43
   2  13  -9    1.78    2.15
  -2 -13   9    0.54    2.32
   2  13 -10    5.13    2.07
  -2 -13  10    0.67    2.53
   2  13 -11   -1.25    1.94
  -2 -13  11    1.49    2.55
   2  12  12    2.22    2.30
   2  12  12    1.76    2.53
   2  12  11   -1.65    2.39
   2  12  11    0.73    2.31
   2  12  10   -0.79    2.45
   2  12  10    2.58    2.31
   2  12   9    3.72    2.22
   2  12   9   -0.52    2.40
   2  12   8    2.28    1.99
   2  12   8   -1.76    1.83
   2  12   7   17.98    3.15
   2  12   7   18.09    2.79
   2  12   6   -2.69    1.81
   2  12   6    0.15    2.12
   2  12   5    1.90    2.07
   2  12   5    1.74    2.01
   2  12   4    3.21    2.09
   2  12   4    1.89    0.79
   2  12   3    1.33    2.04
   2  12   3    0.21    1.58
   2  12   2    1.87    1.40
   2  12   2   -1.00    1.84
   2  12   1   16.31    2.60
   2  12   1   17.56    2.00
   2  12   0   -1.64    1.73
   2  12   0    0.63    1.20
   2  12  -1   23.88    3.00
  -2 -12   1   16.62    3.04
   2  12  -2   -2.28    1.78
  -2 -12   2   -0.81    2.13
   2  12  -3    4.99    2.19
  -2 -12   3    0.88    2.16
   2  12  -4   -0.54    1.81
  -2 -12   4    4.43    2.45
   2  12  -5    6.32    2.15
  -2 -12   5   -1.32    2.17
   2  12  -6    2.51    1.92
  -2 -12   6    1.40    2.27
  -2 -12   7   19.54    3.28
   2  12  -8    0.81    1.74
  -2 -12   8    0.36    2.23
   2  12  -9    0.67    1.63
  -2 -12   9    1.73    2.30
   2  12 -10    3.85    2.15
  -2 -12  10    2.06    2.34
   2  12 -11    0.28    1.96
  -2 -12  11    0.89    2.40
   2  12 -12    4.15    1.97
  -2 -12  12    3.30    2.56
   2  11  13    1.60    2.58
   2  11  12    6.27    2.74
   2  11  12    2.99    2.67
   2  11  11    0.22    2.24
   2  11  11    2.15    2.16
   2  11  10   12.06    2.91
   2  11  10   15.82    2.83
   2  11   9   -0.62    1.93
   2  11   9    0.46    1.99
   2  11   8   10.86    2.51
   2  11   8   10.60    2.50
   2  11   7    1.05    1.98
   2  11   7    3.33    1.97
   2  11   6   -0.60    2.14
   2  11   6    0.47    1.97
   2  11   5   -0.12    1.92
   2  11   5    1.28    1.97
   2  11   4    3.95    1.46
   2  11   4    3.64    2.02
   2  11   3    1.54    1.56
   2  11   3    2.68    1.97
   2  11   2   32.02    2.63
   2  11   2   35.90    3.36
   2  11   1    5.02    1.38
   2  11   1    3.64    1.80
   2  11   0   63.25    3.54
   2  11   0   75.91    4.51
   2  11  -1    3.89    1.00
   2  11  -1    3.25    1.91
  -2 -11   1    4.36    2.27
   2  11  -2   33.81    3.40
  -2 -11   2   42.11    4.07
   2  11  -3    1.86    1.80
  -2 -11   3    3.30    2.16
   2  11  -4    3.20    1.83
  -2 -11   4    2.56    2.25
   2  11  -5    1.93    1.79
  -2 -11   5    1.67    2.24
   2  11  -6    1.75    1.89
  -2 -11   6    3.87    2.31
   2  11  -7    2.19    1.77
  -2 -11   7    0.59    2.55
   2  11  -8   11.99    2.39
  -2 -11   8    9.45    2.57
   2  11  -9   -0.24    1.50
  -2 -11   9    3.95    2.59
   2  11 -10   12.64    2.37
  -2 -11  10   12.43    3.17
   2  11 -11    2.29    1.96
  -2 -11  11    1.89    2.73
   2  11 -12    4.26    2.10
  -2 -11  12    4.52    2.56
   2  11 -13    1.11    1.89
  -2 -11  13    4.04    2.57
   2  10  13    6.98    2.77
   2  10  12   -2.15    2.09
   2  10  12   -1.33    2.29
   2  10  11    6.53    2.62
   2  10  11    5.49    2.23
   2  10  10    7.55    2.25
   2  10  10    5.79    2.44
   2  10   9    0.65    1.87
   2  10   9    2.14    2.11
   2  10   8    2.71    2.35
   2  10   8    1.01    2.00
   2  10   7    1.97    1.95
   2  10   7    2.42    1.97
   2  10   6    0.90    1.71
   2  10   6   -1.10    1.76
   2  10   5   15.63    2.57
   2  10   5   16.16    2.55
   2  10   4    9.03    2.17
   2  10   4   10.37    1.89
   2  10   3   38.01    3.32
   2  10   3   34.50    2.81
   2  10   2    3.54    1.39
   2  10   2    1.86    1.74
   2  10   1    0.70    1.57
   2  10   1    0.36    0.99
   2  10   0    0.85    1.50
   2  10   0    0.39    1.00
   2  10  -1    0.72    0.80
   2  10  -1    3.38    1.67
  -2 -10   1    1.84    1.91
   2  10  -2    2.20    1.68
   2  10  -2    3.67    0.70
  -2 -10   2    0.94    1.94
   2  10  -3   32.64    3.18
  -2 -10   3   37.77    3.73
   2  10  -4   12.10    2.21
  -2 -10   4    9.59    2.42
   2  10  -5   14.10    2.55
  -2 -10   5   14.19    2.68
   2  10  -6    0.11    1.67
  -2 -10   6   -0.76    1.99
   2  10  -7    2.09    1.90
  -2 -10   7    2.61    2.12
   2  10  -8    0.02    1.54
  -2 -10   8    3.54    2.52
   2  10  -9    4.63    1.96
  -2 -10   9    2.55    2.13
   2  10 -10    5.86    2.06
  -2 -10  10    8.91    2.54
   2  10 -11    8.10    2.22
  -2 -10  11    5.30    2.39
   2  10 -12   -0.36    1.75
  -2 -10  12   -0.71    2.51
   2  10 -13    2.42    1.87
  -2 -10  13    0.29    2.32
   2   9  14    1.03    2.43
   2   9  13    1.13    2.36
   2   9  12    3.23    2.35
   2   9  12    6.14    2.57
   2   9  11   12.59    2.89
   2   9  11   10.43    2.63
   2   9  10    3.96    2.27
   2   9  10    3.63    1.97
   2   9   9   11.56    2.61
   2   9   9    9.87    2.25
   2   9   8    7.13    2.37
   2   9   8    6.63    2.46
   2   9   7    0.89    1.84
   2   9   7    7.32    2.13
   2   9   6   45.13    3.60
   2   9   6   52.91    3.77
   2   9   5   10.79    2.11
   2   9   5    8.06    1.88
   2   9   4   22.10    2.58
   2   9   4   24.81    2.44
   2   9   3   66.54    4.13
   2   9   2   21.22    2.42
   2   9   2   21.83    2.08
   2   9   1   13.42    2.08
   2   9   1   13.20    1.51
   2   9   0   10.71    1.91
   2   9   0   10.53    1.26
  -2  -9   0   12.11    2.24
   2   9  -1   16.80    1.31
   2   9  -1   12.63    2.05
  -2  -9   1   15.44    2.48
   2   9  -2   21.83    2.39
   2   9  -2   17.18    1.12
  -2  -9   2   16.68    2.51
   2   9  -3   76.19    4.51
  -2  -9   3   78.01    5.08
   2   9  -4   19.89    2.45
  -2  -9   4   23.17    2.83
   2   9  -5    8.54    1.91
  -2  -9   5   10.69    2.32
   2   9  -6   51.87    3.67
  -2  -9   6   45.20    3.80
   2   9  -7    7.48    1.88
  -2  -9   7    6.37    2.17
   2   9  -8    5.62    1.83
  -2  -9   8    8.08    2.30
   2   9  -9    8.76    2.28
  -2  -9   9   10.56    2.44
   2   9 -10   -0.58    1.33
  -2  -9  10    0.89    2.00
   2   9 -11   12.49    2.43
  -2  -9  11   12.75    2.66
   2   9 -12    0.39    1.69
  -2  -9  12    3.86    2.27
   2   9 -13    0.58    0.91
  -2  -9  13   -0.56    2.09
  -2  -9  14    0.58    2.16
   2   8  14    3.28    2.54
   2   8  13   -3.17    2.13
   2   8  12   -3.40    1.90
   2   8  12   -3.62    1.94
   2   8  11    5.86    2.45
   2   8  11    6.01    2.23
   2   8  10   11.13    2.74
   2   8  10   17.54    2.75
   2   8   9    4.88    2.28
   2   8   9    5.62    2.33
   2   8   8    1.09    1.70
   2   8   8   -0.72    1.87
   2   8   7   15.91    2.52
   2   8   7   11.64    2.33
   2   8   6   18.36    2.39
   2   8   6   21.64    2.63
   2   8   5    9.24    2.16
   2   8   5   12.67    1.97
   2   8   4   51.14    3.46
   2   8   4   55.42    3.39
   2   8   3   38.45    2.79
   2   8   3   30.58    2.30
   2   8   2   27.23    2.52
   2   8   2   22.83    1.85
   2   8   1   10.46    1.76
   2   8   1   11.07    1.32
   2   8   0   39.70    2.81
   2   8   0   35.81    2.14
  -2  -8   0   37.77    3.31
   2   8  -1   16.56    2.00
   2   8  -1   12.56    1.11
  -2  -8   1   11.27    2.18
   2   8  -2   28.01    2.51
   2   8  -2   24.00    1.30
  -2  -8   2   25.03    2.65
   2   8  -3   37.73    2.85
  -2  -8   3   37.97    3.15
   2   8  -4   52.32    3.52
  -2  -8   4   58.13    3.83
   2   8  -5   11.19    2.10
  -2  -8   5   11.29    2.02
   2   8  -6   23.28    2.48
  -2  -8   6   18.06    2.69
   2   8  -7   15.56    2.39
  -2  -8   7   10.43    2.53
   2   8  -8    2.46    1.53
  -2  -8   8    1.65    1.88
   2   8  -9    6.68    1.99
  -2  -8   9    5.45    2.14
   2   8 -10   22.24    2.86
  -2  -8  10   20.69    3.18
   2   8 -11    7.40    2.01
  -2  -8  11    7.88    2.22
   2   8 -12    1.91    1.60
  -2  -8  12   -1.67    2.17
   2   8 -13   -0.29    0.77
  -2  -8  13   -2.47    1.78
  -2  -8  14    1.90    2.55
   2   7  15    1.25    2.61
   2   7  14    0.98    2.30
   2   7  13    4.41    2.43
   2   7  12    4.29    2.16
   2   7  12    3.22    2.34
   2   7  11   -1.27    1.99
   2   7  11    3.24    1.97
   2   7  10    2.08    2.13
   2   7  10   -0.51    1.90
   2   7   9    1.08    2.06
   2   7   9    2.57    1.96
   2   7   8   13.23    2.54
   2   7   8   17.15    2.24
   2   7   7   31.96    2.91
   2   7   7   37.63    3.39
   2   7   6   11.65    2.11
   2   7   6   18.35    2.33
   2   7   5    7.17    1.67
   2   7   5    5.51    1.79
   2   7   4  107.81    5.47
   2   7   4  106.43    5.41
   2   7   3   37.63    2.69
   2   7   3   33.88    2.39
   2   7   2    1.60    0.84
   2   7   2   -1.28    1.10
   2   7   1   55.20    2.97
   2   7   1   58.21    3.37
   2   7   0   15.39    1.83
   2   7   0   15.72    1.35
  -2  -7   0   16.97    2.16
   2   7  -1   56.30    2.63
   2   7  -1   56.18    3.33
  -2  -7   1   51.87    3.62
   2   7  -2   -0.16    1.15
   2   7  -2    0.71    0.39
  -2  -7   2    1.34    1.38
   2   7  -3   32.95    2.52
  -2  -7   3   34.17    2.79
   2   7  -4  105.29    5.27
  -2  -7   4  100.62    5.42
   2   7  -5    7.88    1.62
  -2  -7   5    6.93    1.69
   2   7  -6   19.80    2.23
  -2  -7   6   15.86    2.25
   2   7  -7   34.18    2.91
  -2  -7   7   36.27    3.18
  -2  -7   7   32.23    1.76
   2   7  -8   19.45    2.48
  -2  -7   8   19.49    2.78
   2   7  -9    0.61    1.64
  -2  -7   9   -0.96    1.69
   2   7 -10    1.03    1.61
  -2  -7  10    1.99    2.15
   2   7 -11    0.20    1.58
  -2  -7  11    1.28    1.79
   2   7 -12    0.61    0.70
  -2  -7  12    1.80    1.94
   2   7 -13    6.12    1.89
  -2  -7  13    5.98    2.22
  -2  -7  14    0.68    2.31
  -2  -7  15    1.47    2.62
   2   6  15   -0.97    2.39
   2   6  14    1.95    2.40
   2   6  13    3.23    2.31
   2   6  12   -1.52    1.73
   2   6  12   -0.28    1.99
   2   6  11    0.58    2.04
   2   6  11    2.97    1.92
   2   6  10    1.94    1.92
   2   6  10    1.58    1.61
   2   6   9   13.00    2.29
   2   6   9   10.99    2.51
   2   6   8   -2.72    1.54
   2   6   8   -2.60    1.63
   2   6   7   35.10    3.26
   2   6   7   33.22    2.88
   2   6   6   56.20    3.54
   2   6   6   55.68    3.67
   2   6   5    3.14    1.28
   2   6   5    2.34    1.31
   2   6   4   34.83    2.50
   2   6   4   34.50    2.49
   2   6   3    4.49    1.32
   2   6   3    4.34    1.13
   2   6   2   13.72    1.70
   2   6   1   30.29    1.91
   2   6   1   31.88    2.27
   2   6   0   14.98    1.65
   2   6   0   14.03    1.16
  -2  -6   0   13.79    1.90
   2   6  -1   35.25    2.35
   2   6  -1   34.12    1.73
  -2  -6   1   30.86    2.56
   2   6  -2   10.87    0.67
   2   6  -2   12.23    1.57
  -2  -6   2   12.05    1.76
   2   6  -3    4.10    1.23
  -2  -6   3    3.87    1.36
   2   6  -4   31.78    2.37
  -2  -6   4   30.73    2.45
   2   6  -5    4.51    1.31
  -2  -6   5    3.25    1.36
   2   6  -6   51.79    3.32
  -2  -6   6   55.80    2.58
  -2  -6   6   57.61    3.58
   2   6  -7   32.74    2.55
  -2  -6   7   32.56    2.88
  -2  -6   7   32.48    1.94
   2   6  -8    1.41    1.49
  -2  -6   8   -0.94    0.92
  -2  -6   8    1.48    1.82
   2   6  -9   14.59    2.16
  -2  -6   9   10.87    2.16
  -2  -6   9    8.64    1.45
   2   6 -10    1.51    1.55
  -2  -6  10   -1.20    1.60
   2   6 -11   -0.39    1.32
  -2  -6  11   -0.24    1.65
   2   6 -12    0.13    0.67
  -2  -6  12    1.92    2.13
   2   6 -13    4.12    1.89
  -2  -6  13    2.20    1.98
  -2  -6  14    5.17    2.58
  -2  -6  15   -0.12    1.99
   2   5  15    1.75    2.52
   2   5  14    3.41    2.44
   2   5  13    0.98    2.13
   2   5  12    3.85    1.92
   2   5  12    1.11    2.06
   2   5  11    4.57    2.29
   2   5  11    3.67    1.92
   2   5  10   11.41    2.54
   2   5  10    8.03    2.08
   2   5   9   12.06    2.14
   2   5   9   18.21    2.72
   2   5   8   20.96    2.69
   2   5   8   18.32    2.22
   2   5   7    2.36    1.54
   2   5   7    2.06    1.23
   2   5   6   17.50    1.99
   2   5   6   20.77    2.28
   2   5   5   10.15    1.68
   2   5   5   10.41    1.62
   2   5   4    4.48    1.18
   2   5   4    3.85    1.20
   2   5   3   35.01    2.37
   2   5   3   35.35    2.43
   2   5   2   28.34    1.91
   2   5   2   32.53    2.27
   2   5   1   35.90    2.37
   2   5   1   38.45    2.13
   2   5   0  230.38    9.78
   2   5   0  228.99    9.93
  -2  -5   0  238.94   10.54
   2   5  -1   37.49    2.43
   2   5  -1   40.13    1.90
  -2  -5   1   38.95    2.68
   2   5  -2   43.39    1.84
   2   5  -2   45.24    2.61
  -2  -5   2   37.99    2.72
   2   5  -3   31.43    2.26
  -2  -5   3   38.45    2.54
   2   5  -4    4.16    1.34
  -2  -5   4    5.18    0.39
  -2  -5   4    5.06    1.27
   2   5  -5   11.52    1.66
  -2  -5   5   10.45    0.85
  -2  -5   5   12.02    1.63
   2   5  -6   16.10    1.89
  -2  -5   6   17.38    1.95
  -2  -5   6   14.81    1.21
   2   5  -7    1.57    1.15
  -2  -5   7    1.72    0.90
  -2  -5   7    1.18    1.33
   2   5  -8   21.42    2.28
  -2  -5   8   14.90    2.21
  -2  -5   8   20.93    1.78
   2   5  -9   15.25    1.97
  -2  -5   9   14.36    2.23
  -2  -5   9   13.41    1.75
   2   5 -10   15.67    2.21
  -2  -5  10   11.16    1.87
  -2  -5  10   10.91    2.15
   2   5 -11   -0.60    0.49
  -2  -5  11    4.79    2.09
  -2  -5  11    0.70    1.61
   2   5 -12    1.07    1.36
  -2  -5  12    1.97    2.01
   2   5 -13    3.15    1.69
  -2  -5  13    0.43    1.79
   2   5 -14    4.17    1.80
  -2  -5  14    5.47    2.45
  -2  -5  15   -1.44    1.82
   2   4  15   -2.91    2.62
   2   4  14    3.33    2.38
   2   4  13   -0.41    2.01
   2   4  12   -0.49    1.64
   2   4  12    3.62    2.19
   2   4  11   19.34    2.55
   2   4  11   23.37    3.18
   2   4  10   16.87    2.78
   2   4  10   17.36    2.32
   2   4   9   22.51    2.67
   2   4   9   23.82    2.41
   2   4   8    2.94    1.36
   2   4   8    3.69    1.44
   2   4   7    8.03    1.53
   2   4   7    8.62    1.81
   2   4   6  138.31    6.30
   2   4   6  139.43    6.81
   2   4   5   16.66    1.71
   2   4   5   15.67    1.89
   2   4   4   13.37    1.55
   2   4   4   15.61    1.67
   2   4   3  230.23    9.96
   2   4   3  226.68    9.73
   2   4   2  276.35   11.53
   2   4   2  274.09   11.72
   2   4   1    9.00    1.07
   2   4   1   10.02    1.29
   2   4   0    1.59    0.92
   2   4   0   -0.44    0.55
  -2  -4   0    0.74    1.06
   2   4  -1   11.35    1.36
   2   4  -1   10.37    0.82
  -2  -4   1   10.73    1.52
   2   4  -2  233.72   10.42
   2   4  -2  247.95   10.08
  -2  -4   2  259.37   10.94
   2   4  -3  219.58    9.31
  -2  -4   3  214.57    9.65
   2   4  -4   14.33    1.52
  -2  -4   4   15.38    1.58
   2   4  -5   12.68    1.49
  -2  -4   5   15.46    1.67
   2   4  -6  148.50    6.66
  -2  -4   6  139.64    6.89
   2   4  -7    8.31    1.55
  -2  -4   7    8.33    1.71
   2   4  -8    2.09    1.12
  -2  -4   8    2.52    1.41
  -2  -4   8    5.25    1.22
   2   4  -9   21.47    2.17
  -2  -4   9   23.25    2.22
  -2  -4   9   20.56    2.43
   2   4 -10    9.83    1.77
  -2  -4  10   15.82    2.06
  -2  -4  10   15.67    2.30
  -2  -4  11   22.05    2.47
  -2  -4  11   16.53    2.48
   2   4 -12    2.92    1.56
  -2  -4  12   -0.96    1.51
  -2  -4  12    0.07    1.59
   2   4 -13    2.05    1.60
  -2  -4  13    0.72    2.00
   2   4 -14    5.57    1.85
  -2  -4  14    3.28    2.02
  -2  -4  15    0.57    1.99
   2   3  16   -0.02    2.58
   2   3  15   -0.79    2.31
   2   3  14    2.02    2.27
   2   3  13    1.90    2.17
   2   3  12    5.37    1.91
   2   3  12    5.72    2.30
   2   3  11    5.17    2.32
   2   3  11    8.91    1.89
   2   3  10   28.62    2.57
   2   3  10   23.60    3.03
   2   3   9   19.00    2.06
   2   3   9   18.00    2.61
   2   3   8   13.34    1.79
   2   3   8   16.91    2.31
   2   3   7   34.34    2.32
   2   3   7   30.73    2.82
   2   3   6    1.89    1.06
   2   3   6    0.51    1.23
   2   3   5    3.15    0.99
   2   3   5    2.12    1.13
   2   3   4  117.00    5.28
   2   3   4  118.75    5.59
   2   3   3  173.29    7.56
   2   3   3  166.37    7.29
   2   3   2  217.42    9.00
   2   3   2  210.66    9.18
   2   3   1   19.45    1.53
   2   3   0   29.48    1.60
   2   3   0   30.56    1.88
  -2  -3   0   29.31    2.03
   2   3  -1   17.07    1.06
   2   3  -1   18.52    1.52
  -2  -3   1   22.22    1.74
   2   3  -2  205.85    8.76
   2   3  -2  211.47    8.49
  -2  -3   2  202.08    9.08
   2   3  -3  164.30    7.06
  -2  -3   3  159.98    7.28
   2   3  -4  114.14    5.29
  -2  -3   4  117.53    5.46
   2   3  -5    4.26    0.95
  -2  -3   5    4.07    1.04
   2   3  -6    3.09    1.02
  -2  -3   6    0.17    0.95
   2   3  -7   35.07    2.32
  -2  -3   7   33.36    2.46
   2   3  -8   14.03    1.68
  -2  -3   8   14.43    2.04
   2   3  -9   20.66    2.21
  -2  -3   9   15.83    2.19
  -2  -3  10   31.89    2.74
  -2  -3  10   25.30    2.81
   2   3 -11    2.11    1.16
  -2  -3  11    5.67    2.11
  -2  -3  11   12.65    2.12
   2   3 -12    5.66    1.71
  -2  -3  12    6.69    1.96
  -2  -3  12    4.65    1.92
   2   3 -13    1.23    1.49
  -2  -3  13    4.48    2.15
  -2  -3  13    3.13    1.68
   2   3 -14   -0.56    1.48
  -2  -3  14    2.47    2.21
  -2  -3  14    0.01    1.97
  -2  -3  15   -1.72    1.76
  -2  -3  16    0.40    1.87
   2   2  16    3.37    3.15
   2   2  15   -1.07    2.12
   2   2  14    2.40    2.27
   2   2  13    1.70    2.16
   2   2  12    7.25    1.90
   2   2  12    5.51    2.35
   2   2  11    1.27    1.46
   2   2  11    2.02    2.04
   2   2  10  155.15    7.25
   2   2  10  155.71    8.06
   2   2   9   14.63    2.32
   2   2   9   12.42    1.76
   2   2   8   31.99    2.98
   2   2   8   32.35    2.33
   2   2   7    0.13    1.22
   2   2   7   -0.48    0.88
   2   2   6   -0.48    0.91
   2   2   6    1.23    1.16
   2   2   5   23.81    1.99
   2   2   5   25.55    1.69
   2   2   4    0.86    0.77
   2   2   4    0.34    0.93
   2   2   3   84.04    4.16
   2   2   3   89.30    3.95
   2   2   2  314.86   12.98
   2   2   2  321.19   13.34
   2   2   1   13.42    1.08
   2   2   1   10.73    0.98
   2   2   0   55.26    2.53
   2   2   0   54.29    2.64
   2   2  -1   14.42    0.88
   2   2  -1   13.92    1.18
  -2  -2   1   15.07    1.26
   2   2  -2  303.09   12.78
   2   2  -2  313.92   12.82
  -2  -2   2  320.15   13.33
   2   2  -3   85.06    3.97
  -2  -2   3   87.14    4.11
   2   2  -4   -0.78    0.73
  -2  -2   4    0.87    0.93
   2   2  -5   22.46    1.70
  -2  -2   5   25.72    1.88
   2   2  -6    2.11    0.88
  -2  -2   6    1.80    0.94
   2   2  -7    1.85    0.95
   2   2  -8   30.98    2.35
   2   2  -9    7.31    1.38
   2   2 -10   -0.01    0.35
   2   2 -11   -2.58    1.13
  -2  -2  11   -1.38    1.59
   2   2 -12    6.64    1.78
  -2  -2  12    7.72    2.22
   2   2 -13    0.69    1.46
  -2  -2  13    0.78    1.58
   2   2 -14    0.12    1.59
  -2  -2  14    1.12    2.09
  -2  -2  15   -0.17    2.08
  -2  -2  16    3.83    2.14
   2   1  16   -0.83    2.76
   2   1  15   -1.51    2.23
   2   1  14    1.51    2.25
   2   1  13   21.30    3.50
   2   1  12    2.57    2.12
   2   1  12    0.64    1.36
   2   1  11   13.79    2.59
   2   1  11   14.03    1.99
   2   1  10   26.47    3.09
   2   1  10   30.06    2.31
   2   1   9    1.35    1.60
   2   1   9   -0.38    1.13
   2   1   8   11.63    1.97
   2   1   8   13.52    1.45
   2   1   7   97.21    4.61
   2   1   7  104.97    5.27
   2   1   6    0.71    0.82
   2   1   6    0.52    0.81
   2   1   5    6.11    1.26
   2   1   5    5.13    0.83
   2   1   4   34.80    2.12
   2   1   4   35.35    1.91
   2   1   3   55.33    2.86
   2   1   3   54.58    2.56
   2   1   2  422.23   16.35
   2   1   2  389.86   16.85
   2   1   1   73.76    3.35
   2   1   1   76.50    3.26
   2   1   0  108.80    4.57
   2   1  -1   90.07    3.73
   2   1  -1   87.43    3.65
  -2  -1   1   78.01    3.81
   2   1  -2  429.01   17.73
   2   1  -2  453.84   17.53
  -2  -1   2  417.79   18.18
   2   1  -3   43.31    2.52
  -2  -1   3   57.85    2.62
   2   1  -4   34.10    1.99
   2   1  -5    3.82    0.86
   2   1  -6    1.24    0.81
   2   1  -7  101.87    4.92
   2   1  -8   15.34    1.76
   2   1  -9    0.70    0.62
   2   1 -10   -0.22    0.35
   2   1 -11   13.33    2.01
   2   1 -12   -0.81    1.37
  -2  -1  12    0.45    1.55
   2   1 -13   16.37    2.38
  -2  -1  13   19.08    2.91
   2   1 -14    2.04    1.70
  -2  -1  14   -1.67    1.63
  -2  -1  15   -1.88    2.16
  -2  -1  16   -0.23    2.06
   2   0  16    2.53    2.46
   2   0  15    0.02    2.20
   2   0  14   18.28    3.20
   2   0  13   12.68    2.72
   2   0  12    2.44    2.03
   2   0  11    1.12    1.87
   2   0  11   -0.72    1.34
   2   0  10   13.14    2.27
   2   0  10   13.16    1.75
   2   0   9    3.43    1.61
   2   0   9    5.43    1.29
   2   0   8    2.69    0.93
   2   0   8    3.29    1.42
   2   0   7   91.64    4.31
   2   0   7   97.59    4.92
   2   0   6  335.46   13.66
   2   0   6  331.89   14.39
   2   0   5   26.01    1.93
   2   0   5   26.32    1.51
   2   0   4  329.03   13.56
   2   0   4  344.06   14.23
   2   0   3  110.47    4.68
   2   0   3  116.23    5.09
   2   0   2  647.22   26.34
   2   0   2  633.73   25.52
   2   0   1  223.45    9.06
   2   0   1  227.81    9.40
   2   0   0  120.96    4.55
   2   0   0   99.31    4.63
   2   0  -1  234.30    9.30
  -2   0   1  223.58    9.58
   2   0  -2  627.85   25.20
   2   0  -3  108.49    4.76
   2   0  -4  344.54   14.15
   2   0  -5   26.75    1.75
   2   0  -6  346.47   14.39
   2   0  -7   86.92    4.23
   2   0  -8    2.75    1.14
   2   0  -9    1.08    0.74
   2   0 -10   -0.30    0.42
   2   0 -11    1.40    1.42
   2   0 -12    0.63    1.46
   2   0 -13   13.93    2.11
  -2   0  13   14.89    2.49
  -2   0  14   15.49    3.08
  -2   0  14   25.67    2.97
  -2   0  15    1.14    1.97
  -2   0  16    1.16    2.42
   2  -1  16    0.20    2.66
   2  -1  15    1.30    2.66
   2  -1  14   24.27    3.55
   2  -1  13   -0.14    1.97
   2  -1  12    9.80    2.69
   2  -1  11    1.44    1.91
   2  -1  11    1.34    1.38
   2  -1  10    0.26    1.20
   2  -1  10   -1.43    1.83
   2  -1   9   -0.64    1.31
   2  -1   9    2.52    1.07
   2  -1   8   23.88    2.47
   2  -1   8   30.63    1.93
   2  -1   7   15.23    1.84
   2  -1   7   16.05    1.36
   2  -1   6  354.40   15.31
  -2   1  -6  361.06   14.55
   2  -1   5    7.84    1.22
  -2   1  -5    8.36    0.85
   2  -1   4  230.23    9.38
  -2   1  -4  205.50    8.77
   2  -1   3   78.35    3.39
   2  -1   3   87.85    3.84
   2  -1   2   10.23    0.88
   2  -1   1  118.19    4.71
   2  -1   1  116.12    5.01
   2  -1   0  479.73   18.61
   2  -1   0  453.66   19.10
   2  -1  -1  115.86    4.95
   2  -1  -1  116.91    4.84
   2  -1  -2    9.52    0.75
   2  -1  -2    8.80    0.76
   2  -1  -3   76.80    3.48
   2  -1  -4  197.44    8.30
   2  -1  -5    6.79    0.99
   2  -1  -6  355.54   14.73
   2  -1  -7   14.01    1.60
   2  -1  -8   26.13    1.97
   2  -1  -9    0.28    0.92
   2  -1 -10   -0.23    0.33
   2  -1 -11    0.72    1.27
   2  -1 -12    1.92    1.56
  -2   1  12    2.33    1.73
  -2   1  13    2.67    1.78
  -2   1  13    1.45    1.82
  -2   1  14   27.65    3.40
  -2   1  14   25.73    3.10
  -2   1  15    1.71    2.37
  -2   1  16    1.33    2.19
   2  -2  16    2.51    2.41
   2  -2  15   -0.35    2.19
   2  -2  14   19.56    3.09
   2  -2  13   13.07    2.71
   2  -2  12   -1.39    2.11
   2  -2  11    1.62    1.34
   2  -2  11   -1.68    2.00
   2  -2  10   14.79    2.29
  -2   2 -10   16.80    1.73
   2  -2   9    5.31    1.88
  -2   2  -9    4.45    1.09
   2  -2   8    1.13    1.25
  -2   2  -8    2.82    0.90
   2  -2   7   79.74    4.41
  -2   2  -7   90.11    3.92
   2  -2   6  335.09   14.38
  -2   2  -6  337.12   13.68
   2  -2   5   26.70    1.85
  -2   2  -5   26.68    1.45
   2  -2   4  343.52   14.54
  -2   2  -4  348.60   13.92
   2  -2   3  108.08    5.09
  -2   2  -3  121.16    4.72
   2  -2   2  592.39   25.05
  -2   2  -2  627.32   24.28
   2  -2   1  230.51    9.44
  -2   2  -1  223.93    9.10
   2  -2   0   98.23    4.60
   2  -2   0  119.46    4.62
   2  -2  -1  212.91    9.22
   2  -2  -1  230.32    9.02
   2  -2  -2  647.68   25.99
   2  -2  -3  117.58    5.10
   2  -2  -4  339.03   13.93
   2  -2  -5   27.94    1.81
   2  -2  -6  322.41   13.45
   2  -2  -7   91.32    4.50
   2  -2  -8    2.27    1.20
   2  -2  -9    5.13    1.43
  -2   2  10   14.60    2.14
  -2   2  11    0.46    1.67
  -2   2  12   -0.05    1.70
  -2   2  13   11.13    2.31
  -2   2  14   22.39    2.95
  -2   2  14   22.66    3.29
  -2   2  15   -0.23    2.02
  -2   2  16   -1.07    2.43
   2  -3  16   -0.55    2.63
   2  -3  15    2.24    2.11
   2  -3  14    1.67    2.00
   2  -3  13   12.44    2.54
   2  -3  12    2.91    1.87
   2  -3  11   13.97    2.43
  -2   3 -11   15.43    1.83
   2  -3  10   26.82    2.81
  -2   3 -10   27.29    2.11
   2  -3   9    2.99    1.49
  -2   3  -9    2.33    0.97
   2  -3   8   14.16    1.97
  -2   3  -8   15.12    1.39
   2  -3   7   93.03    4.91
  -2   3  -7  101.05    4.41
   2  -3   6    0.43    1.01
  -2   3  -6    1.28    0.66
   2  -3   5    3.32    0.97
  -2   3  -5    4.77    0.69
   2  -3   4   29.53    1.85
  -2   3  -4   34.30    1.67
   2  -3   3   41.98    2.40
  -2   3  -3   55.49    2.26
   2  -3   2  463.68   18.19
   2  -3   2  455.04   18.67
  -2   3  -2  408.45   17.68
   2  -3   1   87.79    3.91
   2  -3   1   85.67    3.77
   2  -3   0  109.64    4.68
  -2   3   0  109.61    4.60
   2  -3  -1   76.37    3.64
  -2   3   1   89.44    3.63
  -2   3   2  464.81   18.79
  -2   3   3   44.45    2.38
  -2   3   4   35.45    2.10
  -2   3   5    4.32    0.99
  -2   3   6    0.42    0.86
  -2   3   7  101.90    5.00
  -2   3   8   12.56    1.67
  -2   3   9    2.81    1.35
  -2   3  10   30.43    2.91
  -2   3  11    9.56    2.19
  -2   3  12   -0.02    1.49
  -2   3  13   19.68    2.78
  -2   3  14    1.41    2.26
  -2   3  14   -0.19    1.87
  -2   3  15    1.03    2.09
  -2   3  16    1.52    2.69
   2  -4  16   -0.04    2.17
   2  -4  15    1.08    2.42
   2  -4  14    0.47    1.86
   2  -4  13   -2.37    1.55
   2  -4  12    8.55    2.08
   2  -4  11   -1.64    1.51
  -2   4 -11   -0.59    1.11
   2  -4  10  151.83    7.35
  -2   4 -10  145.55    6.70
   2  -4   9   12.20    1.83
  -2   4  -9   13.04    1.48
   2  -4   8   29.18    2.26
  -2   4  -8   29.41    1.93
   2  -4   7    0.16    1.03
  -2   4  -7    0.44    0.73
   2  -4   6    0.32    0.93
  -2   4  -6    1.25    0.70
   2  -4   5   24.79    1.73
  -2   4  -5   27.05    1.57
   2  -4   4    0.29    0.73
   2  -4   4   -1.44    0.82
  -2   4  -4   -0.55    0.62
   2  -4   3   88.75    4.31
   2  -4   3   90.08    4.01
  -2   4  -3   88.58    3.92
   2  -4   2  312.58   13.77
   2  -4   2  330.95   13.32
  -2   4  -2  320.82   13.08
   2  -4   1   11.87    0.89
   2  -4   1   13.50    1.16
  -2   4  -1    9.48    0.93
   2  -4   0   50.49    2.51
   2  -4   0   53.40    2.76
  -2   4   0   55.15    2.59
   2  -4  -1   17.08    1.49
   2  -4  -1   14.75    1.12
  -2   4   1   16.33    1.23
  -2   4   2  319.26   13.11
  -2   4   3   83.26    3.90
  -2   4   4   -0.10    0.82
  -2   4   5   24.76    1.83
  -2   4   6    1.21    1.16
  -2   4   7   -1.67    0.91
  -2   4   8   31.49    2.45
  -2   4   9   14.03    1.96
  -2   4  10  164.29    7.95
  -2   4  11   -3.92    1.64
  -2   4  12    6.30    2.14
  -2   4  13    2.31    1.94
  -2   4  14    2.10    2.11
  -2   4  14   -1.93    1.82
  -2   4  15    0.20    2.17
  -2   4  16   -1.04    2.10
   2  -5  16    2.20    2.27
   2  -5  15    3.50    2.49
   2  -5  15    0.98    2.09
   2  -5  14    0.45    2.14
   2  -5  13    1.65    2.05
   2  -5  12    3.92    2.00
   2  -5  11   12.09    2.29
  -2   5 -11    7.23    1.50
   2  -5  10   25.08    2.71
  -2   5 -10   28.56    2.24
   2  -5   9   16.76    2.12
  -2   5  -9   17.31    1.72
   2  -5   8   14.55    1.82
  -2   5  -8   17.05    1.60
   2  -5   7   33.75    2.29
   2  -5   7   34.14    2.66
  -2   5  -7   34.68    2.14
   2  -5   6    3.14    1.23
   2  -5   6    4.15    1.02
  -2   5  -6    2.54    0.79
   2  -5   5    5.33    0.92
   2  -5   5    3.46    1.12
  -2   5  -5    2.31    0.73
   2  -5   4  115.25    5.70
   2  -5   4  126.53    5.29
  -2   5  -4  115.46    5.25
   2  -5   3  164.30    7.30
   2  -5   3  171.72    7.78
  -2   5  -3  180.03    7.32
   2  -5   2  216.09    8.64
   2  -5   2  194.05    9.06
   2  -5   1   16.65    1.20
   2  -5   1   18.10    1.62
  -2   5  -1   21.33    1.64
   2  -5   0   30.27    1.72
   2  -5   0   30.68    2.17
  -2   5   0   33.66    1.97
   2  -5  -1   21.67    1.85
  -2   5   1   18.70    1.59
  -2   5   2  192.01    8.19
  -2   5   3  171.06    7.44
  -2   5   4  112.43    5.18
  -2   5   5    4.92    1.10
  -2   5   6    2.17    1.24
  -2   5   7   31.56    2.33
  -2   5   8   17.29    1.96
  -2   5   9   18.68    2.20
  -2   5  10   26.18    2.65
  -2   5  11    5.96    2.13
  -2   5  12    2.26    1.96
  -2   5  13   -0.18    1.89
  -2   5  14    0.96    2.07
  -2   5  15    2.55    2.61
  -2   5  16    1.68    2.29
   2  -6  15   -0.14    2.38
   2  -6  14    6.07    2.25
   2  -6  13    2.31    1.94
   2  -6  13    0.10    2.23
   2  -6  12   -1.85    1.70
   2  -6  12   -1.84    1.63
   2  -6  11   18.71    2.73
   2  -6  11   17.79    2.48
  -2   6 -11   20.25    2.13
   2  -6  10   16.13    2.72
   2  -6  10   11.57    2.04
  -2   6 -10   14.97    1.82
   2  -6   9   15.76    2.42
   2  -6   9   20.82    2.11
  -2   6  -9   21.12    1.91
   2  -6   8   -1.39    1.36
   2  -6   8    2.47    1.22
  -2   6  -8    1.40    1.06
   2  -6   7    7.97    1.38
   2  -6   7    8.60    1.67
  -2   6  -7    9.74    1.28
   2  -6   6  135.27    6.88
   2  -6   6  145.63    6.34
  -2   6  -6  140.79    6.27
   2  -6   5   11.95    1.25
   2  -6   5   11.30    1.66
  -2   6  -5   19.24    1.57
   2  -6   4   13.53    1.16
   2  -6   4   14.03    1.62
  -2   6  -4   13.25    1.29
   2  -6   3  209.63    8.80
   2  -6   3  208.36    9.37
   2  -6   2  236.99   10.86
   2  -6   2  224.69   10.24
  -2   6  -2  281.83   10.43
   2  -6   1   10.94    0.99
   2  -6   1   11.72    1.53
  -2   6  -1   13.03    1.40
   2  -6   0   -0.60    1.08
   2  -6   0   -0.24    0.62
  -2   6   0    0.70    0.93
   2  -6  -1   10.58    1.57
  -2   6   1   11.89    1.43
  -2   6   2  244.94   10.38
  -2   6   3  216.75    9.31
  -2   6   4   13.80    1.57
  -2   6   5   13.75    1.65
  -2   6   6  142.36    6.63
  -2   6   7    6.83    1.67
  -2   6   8    3.15    1.42
  -2   6   9   21.15    2.52
  -2   6  10   14.03    2.42
  -2   6  11   19.28    2.79
  -2   6  12    1.01    1.66
  -2   6  13    1.24    2.06
  -2   6  14    3.32    2.28
  -2   6  15   -1.56    1.93
   2  -7  15   -1.27    1.91
   2  -7  14    1.90    2.01
   2  -7  13   -0.61    1.78
   2  -7  12    0.35    1.59
   2  -7  12    1.34    1.89
   2  -7  11    3.18    1.73
   2  -7  11    2.53    1.85
  -2   7 -11    3.41    1.33
   2  -7  10   10.67    2.32
   2  -7  10    7.60    1.97
  -2   7 -10   12.56    1.70
   2  -7   9   13.93    1.94
   2  -7   9   12.84    2.36
  -2   7  -9   16.59    1.88
   2  -7   8   19.16    1.93
   2  -7   8   20.48    2.50
  -2   7  -8   18.80    1.87
   2  -7   7    0.92    1.41
   2  -7   7    0.51    1.04
  -2   7  -7    3.01    1.05
   2  -7   6   15.76    2.03
   2  -7   6   15.48    1.45
  -2   7  -6   19.60    1.75
   2  -7   5   11.41    1.54
   2  -7   5   10.40    1.12
  -2   7  -5   10.23    1.43
   2  -7   4    3.99    0.80
   2  -7   4    3.05    1.19
   2  -7   3   31.28    1.72
   2  -7   3   36.13    2.43
  -2   7  -3   34.62    2.25
   2  -7   2   41.79    2.68
   2  -7   2   44.70    2.07
  -2   7  -2   35.13    2.54
   2  -7   1   39.15    2.04
   2  -7   1   43.19    2.77
  -2   7  -1   37.25    2.46
   2  -7   0  224.43   10.41
  -2   7   0  234.24    9.87
   2  -7  -1   36.76    2.87
  -2   7   1   38.38    2.44
  -2   7   2   41.14    2.57
  -2   7   3   33.90    2.35
  -2   7   4    4.30    1.30
  -2   7   5   10.92    1.61
  -2   7   6   14.86    1.87
  -2   7   7    2.65    1.40
  -2   7   8   18.59    2.30
  -2   7   9   14.09    2.18
  -2   7  10   15.96    2.62
  -2   7  11    2.40    1.79
  -2   7  12    3.53    1.83
  -2   7  13    0.50    2.14
  -2   7  14    4.88    2.42
  -2   7  15    2.93    2.38
   2  -8  15    1.54    2.13
   2  -8  14    3.47    2.25
   2  -8  13    3.72    2.11
   2  -8  12    1.02    2.18
   2  -8  11    0.79    1.79
  -2   8 -11    1.45    1.20
   2  -8  10   -1.75    1.42
   2  -8  10    0.99    1.86
  -2   8 -10    1.20    1.35
   2  -8   9   13.14    1.83
   2  -8   9    7.26    2.14
  -2   8  -9   11.14    1.72
   2  -8   8   -1.27    1.88
   2  -8   8   -0.42    1.13
  -2   8  -8   -0.77    1.14
   2  -8   7   36.09    2.22
   2  -8   7   37.39    3.06
  -2   8  -7   30.68    2.44
   2  -8   6   58.93    3.76
   2  -8   6   56.55    2.96
  -2   8  -6   59.02    3.27
   2  -8   5    2.83    1.39
   2  -8   5    3.43    0.84
   2  -8   4   35.10    2.64
   2  -8   4   31.62    1.79
  -2   8  -4   32.82    2.41
   2  -8   3    3.13    1.34
   2  -8   3    3.53    0.69
  -2   8  -3    4.39    1.17
   2  -8   2   11.91    0.97
   2  -8   2   11.85    1.71
  -2   8  -2   12.77    1.71
   2  -8   1   35.05    1.89
   2  -8   1   35.71    2.66
  -2   8  -1   28.44    2.27
   2  -8   0   10.70    1.77
  -2   8   0   12.51    1.57
   2  -8  -1   30.39    2.77
  -2   8   1   32.15    2.17
  -2   8   2   10.81    1.53
  -2   8   3    5.74    1.42
  -2   8   4   33.56    2.54
  -2   8   5    3.18    1.42
  -2   8   6   52.98    3.57
  -2   8   7   36.54    2.90
  -2   8   8   -1.22    1.49
  -2   8   9    8.94    2.30
  -2   8  10   -0.85    1.65
  -2   8  11   -0.82    1.66
  -2   8  12    0.16    2.04
  -2   8  13    5.88    2.45
  -2   8  14   -0.12    2.18
  -2   8  15    1.77    2.35
   2  -9  15    2.53    2.39
   2  -9  14    0.01    2.05
   2  -9  13    4.40    2.26
   2  -9  12    1.43    2.02
   2  -9  11    2.04    2.01
  -2   9 -11    2.63    1.31
   2  -9  10   -2.15    1.81
  -2   9 -10    1.73    1.40
   2  -9   9    2.33    1.99
  -2   9  -9    0.20    1.23
   2  -9   8   18.03    1.75
   2  -9   8   18.03    2.63
  -2   9  -8   17.23    2.12
   2  -9   7   33.92    2.25
   2  -9   7   35.17    3.27
  -2   9  -7   37.47    2.78
   2  -9   6   19.01    2.44
   2  -9   6   19.93    1.55
   2  -9   5   10.20    1.02
   2  -9   5    8.57    1.61
  -2   9  -5    8.64    1.48
   2  -9   4  101.55    4.44
   2  -9   4  101.79    5.43
  -2   9  -4  100.06    5.09
   2  -9   3   39.23    1.97
   2  -9   3   35.86    2.86
  -2   9  -3   36.76    2.59
   2  -9   2    0.65    0.64
   2  -9   2    1.04    1.40
  -2   9  -2    1.38    1.22
   2  -9   1   54.34    3.72
  -2   9  -1   60.54    3.46
   2  -9   0   21.84    2.46
  -2   9   0   13.91    1.86
   2  -9  -1   58.02    3.92
  -2   9   1   61.79    3.57
  -2   9   2    0.80    1.28
  -2   9   3   36.89    2.74
  -2   9   4   93.92    4.95
  -2   9   5    9.06    1.82
  -2   9   6   17.37    2.28
  -2   9   7   33.11    3.04
  -2   9   8   19.50    2.63
  -2   9   9    1.22    1.76
  -2   9  10    1.08    1.79
  -2   9  11    1.13    2.12
  -2   9  12    6.65    2.24
  -2   9  13    7.66    2.70
  -2   9  14    5.31    2.59
  -2   9  15    3.58    2.53
   2 -10  14    1.38    2.26
   2 -10  13    0.66    2.08
   2 -10  12    0.72    2.06
   2 -10  11    4.77    2.20
  -2  10 -11    7.81    1.88
   2 -10  10   19.55    2.88
  -2  10 -10   17.57    2.37
   2 -10   9    5.28    2.20
  -2  10  -9    7.02    1.73
   2 -10   8    1.36    1.89
  -2  10  -8    3.40    1.58
   2 -10   7   12.48    2.43
   2 -10   6   19.65    1.42
   2 -10   6   19.14    2.62
  -2  10  -6   20.92    2.41
   2 -10   5   11.93    2.15
   2 -10   5   12.51    1.03
  -2  10  -5   10.16    1.75
   2 -10   4   60.20    3.83
   2 -10   4   54.93    2.62
  -2  10  -4   54.40    3.64
   2 -10   3   45.68    3.32
   2 -10   3   41.14    2.16
  -2  10  -3   41.37    2.92
   2 -10   2   29.87    2.90
  -2  10  -2   25.84    2.52
   2 -10   1   11.11    2.10
  -2  10  -1   12.05    1.92
   2 -10   0   43.28    3.47
  -2  10   0   43.51    3.09
   2 -10  -1   10.15    2.10
  -2  10   1   12.28    1.91
  -2  10   2   29.39    2.68
  -2  10   3   36.40    2.86
  -2  10   4   50.73    3.47
  -2  10   5    9.97    2.00
  -2  10   6   17.68    2.45
  -2  10   7   14.65    2.73
  -2  10   8    0.50    1.80
  -2  10   9    6.89    2.16
  -2  10  10   18.24    2.75
  -2  10  11    4.81    2.50
  -2  10  12   -0.28    2.26
  -2  10  13    0.21    2.48
  -2  10  14    6.01    2.77
   2 -11  14    2.06    2.31
   2 -11  13   -1.36    2.09
   2 -11  12    2.77    2.24
   2 -11  11    5.03    2.31
  -2  11 -11    8.56    1.94
   2 -11  10    1.55    1.93
  -2  11 -10    5.29    1.66
   2 -11   9   12.26    2.55
  -2  11  -9    8.42    1.89
   2 -11   8    8.87    2.50
  -2  11  -8    4.41    1.31
   2 -11   7    3.15    2.02
  -2  11  -7    6.98    1.67
   2 -11   6   45.52    3.95
  -2  11  -6   47.27    3.56
   2 -11   5   13.02    2.37
  -2  11  -5   10.15    1.93
   2 -11   4   21.94    2.77
  -2  11  -4   25.45    2.66
   2 -11   3   71.06    4.68
  -2  11  -3   71.84    4.23
   2 -11   2   21.18    2.72
  -2  11  -2   22.35    2.47
   2 -11   1   15.22    2.44
  -2  11  -1   13.18    2.16
   2 -11   0    9.33    2.23
  -2  11   0   10.53    1.93
   2 -11  -1   14.93    2.54
  -2  11   1   13.16    2.06
  -2  11   2   18.54    2.34
  -2  11   3   76.02    4.55
  -2  11   4   17.85    2.45
  -2  11   5    7.85    2.06
  -2  11   6   48.55    3.73
  -2  11   7    5.69    2.48
  -2  11   8    7.78    2.28
  -2  11   9   10.45    2.42
  -2  11  10   -1.40    1.78
  -2  11  11    8.73    2.51
  -2  11  12    2.07    2.23
  -2  11  13    0.27    2.53
  -2  11  14    1.42    2.62
   2 -12  13    1.54    2.28
   2 -12  12    0.69    2.22
   2 -12  11    2.83    2.35
  -2  12 -11    3.53    1.75
   2 -12  10    4.28    2.40
  -2  12 -10    4.25    1.74
   2 -12   9    2.82    2.20
  -2  12  -9    2.06    1.57
   2 -12   8    0.95    2.06
  -2  12  -8    0.92    1.23
   2 -12   7   -0.24    1.99
  -2  12  -7    2.44    1.56
   2 -12   6   -0.97    1.96
  -2  12  -6    0.67    1.78
   2 -12   5   11.67    2.52
  -2  12  -5   13.50    2.23
   2 -12   4   12.39    2.52
  -2  12  -4   10.84    2.40
   2 -12   3   36.99    3.65
  -2  12  -3   31.79    3.23
   2 -12   2    7.45    2.23
  -2  12  -2    3.82    1.76
   2 -12   1    4.84    2.07
  -2  12  -1   -1.15    1.57
   2 -12   0    1.91    2.00
  -2  12   0    0.39    1.65
   2 -12  -1    3.07    2.05
  -2  12   1   -0.73    1.61
  -2  12   2    2.75    1.78
  -2  12   3   35.94    3.35
  -2  12   4   14.32    2.42
  -2  12   5   13.48    2.53
  -2  12   6    0.06    1.88
  -2  12   7    1.87    2.03
  -2  12   8    2.29    2.30
  -2  12   9    5.77    2.55
  -2  12  10    6.51    2.36
  -2  12  11    4.12    2.70
  -2  12  12   -0.94    2.51
  -2  12  13    2.00    2.74
   2 -13  13   -1.13    2.32
   2 -13  12    3.50    2.51
   2 -13  11   -0.18    2.26
  -2  13 -11    0.98    1.59
   2 -13  10    9.01    2.73
  -2  13 -10   15.34    2.45
   2 -13   9    1.19    2.15
  -2  13  -9    0.74    0.48
   2 -13   8    9.46    2.60
  -2  13  -8   17.57    2.46
   2 -13   7    3.98    2.59
  -2  13  -7    1.60    1.58
   2 -13   6   -0.54    2.05
  -2  13  -6   -1.73    1.53
   2 -13   5    2.79    2.22
  -2  13  -5   -2.35    1.50
   2 -13   4    3.37    2.33
  -2  13  -4    0.34    1.79
   2 -13   3    6.05    2.38
  -2  13  -3    2.20    1.81
   2 -13   2   31.66    3.61
  -2  13  -2   30.46    3.21
   2 -13   1    5.90    2.34
  -2  13  -1    1.38    1.85
   2 -13   0   78.98    5.36
  -2  13   0   72.41    4.78
  -2  13   1    6.85    2.14
  -2  13   2   37.17    3.57
  -2  13   3    7.01    2.22
  -2  13   4    0.56    1.97
  -2  13   5    3.04    2.11
  -2  13   6   -0.44    2.00
  -2  13   7    0.22    2.01
  -2  13   8    5.45    2.62
  -2  13   9    2.53    2.42
  -2  13  10   12.05    2.73
  -2  13  11    0.17    2.57
  -2  13  12    6.80    2.62
  -2  13  13   -1.06    2.67
   2 -14  12   -0.81    2.34
   2 -14  11    1.50    2.41
   2 -14  10    1.86    2.74
  -2  14 -10    1.39    0.92
   2 -14   9    0.37    2.20
  -2  14  -9   -0.95    1.70
   2 -14   8    2.98    2.29
  -2  14  -8    3.17    1.95
   2 -14   7   13.22    2.90
  -2  14  -7   19.68    2.95
   2 -14   6    1.78    2.29
  -2  14  -6    1.23    1.71
   2 -14   5    0.41    2.34
  -2  14  -5    6.54    2.18
   2 -14   4    5.08    2.53
  -2  14  -4    2.51    2.30
   2 -14   3    1.26    2.25
  -2  14  -3    3.42    2.05
   2 -14   2   -2.52    2.04
  -2  14  -2   -0.76    1.82
   2 -14   1   18.60    3.21
  -2  14  -1   15.87    2.72
   2 -14   0   -0.03    2.17
  -2  14   0    4.48    2.12
  -2  14   1   16.69    2.78
  -2  14   2   -1.80    1.94
  -2  14   3   -0.45    2.07
  -2  14   4    6.59    2.40
  -2  14   5    3.13    2.20
  -2  14   6    0.83    2.05
  -2  14   7   19.26    3.04
  -2  14   8    1.32    2.17
  -2  14   9    1.28    2.17
  -2  14  10    2.95    2.38
  -2  14  11    6.26    2.56
  -2  14  12    4.54    2.92
   2 -15  11   -0.14    2.38
   2 -15  10   -0.97    2.34
  -2  15 -10    2.55    1.53
   2 -15   9    0.42    2.36
  -2  15  -9    2.13    1.66
   2 -15   8    0.61    2.30
  -2  15  -8    1.24    1.61
   2 -15   7   11.44    2.95
  -2  15  -7   15.12    2.76
   2 -15   6    6.68    2.72
  -2  15  -6    8.89    2.31
   2 -15   5    0.61    2.39
  -2  15  -5   -1.59    2.03
   2 -15   4    8.94    2.78
  -2  15  -4    8.45    2.76
   2 -15   3    0.73    2.32
  -2  15  -3    1.24    2.02
   2 -15   2    9.03    2.77
  -2  15  -2   10.27    2.72
   2 -15   1   14.29    3.13
  -2  15  -1   18.52    2.91
   2 -15   0    2.59    2.46
  -2  15   0    5.13    2.54
  -2  15   1   13.70    2.71
  -2  15   2   13.08    2.70
  -2  15   3   -1.12    1.97
  -2  15   4    8.61    2.55
  -2  15   5    4.14    2.52
  -2  15   6   11.32    2.69
  -2  15   7    9.00    2.63
  -2  15   8    0.24    2.60
  -2  15   9    2.13    2.69
  -2  15  10    1.65    2.30
  -2  15  11   -0.15    2.26
   2 -16  11   -2.30    2.40
   2 -16  10    3.94    3.13
  -2  16 -10    2.25    1.95
   2 -16   9    0.80    2.57
  -2  16  -9    1.27    2.08
   2 -16   8    3.77    2.69
  -2  16  -8    3.32    2.04
   2 -16   7    4.29    3.11
  -2  16  -7    0.68    1.75
   2 -16   6   -0.94    2.35
  -2  16  -6    1.96    1.94
   2 -16   5   -3.11    2.14
  -2  16  -5    2.00    2.02
   2 -16   4    1.19    2.31
  -2  16  -4    4.01    2.41
   2 -16   3    3.10    2.33
  -2  16  -3    2.34    2.47
   2 -16   2    0.97    2.36
  -2  16  -2    1.43    1.98
   2 -16   1    1.20    2.40
  -2  16  -1    0.13    2.27
   2 -16   0   15.39    3.20
  -2  16   0   11.82    2.70
  -2  16   1    4.50    2.62
  -2  16   2    2.12    2.09
  -2  16   3   -1.29    1.89
  -2  16   4    1.69    2.17
  -2  16   5    2.53    2.15
  -2  16   6    2.22    2.21
  -2  16   7    3.07    2.44
  -2  16   8    2.44    2.83
  -2  16   9   -0.19    2.23
  -2  16  10   -0.04    2.30
   2 -17  10    1.05    2.89
  -2  17 -10    1.47    2.12
   2 -17   9   -2.40    3.09
  -2  17  -9    1.30    1.95
   2 -17   8   -2.82    2.43
  -2  17  -8    4.60    2.33
   2 -17   7    0.42    2.63
  -2  17  -7    3.55    2.03
   2 -17   6    7.98    3.02
  -2  17  -6    8.87    2.52
   2 -17   5    0.46    2.45
  -2  17  -5    0.34    1.98
   2 -17   4    0.15    2.30
  -2  17  -4    7.47    2.44
   2 -17   3    7.18    2.68
  -2  17  -3    4.00    2.23
   2 -17   2    5.83    2.64
  -2  17  -2    0.51    2.02
   2 -17   1    0.33    2.62
  -2  17  -1    0.08    2.08
  -2  17   0   -1.04    1.91
  -2  17   1   -1.87    1.89
  -2  17   2    2.33    2.25
  -2  17   3    2.68    2.20
  -2  17   4    2.18    2.31
  -2  17   5    0.24    2.18
  -2  17   6    4.83    2.84
  -2  17   7    2.10    2.49
  -2  17   8   -0.62    2.32
  -2  17   9    3.20    2.96
  -2  17  10   -2.47    2.29
   2 -18   8   -0.98    2.71
  -2  18  -8   -0.06    2.22
   2 -18   7   -0.11    2.56
  -2  18  -7   -0.19    1.98
   2 -18   6    1.38    2.60
  -2  18  -6   -0.84    1.92
   2 -18   5   -0.90    2.46
  -2  18  -5    2.34    2.13
   2 -18   4   -0.02    2.41
  -2  18  -4    2.45    2.59
   2 -18   3    5.96    2.77
  -2  18  -3    8.42    2.57
   2 -18   2    2.66    2.89
  -2  18  -2   -0.41    2.08
   2 -18   1   -1.36    2.19
  -2  18  -1    0.85    2.16
  -2  18   0    1.72    2.14
  -2  18   1    5.21    2.72
  -2  18   2    0.83    2.16
  -2  18   3    9.23    2.71
  -2  18   4   -1.04    2.20
  -2  18   5    1.01    2.33
  -2  18   6    0.63    2.40
  -2  18   7    3.11    2.51
  -2  18   8    2.17    2.58
   2 -19   7   -1.62    2.52
  -2  19  -7    1.24    2.53
   2 -19   6    0.74    2.60
  -2  19  -6    1.11    2.10
   2 -19   5    1.69    2.70
  -2  19  -5    1.63    2.19
   2 -19   4   -0.34    2.97
  -2  19  -4    2.76    2.25
   2 -19   3    0.60    2.47
  -2  19  -3    3.99    2.38
   2 -19   2    5.23    2.77
  -2  19  -2    7.81    2.68
  -2  19  -1    2.04    2.26
  -2  19   0    4.52    2.45
  -2  19   1   -0.03    2.17
  -2  19   2    3.57    2.43
  -2  19   3    2.39    2.42
  -2  19   4    0.84    2.29
  -2  19   5   -1.32    2.14
  -2  19   6    3.19    2.57
  -2  19   7   -1.23    2.34
   2 -20   5    2.36    2.74
  -2  20  -5   -0.48    2.50
   2 -20   4    0.40    2.68
  -2  20  -4    1.22    2.28
   2 -20   3    0.44    2.50
  -2  20  -3    3.31    2.46
   2 -20   2   -1.50    2.39
  -2  20  -2   -1.68    2.16
  -2  20  -1   -2.68    2.56
  -2  20   0    3.28    2.44
  -2  20   1   -1.87    2.15
  -2  20   2    1.44    2.74
  -2  20   3   -0.74    2.14
  -2  20   4    0.12    2.36
  -2  20   5    5.19    2.64
  -2  21  -2    1.72    2.52
  -2  21  -1   -3.63    2.02
  -2  21   0    4.50    2.53
  -2  21   1   -1.38    2.24
  -2  21   2    0.60    2.39
   3  18   3    4.61    2.54
   3  18   2   -0.71    2.18
   3  18   1    1.83    2.43
   3  18   0    0.08    2.20
   3  18  -1   -0.79    2.54
   3  18  -2    0.01    2.16
   3  18  -3   -0.02    2.20
  -3 -18   4    0.75    2.59
   3  17   6    7.92    3.10
   3  17   5    1.88    2.42
   3  17   4   -0.13    2.18
   3  17   3    1.17    2.31
   3  17   2    3.85    2.76
   3  17   1    1.57    2.25
   3  17   0    1.51    2.09
   3  17  -1   -1.95    2.01
   3  17  -2   -2.44    2.01
   3  17  -3    1.50    2.26
  -3 -17   3    2.22    2.64
   3  17  -4   -0.46    2.25
  -3 -17   4    2.49    3.00
   3  17  -5   -3.65    1.86
  -3 -17   5   -3.29    2.51
   3  17  -6    2.20    2.17
  -3 -17   6    0.68    2.85
   3  16   8   -0.60    2.71
   3  16   8    3.07    2.89
   3  16   7    1.16    2.73
   3  16   7   -1.16    1.95
   3  16   6    0.54    1.01
   3  16   6    0.08    2.20
   3  16   5    2.37    2.18
   3  16   4    5.95    2.47
   3  16   3    6.16    2.48
   3  16   2    2.03    2.19
   3  16   1   -0.59    2.01
   3  16   0    3.35    2.31
   3  16  -1    1.23    2.12
   3  16  -2   -1.32    2.07
   3  16  -3    7.71    2.60
  -3 -16   3    5.83    2.72
   3  16  -4   -1.16    1.97
  -3 -16   4   -3.90    2.20
   3  16  -5   -0.76    2.06
  -3 -16   5    1.97    2.61
   3  16  -6    3.16    2.30
  -3 -16   6    0.67    2.98
   3  16  -7   -2.86    1.90
  -3 -16   7    0.79    3.13
   3  16  -8    3.02    2.24
  -3 -16   8    6.02    3.02
   3  15   9    4.96    2.52
   3  15   9    2.53    2.91
   3  15   8    2.09    2.32
   3  15   8   -1.27    2.09
   3  15   7    1.37    2.33
   3  15   7    4.99    2.69
   3  15   6    0.18    2.16
   3  15   6    0.29    1.85
   3  15   5    0.45    2.19
   3  15   5    3.32    2.23
   3  15   4    4.81    2.14
   3  15   4    3.48    2.27
   3  15   3    0.80    2.08
   3  15   2    3.13    2.18
   3  15   1    0.60    2.00
   3  15   0    5.32    2.36
   3  15  -1    3.12    2.15
   3  15  -2    1.23    2.08
   3  15  -3    2.34    2.14
  -3 -15   3   -0.67    2.23
   3  15  -4    6.13    2.41
  -3 -15   4    5.63    2.74
   3  15  -5    5.44    2.29
  -3 -15   5   -2.50    2.28
   3  15  -6    2.54    2.26
  -3 -15   6   -0.11    2.45
   3  15  -7   -0.10    2.03
  -3 -15   7   -2.14    2.39
   3  15  -8    2.35    2.44
  -3 -15   8    3.07    2.89
   3  15  -9    4.40    2.32
  -3 -15   9   -2.09    2.65
   3  14  10   -1.67    2.31
   3  14  10    0.21    2.34
   3  14   9    0.55    2.69
   3  14   9    1.00    2.34
   3  14   8    2.10    2.59
   3  14   8   -2.71    2.00
   3  14   7    6.20    2.43
   3  14   7    6.33    2.43
   3  14   6    5.89    2.46
   3  14   6    2.76    2.20
   3  14   5    0.29    1.26
   3  14   5    3.61    2.18
   3  14   4   -2.88    1.79
   3  14   4   -0.79    1.76
   3  14   3    0.73    1.65
   3  14   3    1.28    2.05
   3  14   2   14.12    2.95
   3  14   1    2.53    2.11
   3  14   0    2.04    2.09
   3  14  -1    1.77    2.09
   3  14  -2   10.99    2.53
  -3 -14   2   10.91    2.86
   3  14  -3    3.22    2.09
  -3 -14   3    3.71    2.57
   3  14  -4    3.51    2.08
  -3 -14   4    0.81    2.30
   3  14  -5    1.37    2.02
  -3 -14   5    1.33    2.86
   3  14  -6    0.92    2.43
  -3 -14   6    5.63    2.99
   3  14  -7   10.17    2.60
  -3 -14   7    7.90    2.88
   3  14  -8    0.13    2.31
  -3 -14   8   -2.15    2.48
   3  14  -9    2.60    2.01
  -3 -14   9    0.36    2.75
   3  14 -10    4.16    2.13
  -3 -14  10    1.51    2.78
   3  13  11    3.66    2.77
   3  13  11    5.14    3.19
   3  13  10    0.46    2.31
   3  13  10    1.24    2.25
   3  13   9   -0.61    2.53
   3  13   9    0.65    2.20
   3  13   8    1.91    2.15
   3  13   8    3.93    2.76
   3  13   7   -2.36    2.23
   3  13   7   -2.14    2.40
   3  13   6    1.68    1.81
   3  13   6   -0.74    2.36
   3  13   5    0.63    1.46
   3  13   5   -0.91    1.91
   3  13   4    0.70    1.49
   3  13   4   -0.71    1.87
   3  13   3    6.71    1.92
   3  13   3    8.52    2.34
   3  13   2   -0.69    1.87
   3  13   2    2.11    1.50
   3  13   1    2.31    2.02
   3  13   0    3.57    2.11
   3  13  -1    2.56    2.10
   3  13  -2    1.28    2.05
  -3 -13   2    2.81    2.32
   3  13  -3    7.60    2.32
  -3 -13   3    7.35    2.65
   3  13  -4    1.48    1.93
  -3 -13   4   -1.02    2.20
   3  13  -5    1.95    1.87
  -3 -13   5    2.87    2.34
   3  13  -6    0.09    1.89
  -3 -13   6    3.09    2.43
   3  13  -7    1.95    1.91
  -3 -13   7    3.00    2.47
   3  13  -8    5.08    2.17
  -3 -13   8    0.41    2.40
   3  13  -9    3.59    2.11
  -3 -13   9   -0.57    3.04
   3  13 -10    2.24    2.22
  -3 -13  10    0.48    3.01
   3  13 -11    5.03    2.47
  -3 -13  11    1.88    2.69
   3  12  12    2.35    2.39
   3  12  12    0.08    2.55
   3  12  11   -3.92    2.06
   3  12  11    6.14    2.85
   3  12  10   -0.16    2.21
   3  12  10    2.09    2.27
   3  12   9    0.19    2.46
   3  12   9    3.09    2.66
   3  12   8    1.01    2.01
   3  12   8   -0.62    1.96
   3  12   7   -0.70    2.13
   3  12   7   -3.95    1.69
   3  12   6    5.44    2.19
   3  12   6    6.41    2.41
   3  12   5    5.15    2.26
   3  12   5    5.24    2.23
   3  12   4   11.69    2.32
   3  12   4   17.85    3.13
   3  12   3    1.22    1.68
   3  12   3    3.46    2.06
   3  12   2    3.58    2.15
   3  12   2    1.94    1.53
   3  12   1    0.20    1.94
   3  12   1    1.79    1.39
   3  12   0    4.08    2.36
   3  12  -1    1.23    2.00
   3  12  -2    2.29    1.98
  -3 -12   2    2.09    2.37
   3  12  -3    3.32    2.10
  -3 -12   3    1.34    2.38
   3  12  -4   15.42    2.68
  -3 -12   4   16.48    3.04
   3  12  -5    5.49    2.47
  -3 -12   5    4.61    2.42
   3  12  -6   11.82    2.79
  -3 -12   6    5.27    2.95
   3  12  -7   -0.26    2.04
  -3 -12   7    5.09    2.85
   3  12  -8    4.85    2.35
  -3 -12   8    0.46    2.38
   3  12  -9   -0.77    1.60
  -3 -12   9    0.89    2.34
   3  12 -10    2.17    1.85
  -3 -12  10   -0.58    2.34
   3  12 -11   -0.09    1.98
  -3 -12  11   -1.31    2.76
   3  12 -12    1.04    2.13
  -3 -12  12   -1.43    2.31
   3  11  12   -1.37    2.81
   3  11  12   -2.19    2.35
   3  11  11    5.56    2.65
   3  11  11    9.71    2.87
   3  11  10    2.43    2.39
   3  11  10    3.21    2.36
   3  11   9    8.35    2.48
   3  11   9   12.84    2.89
   3  11   8    3.86    2.19
   3  11   8    5.02    2.19
   3  11   7    2.19    1.93
   3  11   7    0.90    1.97
   3  11   6    4.51    2.48
   3  11   6    4.60    1.96
   3  11   5   11.85    2.53
   3  11   5    8.43    2.35
   3  11   4    0.63    1.97
   3  11   4    0.47    0.63
   3  11   3   16.13    2.61
   3  11   3   15.95    2.29
   3  11   2   -1.36    1.30
   3  11   2   -0.25    1.80
   3  11   1    3.19    1.44
   3  11   1    4.03    1.96
   3  11   0   44.06    3.74
   3  11   0   39.35    2.66
   3  11  -1    3.84    2.01
  -3 -11   1    3.28    2.27
   3  11  -2   -1.30    1.59
  -3 -11   2    1.80    2.25
   3  11  -3   14.08    2.49
  -3 -11   3   16.37    2.87
   3  11  -4    2.70    1.93
  -3 -11   4   -1.06    2.05
   3  11  -5    9.76    2.34
  -3 -11   5    8.60    2.67
   3  11  -6    1.11    1.90
  -3 -11   6    3.17    2.38
   3  11  -7   -2.69    1.84
  -3 -11   7    4.93    2.44
   3  11  -8    4.78    2.00
  -3 -11   8    4.82    2.83
   3  11  -9   11.21    2.58
  -3 -11   9    9.37    2.64
   3  11 -10    1.13    1.67
  -3 -11  10    9.57    2.70
   3  11 -11    9.62    2.60
  -3 -11  11    6.04    2.98
   3  11 -12    1.95    2.07
  -3 -11  12   -0.46    2.32
   3  10  13    2.60    2.65
   3  10  12    5.20    2.61
   3  10  12    5.42    2.64
   3  10  11    2.01    2.37
   3  10  11    3.23    2.15
   3  10  10   15.39    3.01
   3  10  10   13.28    2.93
   3  10   9    0.48    2.05
   3  10   9    1.53    2.26
   3  10   8    1.63    1.87
   3  10   8    1.40    1.96
   3  10   7   11.63    2.45
   3  10   7   11.10    2.49
   3  10   6    6.33    2.10
   3  10   6    8.44    2.31
   3  10   5    2.01    1.67
   3  10   5    2.78    2.31
   3  10   4   16.67    2.54
   3  10   4   13.00    2.31
   3  10   3    9.53    1.91
   3  10   3    9.17    2.44
   3  10   2   64.34    4.18
   3  10   2   62.11    3.75
   3  10   1    1.14    1.24
   3  10   1   -0.58    1.57
   3  10   0    1.86    1.07
   3  10   0    0.75    1.71
   3  10  -1    0.62    1.69
   3  10  -1   -0.30    0.93
  -3 -10   1   -0.91    2.30
   3  10  -2   64.19    4.39
  -3 -10   2   75.01    4.98
   3  10  -3    8.88    2.18
  -3 -10   3   10.54    2.48
   3  10  -4    7.13    2.09
  -3 -10   4   15.10    2.96
   3  10  -5    0.60    2.08
  -3 -10   5    0.52    2.06
   3  10  -6   13.93    2.45
  -3 -10   6    5.81    2.87
   3  10  -7   13.76    2.42
  -3 -10   7   10.59    2.62
   3  10  -8    4.37    1.87
  -3 -10   8    5.51    2.26
   3  10  -9    3.48    1.99
  -3 -10   9    1.77    2.10
   3  10 -10   11.06    2.50
  -3 -10  10    9.27    2.64
   3  10 -11    0.95    1.64
  -3 -10  11    3.60    2.32
   3  10 -12    1.89    2.05
  -3 -10  12    3.66    2.89
   3  10 -13    2.70    1.95
  -3 -10  13   -0.01    2.78
   3   9  13    3.83    2.73
   3   9  12    2.10    2.36
   3   9  12    2.77    2.43
   3   9  11    2.77    2.42
   3   9  11   -1.01    2.29
   3   9  10   13.31    2.80
   3   9  10   13.69    2.89
   3   9   9    2.75    2.21
   3   9   9    3.44    2.19
   3   9   8    4.66    2.12
   3   9   8    4.20    2.25
   3   9   7   20.94    2.90
   3   9   7   17.17    2.56
   3   9   6   13.77    2.36
   3   9   6   12.31    2.25
   3   9   5   17.68    2.59
   3   9   5   17.20    2.46
   3   9   4   64.65    4.05
   3   9   4   53.92    3.69
   3   9   3   14.98    2.25
   3   9   3    7.92    1.45
   3   9   2    9.25    1.60
   3   9   2    9.60    1.99
   3   9   1   21.97    1.95
   3   9   1   17.23    2.30
   3   9   0    1.23    0.91
   3   9   0    1.33    1.49
   3   9  -1   21.54    1.62
   3   9  -1   20.30    2.52
  -3  -9   1   24.96    2.90
   3   9  -2    8.25    1.88
   3   9  -2    6.84    0.85
  -3  -9   2   12.52    2.35
   3   9  -3   13.79    2.20
  -3  -9   3   14.67    2.46
   3   9  -4   58.59    4.09
  -3  -9   4   66.54    4.50
   3   9  -5   17.71    2.46
  -3  -9   5   14.45    2.66
   3   9  -6   13.99    2.34
  -3  -9   6   14.75    2.62
   3   9  -7   21.85    2.95
  -3  -9   7   17.90    2.84
   3   9  -8    2.47    1.98
  -3  -9   8   -1.42    2.24
   3   9  -9    0.87    1.82
  -3  -9   9    3.00    2.39
   3   9 -10   12.89    2.52
  -3  -9  10   12.66    2.93
   3   9 -11    3.63    1.80
  -3  -9  11    1.03    2.16
   3   9 -12    4.65    2.06
  -3  -9  12    2.81    2.24
   3   9 -13    3.60    1.76
  -3  -9  13    4.02    2.49
   3   8  14    3.80    2.73
   3   8  13    1.15    2.32
   3   8  12    0.91    2.13
   3   8  12    2.46    2.41
   3   8  11    6.91    2.31
   3   8  11    0.39    2.20
   3   8  10   10.42    2.47
   3   8  10   11.52    2.72
   3   8   9    6.45    2.39
   3   8   9    8.60    2.14
   3   8   8    6.08    2.23
   3   8   8    3.16    1.85
   3   8   7   13.59    2.53
   3   8   7    9.46    2.32
   3   8   6    3.14    1.81
   3   8   6    7.88    1.90
   3   8   5    5.90    2.00
   3   8   5    8.31    2.17
   3   8   4    5.69    1.99
   3   8   4    9.05    1.69
   3   8   3   35.91    3.07
   3   8   2    4.26    1.31
   3   8   2    4.07    1.53
   3   8   1   10.39    1.46
   3   8   1   11.22    1.88
   3   8   0   17.05    1.49
   3   8   0   18.97    2.21
   3   8  -1    7.52    1.71
   3   8  -1    8.95    1.06
  -3  -8   1   12.11    2.36
   3   8  -2    3.00    1.45
   3   8  -2    4.74    0.74
  -3  -8   2    5.25    1.74
   3   8  -3   38.16    2.96
  -3  -8   3   36.88    3.46
   3   8  -4    6.52    1.80
  -3  -8   4    6.86    2.22
   3   8  -5    8.15    1.91
  -3  -8   5    7.13    1.99
   3   8  -6    6.89    1.83
  -3  -8   6    5.55    1.96
   3   8  -7   12.89    2.42
  -3  -8   7    9.73    2.27
   3   8  -8    2.91    1.65
  -3  -8   8    5.20    2.06
   3   8  -9   10.80    2.12
  -3  -8   9    8.45    2.39
   3   8 -10    7.69    1.98
  -3  -8  10   10.60    2.45
   3   8 -11    3.35    1.66
  -3  -8  11    3.30    2.06
   3   8 -12    2.22    1.82
  -3  -8  12    2.73    2.13
   3   8 -13   -2.03    1.35
  -3  -8  13   -1.61    1.91
   3   8 -14    0.36    1.56
  -3  -8  14   -0.62    1.98
   3   7  14    2.17    2.55
   3   7  13    5.38    2.60
   3   7  12    2.67    2.26
   3   7  12    8.35    2.42
   3   7  11    5.52    2.09
   3   7  11    1.78    2.16
   3   7  10    3.63    2.23
   3   7  10    4.09    2.13
   3   7   9    3.29    2.20
   3   7   9    4.40    2.08
   3   7   8   13.86    2.62
   3   7   8   12.33    2.39
   3   7   7   69.40    4.64
   3   7   7   72.83    4.49
   3   7   6    1.87    1.84
   3   7   6    5.85    1.84
   3   7   5   35.33    3.05
   3   7   5   37.82    3.11
   3   7   4    4.02    1.38
   3   7   4    5.56    1.52
   3   7   3   64.53    3.71
   3   7   3   60.80    3.51
   3   7   2   22.12    2.22
   3   7   2   18.16    1.78
   3   7   1   67.72    3.88
   3   7   1   70.15    3.55
   3   7   0  102.54    4.85
   3   7   0  112.23    5.40
   3   7  -1   68.07    4.03
   3   7  -1   73.56    3.40
  -3  -7   1   73.10    4.43
   3   7  -2   21.35    2.21
   3   7  -2   17.57    1.16
  -3  -7   2   19.02    2.28
   3   7  -3   67.87    3.96
  -3  -7   3   68.21    4.22
   3   7  -4    5.64    1.57
  -3  -7   4    5.33    1.70
   3   7  -5   38.55    2.94
  -3  -7   5   36.87    2.98
   3   7  -6    5.70    1.87
  -3  -7   6    3.29    1.70
   3   7  -7   71.59    4.44
  -3  -7   7   70.03    4.50
   3   7  -8   11.41    2.03
  -3  -7   8   14.30    2.44
   3   7  -9    4.82    1.98
  -3  -7   9    4.89    2.29
   3   7 -10    2.42    1.85
  -3  -7  10    1.25    2.12
   3   7 -11    1.65    1.77
  -3  -7  11    5.54    2.06
   3   7 -12    3.35    1.61
  -3  -7  12    5.47    2.46
   3   7 -13    8.50    2.26
  -3  -7  13    4.52    2.23
   3   7 -14    0.79    0.86
  -3  -7  14   -1.47    2.26
   3   6  15    0.80    2.59
   3   6  14    6.48    2.88
   3   6  13    1.29    2.41
   3   6  12    1.62    2.21
   3   6  11    0.91    1.86
   3   6  11    0.05    2.05
   3   6  10   -1.65    1.92
   3   6  10   -1.51    1.76
   3   6   9    1.20    1.56
   3   6   9    1.74    2.00
   3   6   8   41.08    3.69
   3   6   8   33.99    3.16
   3   6   7    4.50    1.91
   3   6   7    9.61    1.99
   3   6   6  133.43    6.69
   3   6   6  125.18    6.22
   3   6   5   35.31    2.86
   3   6   5   40.05    2.90
   3   6   4    4.15    1.36
   3   6   4    2.75    1.27
   3   6   3    4.18    1.48
   3   6   3    1.55    1.24
   3   6   2    1.76    0.75
   3   6   2    6.80    1.41
   3   6   1    5.62    1.07
   3   6   1    5.70    1.40
   3   6   0  219.51    9.29
   3   6   0  214.92    9.56
   3   6  -1    4.47    1.31
   3   6  -1    6.31    0.87
  -3  -6   1    5.49    1.59
   3   6  -2    4.37    1.29
   3   6  -2    6.43    0.69
  -3  -6   2    6.42    1.60
   3   6  -3    1.79    1.18
  -3  -6   3    1.22    1.33
   3   6  -4    0.55    1.22
  -3  -6   4    5.06    1.45
   3   6  -5   37.98    2.71
  -3  -6   5   36.70    2.80
   3   6  -6  135.04    6.34
  -3  -6   6  135.16    6.56
  -3  -6   6  120.86    5.41
   3   6  -7   10.22    1.97
  -3  -6   7    9.58    1.92
  -3  -6   7    4.29    0.90
   3   6  -8   33.83    3.01
  -3  -6   8   34.26    3.29
  -3  -6   8   30.87    2.05
   3   6  -9   -1.20    1.56
  -3  -6   9   -1.70    1.51
   3   6 -10    0.55    1.40
  -3  -6  10   -1.12    1.99
   3   6 -11    1.76    1.69
  -3  -6  11    5.11    1.94
   3   6 -12    3.76    1.61
  -3  -6  12    3.83    1.97
   3   6 -13    1.54    1.68
  -3  -6  13    0.06    1.90
  -3  -6  14   11.70    2.88
  -3  -6  15    0.53    2.44
   3   5  15    5.21    2.79
   3   5  14    4.56    2.64
   3   5  13   16.67    3.30
   3   5  12    1.09    2.17
   3   5  11    9.25    2.24
   3   5  11    8.99    2.50
   3   5  10    5.10    2.27
   3   5  10    0.83    1.70
   3   5   9   22.22    3.01
   3   5   9   21.35    2.46
   3   5   8   49.61    3.36
   3   5   8   47.81    3.80
   3   5   7  103.26    5.20
   3   5   7   97.61    5.59
   3   5   6    0.88    1.42
   3   5   6    0.77    1.34
   3   5   5  155.64    6.98
   3   5   5  145.79    7.24
   3   5   4   44.90    2.87
   3   5   4   53.20    3.08
   3   5   3   70.26    3.71
   3   5   3   70.57    3.72
   3   5   2   16.83    1.72
   3   5   1  147.11    6.57
   3   5   1  148.78    6.68
   3   5   0  234.48    9.98
   3   5   0  237.38   10.15
   3   5  -1  155.43    7.06
   3   5  -1  161.86    6.71
  -3  -5   1  151.23    7.46
   3   5  -2   18.94    1.12
   3   5  -2   19.66    1.89
  -3  -5   2   19.95    2.05
   3   5  -3   65.99    3.67
  -3  -5   3   71.05    3.87
   3   5  -4   53.74    3.13
  -3  -5   4   49.01    3.24
   3   5  -5  169.86    7.44
  -3  -5   5  151.08    7.62
   3   5  -6    0.13    1.04
  -3  -5   6   -1.43    1.10
   3   5  -7   91.91    4.77
  -3  -5   7   91.76    4.18
  -3  -5   7   82.28    4.83
   3   5  -8   44.38    3.33
  -3  -5   8   44.69    3.32
  -3  -5   8   46.62    2.69
   3   5  -9   19.54    2.29
  -3  -5   9   21.47    2.04
  -3  -5   9   18.50    2.50
   3   5 -10    1.06    1.38
  -3  -5  10    1.30    1.75
  -3  -5  10    0.12    1.28
   3   5 -11   12.59    2.21
  -3  -5  11    9.11    2.39
   3   5 -12    3.59    1.80
  -3  -5  12    2.62    1.85
   3   5 -13    6.88    1.65
  -3  -5  13   18.54    3.01
   3   5 -14   -0.48    1.15
  -3  -5  14    2.18    2.29
  -3  -5  15    3.16    2.55
   3   4  15    1.76    2.63
   3   4  14    0.43    2.34
   3   4  13    7.02    2.62
   3   4  12   -2.61    1.91
   3   4  11    6.72    2.34
   3   4  11    5.11    1.94
   3   4  10    9.71    2.11
   3   4  10    6.77    2.39
   3   4   9    3.34    1.96
   3   4   9    4.29    1.64
   3   4   8    6.11    1.96
   3   4   8    6.47    1.60
   3   4   7   26.46    2.75
   3   4   7   29.99    2.35
   3   4   6   13.13    1.98
   3   4   6   14.54    1.70
   3   4   5   69.76    4.03
   3   4   5   73.73    3.77
   3   4   4    4.36    1.10
   3   4   4    3.07    1.19
   3   4   3   39.64    2.45
   3   4   3   40.41    2.49
   3   4   2    7.86    1.33
   3   4   2    6.28    1.17
   3   4   1  167.66    7.32
   3   4   1  166.96    7.30
   3   4   0   38.16    2.06
   3   4   0   37.92    2.35
   3   4  -1  161.36    7.39
   3   4  -1  170.51    7.14
  -3  -4   1  172.44    7.86
   3   4  -2    6.06    1.22
   3   4  -2    8.37    0.74
  -3  -4   2    8.42    1.52
   3   4  -3   35.46    2.33
   3   4  -3   34.61    1.61
  -3  -4   3   36.15    2.32
   3   4  -4    4.12    1.14
  -3  -4   4    4.00    1.26
   3   4  -5   67.00    3.76
  -3  -4   5   76.84    4.00
   3   4  -6   14.08    1.71
  -3  -4   6   14.31    1.71
   3   4  -7   26.49    2.42
  -3  -4   7   33.40    2.80
   3   4  -8    6.74    1.50
  -3  -4   8    4.85    1.60
   3   4  -9    6.42    1.53
  -3  -4   9    3.32    1.66
   3   4 -10   10.22    1.90
  -3  -4  10   10.00    1.75
  -3  -4  10    8.18    2.19
   3   4 -11    6.21    1.82
  -3  -4  11    1.80    1.71
  -3  -4  11    3.43    1.60
   3   4 -12   -0.46    1.48
  -3  -4  12   -1.05    1.51
  -3  -4  13    8.61    2.22
   3   4 -14    1.01    1.61
  -3  -4  14    2.47    1.88
  -3  -4  15   -1.18    2.23
   3   3  15    0.45    2.39
   3   3  14    5.69    2.63
   3   3  13    4.47    2.48
   3   3  12    4.87    2.30
   3   3  11   22.93    3.20
   3   3  11   22.86    2.56
   3   3  10    0.58    1.94
   3   3  10    0.30    1.62
   3   3   9   18.88    2.16
   3   3   9   13.74    2.43
   3   3   8   21.40    2.03
   3   3   8   15.34    2.33
   3   3   7   52.89    3.40
   3   3   7   54.09    3.06
   3   3   6  182.22    8.48
   3   3   6  181.91    7.94
   3   3   5   77.22    3.81
   3   3   5   77.32    4.09
   3   3   4  150.97    7.04
   3   3   4  154.98    6.71
   3   3   3  120.54    5.75
   3   3   3  127.39    5.54
   3   3   2    1.17    0.99
   3   3   2   -0.30    0.79
   3   3   1  333.69   13.76
   3   3   0    3.80    1.00
   3   3   0    5.21    0.84
   3   3  -1  324.04   13.42
   3   3  -1  323.59   13.44
  -3  -3   1  325.24   14.06
   3   3  -2   -0.24    0.49
   3   3  -2   -0.19    0.87
  -3  -3   2   -0.37    0.86
   3   3  -3  122.23    5.69
   3   3  -3  130.20    5.35
  -3  -3   3  124.68    5.85
   3   3  -4  151.34    6.76
  -3  -3   4  151.62    6.93
   3   3  -5   70.74    3.71
  -3  -3   5   72.54    3.76
   3   3  -6  171.83    7.86
  -3  -3   6  179.15    8.18
   3   3  -7   49.91    3.08
  -3  -3   7   53.60    3.30
   3   3  -8   17.89    2.13
  -3  -3   8   18.70    2.14
   3   3  -9   16.24    2.12
  -3  -3   9   14.75    2.10
   3   3 -10    1.85    1.52
  -3  -3  10    0.86    1.49
   3   3 -11   26.47    2.85
  -3  -3  11   20.06    2.64
  -3  -3  11   25.78    2.66
   3   3 -12    2.65    1.55
  -3  -3  12    4.08    2.03
  -3  -3  12    4.03    1.79
  -3  -3  13    4.08    1.93
  -3  -3  13    4.22    1.87
   3   3 -14    3.98    1.87
  -3  -3  14    7.67    2.42
  -3  -3  15   -0.67    2.14
   3   2  16    3.40    2.72
   3   2  15    0.25    2.40
   3   2  14    0.24    2.27
   3   2  13   -0.86    2.01
   3   2  12    4.46    1.88
   3   2  11    8.06    1.87
   3   2  11    7.02    2.49
   3   2  10   32.18    3.45
   3   2  10   32.06    2.61
   3   2   9   18.03    2.55
   3   2   9   15.72    1.92
   3   2   8   16.23    2.24
   3   2   8   15.32    1.67
   3   2   7   35.03    2.21
   3   2   7   34.97    2.79
   3   2   6    1.25    1.00
   3   2   6    2.44    1.29
   3   2   5    4.12    0.93
   3   2   5    3.83    1.22
   3   2   4  118.17    5.58
   3   2   4  116.76    5.18
   3   2   3  173.04    7.25
   3   2   3  167.15    7.57
   3   2   2  203.02    8.54
   3   2   2  204.54    8.80
   3   2   1   13.94    1.20
   3   2   1   17.76    1.32
   3   2   0   28.91    1.85
   3   2   0   33.75    1.79
   3   2  -1   20.52    1.32
   3   2  -1   21.34    1.56
  -3  -2   1   20.65    1.70
   3   2  -2  210.07    8.61
   3   2  -2  212.74    8.74
  -3  -2   2  195.62    9.01
   3   2  -3  155.89    7.03
   3   2  -3  161.39    6.84
  -3  -2   3  168.90    7.24
   3   2  -4  120.51    5.40
  -3  -2   4  116.02    5.46
   3   2  -5    0.52    0.87
  -3  -2   5    3.73    0.91
   3   2  -6    3.46    1.03
  -3  -2   6    2.69    1.01
   3   2  -7   32.61    2.41
  -3  -2   7   30.10    2.41
   3   2  -8   13.99    1.75
  -3  -2   8   13.37    1.80
   3   2  -9   20.74    2.30
  -3  -2   9   16.80    2.32
   3   2 -10   26.92    2.53
  -3  -2  10   21.97    2.75
   3   2 -11    7.15    1.93
  -3  -2  11    5.81    2.07
   3   2 -12    2.51    1.31
  -3  -2  12    4.07    2.03
  -3  -2  12    7.74    2.03
  -3  -2  13    2.39    1.62
  -3  -2  13    3.03    2.09
   3   2 -14   -0.46    1.57
  -3  -2  14    1.42    1.71
  -3  -2  14   -0.23    1.68
  -3  -2  15    0.48    2.15
  -3  -2  16    4.63    2.45
   3   1  16    0.43    2.43
   3   1  15    0.20    2.30
   3   1  14   -1.47    2.16
   3   1  13   -2.01    1.97
   3   1  12   16.28    2.87
   3   1  11   43.25    4.13
   3   1  11   39.50    2.94
   3   1  10   20.25    2.85
   3   1  10   21.16    2.09
   3   1   9   82.35    4.69
   3   1   9   75.81    3.97
   3   1   8   71.69    3.62
   3   1   8   72.55    4.36
   3   1   7   18.63    1.59
   3   1   7   21.63    2.30
   3   1   6    5.18    1.38
   3   1   6    5.33    0.99
   3   1   5  117.78    5.09
   3   1   5  115.56    5.63
   3   1   4  181.73    7.65
   3   1   4  159.31    7.07
   3   1   3  608.02   25.88
   3   1   3  639.89   25.05
   3   1   2  199.56    8.17
   3   1   2  196.07    8.50
   3   1   1  142.02    6.00
   3   1   1  143.91    6.20
   3   1   0   12.97    1.05
   3   1  -1  135.19    5.79
   3   1  -1  130.45    5.77
  -3  -1   1  140.85    5.99
   3   1  -2  192.54    8.16
   3   1  -2  191.78    8.18
  -3  -1   2  198.92    8.40
   3   1  -3  655.07   26.49
   3   1  -3  667.11   26.88
  -3  -1   3  645.28   27.50
   3   1  -4  164.73    7.26
  -3  -1   4  169.84    7.44
   3   1  -5  105.00    5.17
  -3  -1   5  122.14    5.39
   3   1  -6    4.98    1.08
   3   1  -7   20.20    1.91
   3   1  -8   67.82    3.74
   3   1  -9   77.40    4.31
   3   1 -10   18.24    2.28
   3   1 -11   40.08    3.17
   3   1 -12    7.37    1.51
   3   1 -13    0.39    0.87
  -3  -1  13    1.26    1.90
   3   1 -14   -2.25    1.52
  -3  -1  14    4.63    2.20
  -3  -1  15   -0.44    2.05
   3   0  16    5.38    2.72
   3   0  15   -0.16    2.23
   3   0  14    5.46    2.86
   3   0  13    7.03    2.49
   3   0  12    1.74    2.03
   3   0  11    3.98    2.17
   3   0  11    1.86    1.35
   3   0  10   50.23    3.97
   3   0  10   52.09    3.11
   3   0   9   41.28    3.46
   3   0   9   37.59    2.48
   3   0   8    0.59    0.91
   3   0   8   -0.53    1.35
   3   0   7   50.42    3.18
   3   0   7   44.34    2.47
   3   0   6   66.42    3.03
   3   0   6   59.56    3.58
   3   0   5    6.81    1.32
   3   0   5    8.27    0.88
   3   0   4  206.42    9.16
   3   0   4  210.61    8.53
   3   0   3  234.01    9.99
   3   0   3  231.70    9.44
   3   0   2   44.54    1.97
   3   0   2   40.70    2.28
   3   0   1   32.69    1.76
   3   0   1   32.08    1.56
   3   0   0    0.89    0.40
   3   0   0    0.50    0.52
   3   0  -1   30.77    1.62
  -3   0   1   30.55    1.56
   3   0  -2   46.06    2.28
   3   0  -2   44.17    2.17
  -3   0   2   43.61    2.09
   3   0  -3  230.70    9.79
   3   0  -3  233.54    9.89
  -3   0   3  240.18   10.06
   3   0  -4  205.90    8.74
   3   0  -5    8.59    1.17
   3   0  -6   66.68    3.46
   3   0  -7   44.04    2.65
   3   0  -8    1.21    1.19
   3   0  -9   35.22    2.56
   3   0 -10   52.99    3.35
   3   0 -11    1.00    1.64
   3   0 -12    0.71    0.96
   3   0 -13    0.12    0.68
   3   0 -14    3.79    1.85
  -3   0  14    5.69    2.09
  -3   0  15    1.09    1.85
  -3   0  16    1.83    2.20
   3  -1  16    1.13    2.79
   3  -1  15    2.86    2.42
   3  -1  14    4.28    2.34
   3  -1  13   19.82    3.08
   3  -1  12   -1.58    1.90
   3  -1  11   16.40    2.72
   3  -1  11   12.93    1.80
   3  -1  10   32.24    2.32
   3  -1  10   26.29    3.05
   3  -1   9    2.86    1.10
   3  -1   9    1.70    1.64
   3  -1   8   13.18    1.32
   3  -1   8   12.89    1.94
   3  -1   7  110.98    5.48
   3  -1   7  104.68    4.71
   3  -1   6    1.36    1.09
   3  -1   6    0.52    0.62
   3  -1   5    5.46    0.67
   3  -1   5    4.58    1.15
   3  -1   4   33.52    1.56
   3  -1   4   32.29    2.10
   3  -1   3   42.84    1.79
   3  -1   3   36.51    2.30
   3  -1   2  456.88   18.15
   3  -1   2  456.36   18.91
   3  -1   1   92.86    3.83
   3  -1   1   92.34    4.11
   3  -1   0  115.04    4.68
   3  -1   0  110.35    4.87
   3  -1  -1   73.13    3.36
   3  -1  -1   76.34    3.28
   3  -1  -2  402.11   15.90
   3  -1  -2  382.03   16.20
   3  -1  -3   50.15    2.71
   3  -1  -3   59.45    2.79
   3  -1  -4   37.37    2.15
   3  -1  -5    4.34    1.04
   3  -1  -6   -0.10    0.78
   3  -1  -7   98.18    4.80
   3  -1  -8   13.37    1.62
   3  -1  -9    2.06    1.17
   3  -1 -10   35.85    3.01
   3  -1 -11   17.13    2.38
   3  -1 -12   -0.54    1.15
   3  -1 -13    0.15    0.59
  -3   1  14    3.09    1.67
  -3   1  14    1.15    1.81
  -3   1  15    1.27    2.00
  -3   1  16    0.32    1.98
   3  -2  16   -0.59    2.76
   3  -2  15    0.63    2.14
   3  -2  14    0.22    2.01
   3  -2  13   14.03    2.97
   3  -2  12   -1.54    1.77
   3  -2  11   15.48    1.89
   3  -2  11   19.74    2.79
   3  -2  10   31.83    2.26
   3  -2  10   34.10    3.23
   3  -2   9    2.75    1.03
   3  -2   9    2.73    1.59
   3  -2   8   10.99    1.22
   3  -2   8   11.48    1.81
   3  -2   7  100.55    4.45
   3  -2   7  101.40    5.13
   3  -2   6    1.96    1.06
  -3   2  -6   -0.15    0.53
   3  -2   5    5.33    1.10
  -3   2  -5    6.18    0.62
   3  -2   4   34.67    2.14
   3  -2   3   53.29    2.76
   3  -2   2  443.98   18.38
   3  -2   1   78.91    3.32
   3  -2   1   81.95    3.61
   3  -2   0  110.17    4.66
   3  -2   0  105.73    4.76
   3  -2   0  113.08    4.56
   3  -2  -1   89.21    3.86
   3  -2  -1   90.23    3.99
   3  -2  -2  456.90   18.03
   3  -2  -2  435.34   18.44
   3  -2  -3   43.55    2.30
   3  -2  -4   32.41    2.06
   3  -2  -5    5.07    1.08
   3  -2  -6    0.34    0.83
   3  -2  -7   96.89    4.76
   3  -2  -8   12.21    1.61
   3  -2  -9    2.51    1.25
   3  -2 -10   34.80    3.02
   3  -2 -11   12.93    2.17
  -3   2  12    2.20    1.58
  -3   2  13   18.02    2.72
  -3   2  14    0.82    1.95
  -3   2  15    2.01    1.95
  -3   2  15   -1.12    2.18
  -3   2  16   -1.27    2.43
   3  -3  16    1.94    2.35
   3  -3  15    1.37    2.18
   3  -3  14    2.52    2.47
   3  -3  13    9.31    2.65
   3  -3  12    0.46    1.80
   3  -3  11    0.59    1.79
   3  -3  10   54.65    3.84
  -3   3 -10   55.87    3.05
   3  -3   9   37.28    2.93
  -3   3  -9   35.77    2.20
   3  -3   8   -0.05    1.18
  -3   3  -8    0.13    0.69
   3  -3   7   38.88    2.67
  -3   3  -7   44.63    2.19
   3  -3   6   67.19    3.66
  -3   3  -6   68.00    3.04
   3  -3   5    7.33    1.14
  -3   3  -5    8.24    0.71
   3  -3   4  219.52    9.57
  -3   3  -4  225.48    8.99
   3  -3   3  235.72   10.40
  -3   3  -3  252.95    9.84
   3  -3   2   47.94    2.35
  -3   3  -2   43.83    2.01
   3  -3   1   21.39    1.43
   3  -3   1   30.31    1.58
  -3   3  -1   32.22    1.39
   3  -3   0    1.31    0.40
   3  -3   0    1.23    0.40
  -3   3   0   -0.07    0.27
   3  -3  -1   32.39    1.68
   3  -3  -1   28.04    1.55
  -3   3   1   30.74    1.60
   3  -3  -2   44.16    2.25
   3  -3  -2   41.42    2.19
   3  -3  -3  232.94    9.74
   3  -3  -4  214.20    9.08
   3  -3  -5    7.92    1.14
   3  -3  -6   68.14    3.53
   3  -3  -7   42.98    2.65
   3  -3  -8    1.81    1.31
   3  -3  -9   35.46    2.62
  -3   3   9   35.94    2.77
  -3   3  10   57.09    3.89
  -3   3  11   -0.60    1.80
  -3   3  12    2.66    1.98
  -3   3  13    9.48    2.31
  -3   3  14    4.88    2.28
  -3   3  15   -1.33    2.01
  -3   3  15   -1.51    2.27
  -3   3  16    2.98    2.65
   3  -4  16   -3.56    2.51
   3  -4  15   -1.11    2.00
   3  -4  14   -0.49    1.95
   3  -4  13    0.41    1.78
   3  -4  12   21.43    2.81
   3  -4  11   42.81    3.62
   3  -4  10   25.63    2.66
  -3   4 -10   23.86    1.94
   3  -4   9   81.33    4.59
  -3   4  -9   76.84    3.76
   3  -4   8   67.08    3.88
  -3   4  -8   71.18    3.35
   3  -4   7   20.68    1.94
  -3   4  -7   20.65    1.41
   3  -4   6    4.87    1.09
  -3   4  -6    7.26    0.81
   3  -4   5  105.03    5.12
  -3   4  -5  116.51    4.75
   3  -4   4  177.29    7.50
  -3   4  -4  166.20    7.05
   3  -4   3  680.82   28.16
   3  -4   3  662.08   27.43
  -3   4  -3  658.78   26.64
   3  -4   2  194.32    8.36
   3  -4   2  195.49    8.61
  -3   4  -2  200.09    8.10
   3  -4   1  136.26    5.64
   3  -4   1  133.70    5.53
  -3   4  -1  109.88    5.29
   3  -4   0   12.82    1.03
  -3   4   0   12.97    1.03
   3  -4  -1  141.87    5.84
   3  -4  -1  122.99    5.93
  -3   4   1  135.61    5.72
   3  -4  -2  193.92    8.35
  -3   4   2  193.62    8.19
  -3   4   3  653.36   26.41
  -3   4   4  160.29    7.03
  -3   4   5  108.07    5.06
  -3   4   6    4.56    1.35
  -3   4   7   21.62    2.05
  -3   4   8   63.03    3.67
  -3   4   9   80.04    4.49
  -3   4  10   22.78    2.58
  -3   4  11   47.92    3.91
  -3   4  12   27.54    3.17
  -3   4  13    1.50    1.71
  -3   4  14    0.50    2.09
  -3   4  15    4.76    2.37
  -3   4  15    0.18    2.02
  -3   4  16    0.35    2.13
   3  -5  15    0.29    2.02
   3  -5  14    1.71    1.94
   3  -5  13    6.10    2.40
   3  -5  12    1.44    1.97
   3  -5  11    5.99    2.15
   3  -5  10   25.60    2.80
  -3   5 -10   26.99    2.11
   3  -5   9   18.83    2.13
  -3   5  -9   16.06    1.56
   3  -5   8   14.52    1.92
  -3   5  -8   16.01    1.47
   3  -5   7   34.96    2.41
  -3   5  -7   33.78    1.99
   3  -5   6    1.56    1.07
  -3   5  -6    2.93    0.78
   3  -5   5    2.30    0.94
   3  -5   5    2.63    1.10
  -3   5  -5    3.98    0.71
   3  -5   4  121.34    5.74
   3  -5   4  121.81    5.40
  -3   5  -4  117.52    5.16
   3  -5   3  161.61    7.42
   3  -5   3  161.17    7.10
  -3   5  -3  168.81    6.92
   3  -5   2  211.76    9.24
   3  -5   2  217.53    9.59
  -3   5  -2  226.27    9.10
   3  -5   1   23.43    1.65
   3  -5   1   21.72    1.40
   3  -5   0   30.76    1.86
   3  -5   0   30.26    2.18
  -3   5   0   34.45    1.93
   3  -5  -1   16.79    1.60
   3  -5  -1   20.30    1.46
  -3   5   1   24.22    1.61
   3  -5  -2  192.66    8.77
  -3   5   2  213.95    8.65
  -3   5   3  160.07    6.99
  -3   5   4  118.35    5.44
  -3   5   5    2.09    1.03
  -3   5   6    1.84    1.11
  -3   5   7   30.14    2.37
  -3   5   8   13.32    1.93
  -3   5   9   19.54    2.32
  -3   5  10   28.93    3.00
  -3   5  11    7.35    2.22
  -3   5  12   10.26    2.37
  -3   5  13    6.30    2.32
  -3   5  14   -0.15    2.00
  -3   5  15   -1.16    2.02
  -3   5  16    1.46    2.26
   3  -6  15    2.92    2.55
   3  -6  14    2.86    1.87
   3  -6  14    4.62    2.18
   3  -6  13    5.36    2.19
   3  -6  13    6.45    2.27
   3  -6  12    2.44    1.90
   3  -6  12    1.65    1.91
   3  -6  11   19.42    2.86
   3  -6  11   23.11    2.74
   3  -6  10    0.51    1.75
   3  -6  10    0.33    1.60
  -3   6 -10    0.53    1.06
   3  -6   9   11.97    2.28
   3  -6   9   24.86    2.39
  -3   6  -9   20.11    1.78
   3  -6   8   15.77    1.94
   3  -6   8   19.41    2.36
  -3   6  -8   20.33    1.69
   3  -6   7   52.46    3.03
   3  -6   7   47.91    3.35
  -3   6  -7   53.53    2.75
   3  -6   6  180.93    7.95
   3  -6   6  184.56    8.48
  -3   6  -6  173.33    7.65
   3  -6   5   69.85    3.99
   3  -6   5   75.56    3.62
  -3   6  -5   73.86    3.48
   3  -6   4  146.35    6.90
   3  -6   4  149.03    6.49
  -3   6  -4  147.64    6.40
   3  -6   3  126.36    5.64
   3  -6   3  130.51    6.07
  -3   6  -3  128.89    5.65
   3  -6   2    0.08    0.65
   3  -6   2   -1.39    0.89
  -3   6  -2   -0.30    0.25
   3  -6   1  326.54   13.71
   3  -6   1  324.22   14.21
  -3   6  -1  336.17   13.60
   3  -6   0    3.08    0.75
   3  -6   0    4.86    1.23
  -3   6   0    2.92    0.97
   3  -6  -1  311.25   14.04
   3  -6  -1  328.50   13.55
  -3   6   1  324.56   13.36
  -3   6   2   -0.04    0.89
  -3   6   3  128.43    5.86
  -3   6   4  142.95    6.46
  -3   6   5   72.75    3.80
  -3   6   6  176.53    8.01
  -3   6   7   48.47    3.09
  -3   6   8   19.85    2.21
  -3   6   9   14.18    2.08
  -3   6  10    2.68    1.66
  -3   6  11   26.20    3.11
  -3   6  12    3.20    2.02
  -3   6  13    1.47    2.13
  -3   6  14    4.28    2.30
  -3   6  15   -0.62    2.18
   3  -7  15    3.52    2.26
   3  -7  14    4.94    2.23
   3  -7  13   12.16    2.23
   3  -7  13    9.11    2.42
   3  -7  12   -0.71    1.39
   3  -7  12    0.21    1.78
   3  -7  11    5.99    1.89
   3  -7  11    0.40    1.84
   3  -7  10    5.93    2.08
   3  -7  10    8.62    1.93
  -3   7 -10   10.96    1.54
   3  -7   9    4.57    1.85
   3  -7   9    6.23    1.63
  -3   7  -9    4.47    1.20
   3  -7   8    5.07    1.41
   3  -7   8    3.08    1.69
  -3   7  -8    5.52    1.13
   3  -7   7   30.39    2.78
   3  -7   7   26.47    2.08
  -3   7  -7   27.43    1.99
   3  -7   6   15.27    1.48
   3  -7   6   14.13    1.88
  -3   7  -6   14.72    1.47
   3  -7   5   75.55    4.13
   3  -7   5   74.04    3.59
  -3   7  -5   69.04    3.58
   3  -7   4    4.60    0.91
   3  -7   4    3.85    1.01
  -3   7  -4    2.48    0.94
   3  -7   3   34.31    2.33
   3  -7   3   32.59    1.90
   3  -7   2    7.91    1.30
   3  -7   2    6.20    0.90
  -3   7  -2    5.40    1.21
   3  -7   1  160.55    7.63
   3  -7   1  166.25    7.14
  -3   7  -1  168.92    7.28
   3  -7   0   34.96    1.99
   3  -7   0   37.19    2.58
  -3   7   0   36.24    2.30
   3  -7  -1  176.49    7.64
   3  -7  -1  171.99    8.19
  -3   7   1  172.42    7.64
  -3   7   2    7.50    1.30
  -3   7   3   33.72    2.28
  -3   7   4    3.58    1.22
  -3   7   5   73.66    3.98
  -3   7   6   15.17    1.89
  -3   7   7   27.32    2.52
  -3   7   8    6.37    1.92
  -3   7   9    5.25    1.75
  -3   7  10   13.19    2.27
  -3   7  11    3.02    1.83
  -3   7  12    0.08    1.94
  -3   7  13    8.78    2.56
  -3   7  14   -0.17    2.27
  -3   7  15    0.44    2.36
   3  -8  15    0.60    2.18
   3  -8  14   -0.19    2.06
   3  -8  13   16.44    2.94
   3  -8  12    2.84    2.04
   3  -8  11   12.54    2.08
   3  -8  11    9.73    2.36
   3  -8  10   -2.10    1.41
   3  -8  10    0.28    1.84
  -3   8 -10    3.20    1.27
   3  -8   9   13.72    2.47
   3  -8   9   24.80    2.28
  -3   8  -9   22.62    2.13
   3  -8   8   44.42    3.47
   3  -8   8   41.60    2.71
  -3   8  -8   41.31    2.66
   3  -8   7   90.66    4.44
   3  -8   7   89.19    5.14
  -3   8  -7   87.68    4.41
   3  -8   6   -0.63    1.31
   3  -8   6    0.46    0.97
  -3   8  -6    0.18    0.97
   3  -8   5  151.74    6.63
   3  -8   5  157.45    7.37
  -3   8  -5  142.43    6.74
   3  -8   4   58.16    3.54
   3  -8   4   59.24    2.92
   3  -8   3   59.12    2.86
   3  -8   3   55.60    3.43
  -3   8  -3   59.90    3.24
   3  -8   2   20.35    1.40
   3  -8   2   21.18    2.04
  -3   8  -2   17.30    1.87
   3  -8   1  153.98    7.34
   3  -8   1  157.19    6.69
  -3   8  -1  148.08    6.90
   3  -8   0  252.21   11.43
   3  -8   0  252.46   10.73
  -3   8   0  250.92   10.82
   3  -8  -1  145.18    7.36
  -3   8   1  158.43    6.92
  -3   8   2   20.25    1.98
  -3   8   3   62.87    3.55
  -3   8   4   59.46    3.47
  -3   8   5  143.74    6.77
  -3   8   6   -0.49    1.51
  -3   8   7   89.74    4.90
  -3   8   8   42.97    3.27
  -3   8   9   18.68    2.50
  -3   8  10    1.51    1.80
  -3   8  11    9.62    2.47
  -3   8  12    6.53    2.45
  -3   8  13   19.78    3.12
  -3   8  14   -3.07    2.16
  -3   8  15   -0.87    2.37
   3  -9  15   -1.61    2.17
   3  -9  14    8.74    2.58
   3  -9  13   -0.65    1.92
   3  -9  12    4.15    2.18
   3  -9  11    5.82    2.17
   3  -9  10   -1.19    1.26
   3  -9  10    4.33    2.06
  -3   9 -10    1.18    1.19
   3  -9   9    0.80    1.23
   3  -9   9    0.84    1.88
  -3   9  -9    0.14    1.25
   3  -9   8   34.53    3.56
   3  -9   8   34.22    2.47
  -3   9  -8   32.99    2.64
   3  -9   7    7.43    1.34
   3  -9   7    7.44    1.98
  -3   9  -7    8.71    1.55
   3  -9   6  121.85    6.47
   3  -9   6  125.10    5.64
  -3   9  -6  123.58    5.93
   3  -9   5   35.91    3.04
   3  -9   5   37.24    2.14
  -3   9  -5   32.97    2.45
   3  -9   4    3.15    1.42
   3  -9   4    4.88    0.88
  -3   9  -4    2.84    1.12
   3  -9   3    2.65    1.38
   3  -9   3    2.68    0.79
  -3   9  -3    1.07    1.06
   3  -9   2    4.60    0.83
   3  -9   2    5.13    1.52
  -3   9  -2    6.58    1.44
   3  -9   1    7.65    1.72
   3  -9   1    6.06    0.91
  -3   9  -1    5.43    1.39
   3  -9   0  228.89   10.57
  -3   9   0  224.28    9.95
   3  -9  -1    7.13    1.74
  -3   9   1    6.42    1.43
  -3   9   2    6.92    1.49
  -3   9   3    4.63    1.43
  -3   9   4    3.04    1.38
  -3   9   5   32.50    2.80
  -3   9   6  130.06    6.46
  -3   9   7    7.54    1.94
  -3   9   8   30.36    3.00
  -3   9   9   -1.22    2.02
  -3   9  10    0.37    1.73
  -3   9  11    2.94    1.88
  -3   9  12    0.57    2.20
  -3   9  13   -2.44    1.83
  -3   9  14    6.64    2.71
  -3   9  15   -1.54    2.37
   3 -10  14   -1.18    2.03
   3 -10  13    6.62    2.58
   3 -10  12    4.52    2.29
   3 -10  11    2.69    2.08
   3 -10  10    2.55    2.03
  -3  10 -10    4.00    1.54
   3 -10   9    0.32    1.87
  -3  10  -9    1.82    1.50
   3 -10   8   12.53    1.57
   3 -10   8   14.19    2.47
  -3  10  -8   10.43    1.78
   3 -10   7   62.83    4.47
   3 -10   7   71.59    3.57
  -3  10  -7   69.84    4.08
   3 -10   6    5.07    1.88
   3 -10   6    4.88    1.08
  -3  10  -6    2.26    1.41
   3 -10   5   36.72    3.12
   3 -10   5   37.73    2.15
   3 -10   4    4.54    0.84
   3 -10   4    5.82    1.69
  -3  10  -4    3.84    1.32
   3 -10   3   62.69    3.95
   3 -10   3   61.20    3.08
  -3  10  -3   70.10    3.85
   3 -10   2   21.91    1.55
   3 -10   2   26.72    2.67
  -3  10  -2   21.24    2.22
   3 -10   1   69.77    4.43
  -3  10  -1   75.70    4.14
   3 -10   0  114.43    6.08
  -3  10   0  109.38    5.58
   3 -10  -1   78.25    4.66
  -3  10   1   72.43    4.18
  -3  10   2   21.12    2.24
  -3  10   3   66.07    3.92
  -3  10   4    7.60    1.76
  -3  10   5   39.31    3.24
  -3  10   6    2.34    1.72
  -3  10   7   66.30    4.33
  -3  10   8   16.38    2.51
  -3  10   9    4.67    2.38
  -3  10  10    3.60    2.25
  -3  10  11    3.66    2.33
  -3  10  12    3.26    2.11
  -3  10  13    4.52    2.65
  -3  10  14   -0.84    2.01
   3 -11  14    0.21    2.26
   3 -11  13    3.19    2.31
   3 -11  12   -1.10    2.05
   3 -11  11    0.05    1.96
   3 -11  10    6.41    2.32
  -3  11 -10   11.12    1.98
   3 -11   9    8.55    2.38
  -3  11  -9    8.86    1.81
   3 -11   8    5.31    2.19
  -3  11  -8    2.64    1.59
   3 -11   7   11.94    2.46
  -3  11  -7   11.52    2.02
   3 -11   6    4.55    2.03
   3 -11   6    7.90    1.10
  -3  11  -6    0.91    0.59
   3 -11   5    7.31    2.02
   3 -11   5    6.44    0.99
  -3  11  -5    6.50    1.60
   3 -11   4    6.39    1.88
   3 -11   4    6.87    0.96
  -3  11  -4    5.17    1.82
   3 -11   3   32.92    2.01
   3 -11   3   32.54    3.15
  -3  11  -3   38.01    3.11
   3 -11   2    5.43    1.90
  -3  11  -2    5.75    1.62
   3 -11   1   11.23    2.21
  -3  11  -1   12.69    1.95
   3 -11   0   20.51    2.72
  -3  11   0   25.20    2.55
   3 -11  -1   13.21    2.31
  -3  11   1    7.98    1.82
  -3  11   2    7.24    1.82
  -3  11   3   37.22    3.11
  -3  11   4    5.72    1.80
  -3  11   5    5.80    1.95
  -3  11   6    6.75    2.06
  -3  11   7    8.74    2.24
  -3  11   8    2.62    2.03
  -3  11   9    8.92    2.38
  -3  11  10    9.66    2.37
  -3  11  11    2.39    2.10
  -3  11  12   -0.41    2.46
  -3  11  13    1.30    2.25
  -3  11  14    1.43    2.35
   3 -12  13    6.18    2.55
   3 -12  12    0.55    2.10
   3 -12  11   -0.51    2.03
   3 -12  10   11.90    2.72
  -3  12 -10   13.25    2.12
   3 -12   9    1.04    2.03
  -3  12  -9    1.21    1.54
   3 -12   8    1.96    2.47
  -3  12  -8    2.38    1.42
   3 -12   7   20.16    3.01
   3 -12   6   12.36    2.51
  -3  12  -6   14.49    2.39
   3 -12   5   13.69    2.53
  -3  12  -5   18.62    2.36
   3 -12   4   63.02    3.03
   3 -12   4   61.67    4.39
  -3  12  -4   59.17    4.00
   3 -12   3   15.29    2.59
  -3  12  -3   14.30    2.24
   3 -12   2   12.25    2.42
  -3  12  -2    5.48    1.78
   3 -12   1   25.49    2.98
  -3  12  -1   22.93    2.61
   3 -12   0    0.43    1.91
  -3  12   0    0.26    1.59
   3 -12  -1   20.84    2.93
  -3  12   1   19.40    2.52
  -3  12   2    6.10    1.96
  -3  12   3    9.88    2.19
  -3  12   4   63.88    4.27
  -3  12   5   14.09    2.45
  -3  12   6   15.62    2.58
  -3  12   7   19.73    2.88
  -3  12   8    2.29    2.11
  -3  12   9    2.06    2.41
  -3  12  10   15.42    3.06
  -3  12  11   -0.67    2.06
  -3  12  12    0.78    2.16
  -3  12  13    2.79    2.82
   3 -13  13    1.71    2.42
   3 -13  12    1.64    2.39
   3 -13  11    4.70    2.49
   3 -13  10   12.68    2.80
  -3  13 -10    9.56    2.09
   3 -13   9    0.32    2.02
  -3  13  -9    1.89    1.62
   3 -13   8    5.11    2.34
  -3  13  -8    1.72    1.16
   3 -13   7   12.46    2.66
  -3  13  -7   10.89    2.15
   3 -13   6    6.95    2.37
  -3  13  -6    6.06    1.85
   3 -13   5    1.82    2.10
  -3  13  -5   -2.33    1.79
   3 -13   4   11.87    2.63
  -3  13  -4   14.89    2.35
   3 -13   3   10.27    2.56
  -3  13  -3   10.08    2.41
   3 -13   2   72.13    4.91
  -3  13  -2   63.53    4.37
   3 -13   1    0.91    2.09
  -3  13  -1   -0.77    1.68
   3 -13   0    2.44    2.17
  -3  13   0    2.06    1.84
   3 -13  -1    1.10    2.07
  -3  13   1    2.03    1.85
  -3  13   2   66.66    4.47
  -3  13   3   12.92    2.45
  -3  13   4   12.32    2.44
  -3  13   5    0.30    1.90
  -3  13   6    6.07    2.20
  -3  13   7   11.94    2.58
  -3  13   8    4.18    2.18
  -3  13   9    1.48    2.10
  -3  13  10    6.90    2.47
  -3  13  11    2.92    2.31
  -3  13  12    6.14    2.55
  -3  13  13   -0.15    2.33
   3 -14  12    1.21    2.46
   3 -14  11    1.36    2.44
   3 -14  10    0.22    2.24
  -3  14 -10    1.37    1.63
   3 -14   9    6.03    2.49
  -3  14  -9   10.40    2.15
   3 -14   8    5.78    2.43
  -3  14  -8    6.62    1.81
   3 -14   7    1.12    2.14
  -3  14  -7    4.81    2.04
   3 -14   6    2.39    2.30
  -3  14  -6    2.51    1.98
   3 -14   5    9.15    2.68
  -3  14  -5   11.41    2.62
   3 -14   4    0.56    2.30
  -3  14  -4    0.10    1.78
   3 -14   3   17.09    3.05
  -3  14  -3   17.98    2.70
   3 -14   2   -1.09    2.04
  -3  14  -2   -0.61    1.80
   3 -14   1    0.61    2.18
  -3  14  -1    3.79    2.08
   3 -14   0   46.65    4.45
  -3  14   0   38.33    3.72
  -3  14   1    4.90    2.14
  -3  14   2    1.19    2.04
  -3  14   3   12.58    2.59
  -3  14   4   -0.03    2.05
  -3  14   5   11.28    2.61
  -3  14   6    5.60    2.29
  -3  14   7    1.89    2.06
  -3  14   8    7.78    2.40
  -3  14   9    7.57    2.49
  -3  14  10    1.43    2.60
  -3  14  11    7.15    2.64
  -3  14  12    0.94    2.85
   3 -15  12    0.21    2.58
   3 -15  11   -0.63    2.34
   3 -15  10    1.28    2.45
  -3  15 -10    5.07    2.03
   3 -15   9   -0.02    2.69
  -3  15  -9    1.44    0.60
   3 -15   8   -0.64    2.57
  -3  15  -8    2.74    1.97
   3 -15   7    2.78    2.29
  -3  15  -7   -2.17    1.73
   3 -15   6    3.40    2.40
  -3  15  -6    8.80    2.11
   3 -15   5    5.41    2.58
  -3  15  -5    2.90    1.94
   3 -15   4   10.81    2.94
  -3  15  -4   14.71    2.92
   3 -15   3    3.33    2.46
  -3  15  -3    1.87    1.99
   3 -15   2    5.10    2.47
  -3  15  -2    5.51    2.53
   3 -15   1    1.86    2.43
  -3  15  -1    3.57    2.12
   3 -15   0    2.79    2.85
  -3  15   0    1.39    2.11
  -3  15   1    2.34    2.11
  -3  15   2    0.92    2.11
  -3  15   3    0.09    2.05
  -3  15   4   20.40    3.37
  -3  15   5    6.93    2.44
  -3  15   6    4.83    2.29
  -3  15   7    3.05    2.22
  -3  15   8    0.33    2.16
  -3  15   9    0.47    2.55
  -3  15  10    1.71    2.38
  -3  15  11   -1.19    2.57
  -3  15  12    4.52    2.66
   3 -16  11   -2.38    2.43
   3 -16  10    0.74    2.49
  -3  16 -10    2.47    1.57
   3 -16   9   -2.08    2.70
  -3  16  -9    1.07    1.95
   3 -16   8    5.32    3.19
  -3  16  -8    5.67    2.39
   3 -16   7   -1.48    2.24
  -3  16  -7   -0.02    1.94
   3 -16   6    0.06    2.34
  -3  16  -6    1.46    1.75
   3 -16   5    0.66    2.34
  -3  16  -5    2.86    1.88
   3 -16   4   -0.81    2.21
  -3  16  -4   -2.52    1.65
   3 -16   3    5.61    2.62
  -3  16  -3    9.28    2.45
   3 -16   2    4.48    2.53
  -3  16  -2    1.66    2.00
   3 -16   1    1.59    2.40
  -3  16  -1   -1.79    2.33
   3 -16   0    5.77    2.97
  -3  16   0    5.44    2.70
  -3  16   1   -1.65    2.04
  -3  16   2   -0.21    2.10
  -3  16   3    6.27    2.39
  -3  16   4   -1.29    1.90
  -3  16   5    1.29    2.17
  -3  16   6    2.08    2.23
  -3  16   7    2.60    2.30
  -3  16   8    2.09    2.36
  -3  16   9    1.15    2.32
  -3  16  10    4.08    2.55
  -3  16  11   -4.00    2.12
   3 -17  10    1.49    2.72
  -3  17 -10    2.41    1.30
   3 -17   9    0.87    2.62
  -3  17  -9    2.83    2.17
   3 -17   8    4.05    2.85
  -3  17  -8    0.89    1.79
   3 -17   7    7.86    2.94
  -3  17  -7    6.68    2.52
   3 -17   6    4.26    2.70
  -3  17  -6    2.07    2.25
   3 -17   5    0.53    2.35
  -3  17  -5    2.54    2.30
   3 -17   4    5.73    2.62
  -3  17  -4   -1.34    1.89
   3 -17   3    1.06    2.30
  -3  17  -3    3.89    2.17
   3 -17   2    7.45    2.91
  -3  17  -2   14.04    2.76
   3 -17   1    3.71    2.46
  -3  17  -1    4.84    2.24
   3 -17   0   -1.92    2.16
  -3  17   0   -0.12    2.11
  -3  17   1    1.38    2.07
  -3  17   2   11.44    2.86
  -3  17   3    4.39    2.76
  -3  17   4    4.30    2.39
  -3  17   5    2.05    2.29
  -3  17   6    3.21    2.44
  -3  17   7    8.44    2.76
  -3  17   8   -1.41    2.23
  -3  17   9   -0.91    2.27
  -3  17  10    1.08    2.50
   3 -18   9   -0.74    2.68
  -3  18  -9    0.41    2.09
   3 -18   8   -1.05    2.55
  -3  18  -8    0.39    2.13
   3 -18   7   -1.64    2.48
  -3  18  -7    1.04    1.93
   3 -18   6    0.62    2.47
  -3  18  -6    0.39    1.86
   3 -18   5    4.46    2.83
  -3  18  -5    2.90    2.15
   3 -18   4    9.62    2.93
  -3  18  -4    5.85    2.47
   3 -18   3    1.90    2.44
  -3  18  -3   -1.88    2.31
   3 -18   2    0.03    2.42
  -3  18  -2   -0.96    1.98
   3 -18   1    4.18    2.53
  -3  18  -1    2.91    2.23
  -3  18   0    2.36    2.23
  -3  18   1    0.80    2.30
  -3  18   2    1.61    2.55
  -3  18   3   -0.67    2.13
  -3  18   4    7.19    2.65
  -3  18   5    3.85    2.46
  -3  18   6   -1.14    2.27
  -3  18   7   -2.16    2.21
  -3  18   8    0.61    2.40
  -3  18   9    2.98    2.77
   3 -19   8    0.95    2.95
  -3  19  -8   -1.53    2.13
   3 -19   7   -3.12    2.53
  -3  19  -7   -0.13    2.32
   3 -19   6    0.70    2.76
  -3  19  -6   -1.72    1.80
   3 -19   5    0.25    2.46
  -3  19  -5   -1.84    1.89
   3 -19   4    5.02    2.70
  -3  19  -4   -3.62    1.86
   3 -19   3    7.35    2.97
  -3  19  -3    8.18    2.61
   3 -19   2   -1.41    2.46
  -3  19  -2    2.11    2.26
   3 -19   1    7.96    2.92
  -3  19  -1   -0.09    2.56
  -3  19   0    4.81    2.44
  -3  19   1   -1.23    2.17
  -3  19   2   -2.02    2.13
  -3  19   3    5.40    2.50
  -3  19   4   -2.78    2.04
  -3  19   5    0.98    2.34
  -3  19   6    1.30    2.44
  -3  19   7    2.54    2.44
  -3  19   8    1.35    3.11
   3 -20   6   -2.22    2.88
  -3  20  -6   -1.75    1.93
   3 -20   5    1.82    3.10
  -3  20  -5    0.98    2.27
   3 -20   4   -0.64    2.56
  -3  20  -4   -2.17    2.04
   3 -20   3    2.29    2.77
  -3  20  -3   -1.36    2.20
   3 -20   2    3.68    2.63
  -3  20  -2   -0.41    2.64
  -3  20  -1   -4.40    2.40
  -3  20   0    0.89    2.21
  -3  20   1    0.94    2.31
  -3  20   2   -1.04    2.20
  -3  20   3    2.79    2.42
  -3  20   4   -0.83    2.39
  -3  20   5    2.31    2.56
  -3  20   6    0.51    2.42
   3 -21   4   -0.58    2.62
  -3  21  -4   -0.11    2.18
   3 -21   3   -1.44    2.51
  -3  21  -3   -0.31    2.23
   3 -21   2   -0.89    2.35
  -3  21  -2    0.33    2.31
  -3  21  -1    1.42    2.81
  -3  21   0    6.02    2.66
  -3  21   1   -0.24    2.25
  -3  21   2   -0.56    2.30
  -3  21   3   -2.33    2.27
   4  17   4    1.89    2.34
   4  17   3    3.81    2.41
   4  17   2    1.01    2.34
   4  17   1    0.00    2.26
   4  17   0    3.49    2.42
   4  17  -1    1.98    2.21
   4  17  -2    0.61    2.12
   4  17  -3    0.47    2.19
   4  17  -4   -1.52    2.00
  -4 -17   4    0.90    2.55
  -4 -17   5    1.83    3.26
   4  16   7   -2.17    1.89
   4  16   7    1.41    2.34
   4  16   6   -0.54    2.18
   4  16   5    3.48    2.40
   4  16   4    2.56    2.44
   4  16   3    0.63    2.16
   4  16   2    0.13    2.17
   4  16   1   -0.52    2.08
   4  16   0    1.77    2.22
   4  16  -1   -1.28    2.07
   4  16  -2    2.59    2.20
   4  16  -3    1.19    2.16
   4  16  -4   -0.83    2.01
  -4 -16   4    1.60    2.90
   4  16  -5   -0.02    2.16
  -4 -16   5    1.62    2.64
   4  16  -6    2.10    2.82
  -4 -16   6    0.98    3.22
   4  16  -7    2.25    2.43
  -4 -16   7    0.64    3.29
   4  15   8    3.72    2.45
   4  15   8    2.99    2.34
   4  15   7    5.32    2.71
   4  15   7    1.64    2.28
   4  15   6    2.32    2.26
   4  15   6    0.89    1.21
   4  15   5    1.63    2.30
   4  15   5   -2.94    1.85
   4  15   4   11.59    3.04
   4  15   3    2.68    2.60
   4  15   2    4.29    2.38
   4  15   1    3.35    2.31
   4  15   0    2.90    2.12
   4  15  -1    4.59    2.30
   4  15  -2    7.20    2.36
   4  15  -3    4.46    2.68
  -4 -15   3    6.37    3.20
   4  15  -4   10.79    2.73
  -4 -15   4    7.03    2.88
   4  15  -5    1.16    2.01
  -4 -15   5    3.26    2.66
   4  15  -6   -1.61    2.00
  -4 -15   6    2.48    2.66
   4  15  -7    2.61    2.56
  -4 -15   7   -0.42    2.51
   4  15  -8    2.08    2.37
  -4 -15   8    1.36    3.20
   4  14   9    6.29    3.28
   4  14   9    4.46    2.89
   4  14   8    4.15    2.85
   4  14   8    3.56    2.81
   4  14   7    0.63    2.26
   4  14   7   -0.08    2.09
   4  14   6    7.73    2.57
   4  14   6    6.46    2.29
   4  14   5    8.50    2.50
   4  14   5    5.40    2.00
   4  14   4   -2.36    1.68
   4  14   4   -0.45    1.91
   4  14   3   14.24    2.78
   4  14   2    1.34    2.06
   4  14   1    0.17    1.98
   4  14   0    9.91    2.50
   4  14  -1   -0.19    1.88
   4  14  -2    2.72    2.06
   4  14  -3   16.33    2.88
  -4 -14   3   16.66    3.18
   4  14  -4   -2.75    2.23
  -4 -14   4   -1.33    2.23
   4  14  -5    3.72    2.28
  -4 -14   5    5.16    2.71
   4  14  -6    6.33    2.42
  -4 -14   6    4.14    2.76
   4  14  -7    5.19    2.31
  -4 -14   7    0.63    3.07
   4  14  -8    1.62    2.17
  -4 -14   8   -0.37    2.49
   4  14  -9    8.16    2.68
  -4 -14   9    5.16    3.02
   4  13  10    8.21    3.06
   4  13  10    6.58    2.84
   4  13   9    5.00    2.73
   4  13   9    1.57    2.82
   4  13   8    1.98    2.27
   4  13   8   -1.73    2.44
   4  13   7    9.11    2.85
   4  13   7    6.82    2.46
   4  13   6   -2.01    2.10
   4  13   6    2.46    2.15
   4  13   5    1.15    2.38
   4  13   5   -0.51    0.65
   4  13   4    1.70    1.87
   4  13   4    3.84    2.47
   4  13   3    5.53    2.17
   4  13   3    4.38    1.78
   4  13   2   13.30    2.68
   4  13   1    5.86    2.27
   4  13   0    5.21    2.23
   4  13  -1    6.25    2.24
   4  13  -2   10.40    2.43
  -4 -13   2   15.00    3.33
   4  13  -3    2.54    2.05
  -4 -13   3    3.86    2.41
   4  13  -4    2.33    2.03
  -4 -13   4    2.71    2.77
   4  13  -5   -1.18    1.82
  -4 -13   5    0.39    2.21
   4  13  -6   -0.17    1.90
  -4 -13   6   -3.85    2.61
   4  13  -7    1.19    1.97
  -4 -13   7    9.35    2.87
   4  13  -8    2.97    2.47
  -4 -13   8    0.19    3.03
   4  13  -9    4.18    2.12
  -4 -13   9    0.14    2.53
   4  13 -10   10.49    2.88
  -4 -13  10    3.25    2.86
   4  12  11    3.41    2.69
   4  12  11    2.30    2.29
   4  12  10    1.98    2.47
   4  12  10    4.59    2.29
   4  12   9    6.98    2.45
   4  12   9    3.15    2.38
   4  12   8    1.19    2.56
   4  12   8    3.25    2.25
   4  12   7   -0.74    1.98
   4  12   7    0.26    1.95
   4  12   6    1.44    2.03
   4  12   6   -2.23    2.14
   4  12   5    4.48    2.15
   4  12   5    1.89    2.01
   4  12   4    2.35    1.99
   4  12   4    0.40    1.49
   4  12   3    6.49    2.30
   4  12   3    9.24    2.02
   4  12   2    6.40    2.27
   4  12   2    6.57    1.80
   4  12   1    0.02    1.93
   4  12   1    0.77    1.38
   4  12   0   -0.38    1.95
   4  12  -1    3.23    2.01
   4  12  -2    1.36    1.94
  -4 -12   2    3.33    2.36
   4  12  -3   11.42    2.49
  -4 -12   3    6.00    2.62
   4  12  -4   -0.02    1.88
  -4 -12   4   -4.50    2.39
   4  12  -5    3.54    2.04
  -4 -12   5    5.28    2.42
   4  12  -6   -0.58    1.77
  -4 -12   6    3.00    2.35
   4  12  -7    1.50    2.22
  -4 -12   7   -0.99    2.16
   4  12  -8   -0.75    1.74
  -4 -12   8    4.02    3.05
   4  12  -9    5.14    2.15
  -4 -12   9    2.47    2.59
   4  12 -10    2.18    2.27
  -4 -12  10    3.68    2.71
   4  12 -11    4.47    2.40
  -4 -12  11    5.61    3.24
   4  11  12    7.30    3.45
   4  11  11    4.98    2.62
   4  11  11    2.99    2.61
   4  11  10    5.05    2.61
   4  11  10    0.32    2.43
   4  11   9   -3.40    2.01
   4  11   9    1.03    2.41
   4  11   8    9.43    2.55
   4  11   8    5.55    2.59
   4  11   7    0.13    2.25
   4  11   7    4.51    2.14
   4  11   6    0.61    1.93
   4  11   6    3.02    1.98
   4  11   5   -0.95    1.77
   4  11   5   -1.03    1.96
   4  11   4   34.52    3.48
   4  11   3    9.74    1.86
   4  11   3    8.60    2.35
   4  11   2    2.40    2.24
   4  11   2    0.92    1.43
   4  11   1    2.82    1.35
   4  11   1    4.51    2.06
   4  11   0   28.30    3.22
   4  11   0   25.88    2.24
   4  11  -1    5.45    2.15
   4  11  -2    1.65    1.96
  -4 -11   2    0.89    2.18
   4  11  -3   10.99    2.41
  -4 -11   3    8.51    2.64
   4  11  -4   42.18    3.93
  -4 -11   4   39.51    4.36
   4  11  -5   -2.49    1.73
  -4 -11   5    3.62    2.36
   4  11  -6    0.67    2.03
  -4 -11   6    1.53    2.62
   4  11  -7    4.04    2.02
  -4 -11   7   -0.78    2.13
   4  11  -8    9.95    2.35
  -4 -11   8    5.06    2.59
   4  11  -9    6.70    2.12
  -4 -11   9    2.98    2.50
   4  11 -10    4.31    2.09
  -4 -11  10    3.86    2.49
   4  11 -11    1.14    1.85
  -4 -11  11    3.78    2.90
   4  11 -12    3.39    1.96
  -4 -11  12    2.83    2.95
   4  10  12   -3.63    2.19
   4  10  11    4.95    2.62
   4  10  11   -1.39    2.23
   4  10  10    8.48    2.76
   4  10  10   11.91    2.98
   4  10   9   15.23    2.89
   4  10   9   11.30    2.82
   4  10   8   -2.27    1.68
   4  10   8   -1.61    1.88
   4  10   7    8.66    2.24
   4  10   7    8.31    2.35
   4  10   6   -0.95    1.86
   4  10   6    5.39    2.09
   4  10   5   21.27    2.84
   4  10   5   16.73    2.58
   4  10   4   36.07    3.37
   4  10   4   24.16    2.80
   4  10   3   26.15    2.74
   4  10   3   29.56    3.06
   4  10   2   13.63    2.42
   4  10   2    9.74    1.79
   4  10   1   37.86    3.66
   4  10   1   38.96    2.81
   4  10   0    0.64    1.73
   4  10   0   -0.68    1.21
   4  10  -1   35.38    3.45
   4  10  -1   38.86    2.45
   4  10  -2   11.51    2.35
  -4 -10   2   12.14    2.68
   4  10  -3   20.85    2.81
  -4 -10   3   29.20    3.43
   4  10  -4   34.42    3.49
  -4 -10   4   34.83    3.65
   4  10  -5   19.59    2.92
  -4 -10   5   19.38    3.10
   4  10  -6    0.39    2.12
  -4 -10   6    0.87    2.19
   4  10  -7   10.02    2.34
  -4 -10   7    9.98    3.00
   4  10  -8    2.34    1.69
  -4 -10   8    0.71    2.15
   4  10  -9   16.54    2.60
  -4 -10   9   11.13    2.72
   4  10 -10    8.25    2.25
  -4 -10  10   11.55    2.78
   4  10 -11    3.96    2.25
  -4 -10  11    3.41    2.42
   4  10 -12    1.62    2.04
  -4 -10  12    0.25    2.72
   4   9  13   -1.48    2.38
   4   9  12    4.85    2.74
   4   9  11    6.26    2.75
   4   9  11    5.35    2.38
   4   9  10    2.25    2.30
   4   9  10   -0.86    2.10
   4   9   9   16.39    3.01
   4   9   9   21.02    3.06
   4   9   8    3.41    2.18
   4   9   8    2.09    2.21
   4   9   7   -2.99    1.81
   4   9   7    1.56    1.88
   4   9   6   46.62    3.83
   4   9   6   48.10    3.74
   4   9   5   27.40    3.09
   4   9   5   18.19    2.81
   4   9   4    7.51    1.82
   4   9   4    7.21    2.10
   4   9   3   61.04    3.80
   4   9   3   67.94    4.19
   4   9   2   36.79    3.19
   4   9   2   30.88    2.42
   4   9   1   10.89    2.16
   4   9   1   14.79    1.80
   4   9   0    1.82    1.09
   4   9   0    1.50    1.58
   4   9  -1   15.33    2.30
   4   9  -1   15.71    1.54
  -4  -9   1   18.86    2.70
   4   9  -2   23.98    1.74
   4   9  -2   33.73    3.05
  -4  -9   2   41.40    3.65
   4   9  -3   79.55    4.76
  -4  -9   3   72.98    5.01
   4   9  -4    8.38    2.11
  -4  -9   4    9.87    2.42
   4   9  -5   18.26    2.68
  -4  -9   5   21.32    3.26
   4   9  -6   47.16    3.97
  -4  -9   6   43.92    4.35
   4   9  -7    2.63    1.82
  -4  -9   7    3.79    2.54
   4   9  -8    1.98    1.71
  -4  -9   8    0.18    2.29
   4   9  -9   21.17    2.97
  -4  -9   9   19.51    3.25
   4   9 -10    1.25    1.70
  -4  -9  10    3.03    2.17
   4   9 -11    7.82    2.13
  -4  -9  11    8.43    2.60
   4   9 -12    0.44    1.65
  -4  -9  12    1.05    2.23
   4   9 -13    1.62    2.08
  -4  -9  13   -1.44    2.18
   4   8  14    0.67    2.59
   4   8  13    5.75    2.83
   4   8  12   -1.73    2.21
   4   8  11    3.28    2.40
   4   8  11    1.65    2.17
   4   8  10    9.05    2.44
   4   8  10   12.27    2.79
   4   8   9   18.80    2.77
   4   8   9   13.04    2.85
   4   8   8    7.14    2.38
   4   8   8    5.80    2.30
   4   8   7   32.99    3.49
   4   8   7   35.33    3.26
   4   8   6    6.43    2.09
   4   8   6    7.20    2.22
   4   8   5    9.46    2.03
   4   8   5   10.35    2.07
   4   8   4   31.16    2.84
   4   8   4   32.10    2.99
   4   8   3   19.25    2.38
   4   8   2   36.04    3.12
   4   8   2   28.91    2.43
   4   8   1   47.21    2.83
   4   8   1   46.47    3.33
   4   8   0    0.01    1.41
   4   8   0    0.33    0.93
   4   8  -1   46.47    2.65
   4   8  -1   46.13    3.35
  -4  -8   1   53.67    3.81
   4   8  -2   25.05    1.71
   4   8  -2   32.10    2.81
  -4  -8   2   35.50    3.43
   4   8  -3   18.73    2.43
  -4  -8   3   22.52    2.73
   4   8  -4   27.62    2.88
  -4  -8   4   29.26    3.10
   4   8  -5    6.39    1.94
  -4  -8   5    8.51    2.20
   4   8  -6    9.42    1.99
  -4  -8   6    6.80    2.16
   4   8  -7   35.90    3.47
  -4  -8   7   26.69    3.16
   4   8  -8    6.22    1.96
  -4  -8   8    5.08    2.39
   4   8  -9   10.73    2.19
  -4  -8   9   12.74    2.81
   4   8 -10    6.67    1.96
  -4  -8  10    8.73    2.39
   4   8 -11    2.68    2.00
  -4  -8  11    1.25    2.10
   4   8 -12    1.90    1.93
  -4  -8  12    4.82    2.66
   4   8 -13    3.72    2.18
  -4  -8  13    1.75    2.68
   4   8 -14    1.41    2.01
  -4  -8  14   -1.12    2.10
   4   7  14    3.02    2.75
   4   7  13    1.99    2.51
   4   7  12    3.59    2.56
   4   7  11    2.97    2.40
   4   7  11    1.80    2.02
   4   7  10   22.50    2.84
   4   7  10   14.25    3.02
   4   7   9    0.04    2.04
   4   7   9    1.96    1.99
   4   7   8   23.07    2.80
   4   7   8   18.74    2.93
   4   7   7    4.16    2.01
   4   7   7    4.42    2.03
   4   7   6   18.13    2.55
   4   7   6   17.05    2.30
   4   7   5    2.42    1.53
   4   7   5    1.03    1.54
   4   7   4    4.81    1.82
   4   7   4    9.32    1.72
   4   7   3    5.50    1.54
   4   7   3    3.06    1.21
   4   7   2   13.13    1.69
   4   7   2   15.51    2.00
   4   7   1   12.29    1.49
   4   7   1   11.65    1.79
   4   7   0  180.83    7.86
   4   7   0  174.70    8.24
   4   7  -1   11.23    1.26
   4   7  -1   11.48    1.86
  -4  -7   1    9.46    1.93
   4   7  -2   13.16    1.90
   4   7  -2   14.40    1.19
  -4  -7   2   16.34    2.28
   4   7  -3    5.18    1.55
  -4  -7   3    3.73    1.95
   4   7  -4    7.08    1.77
  -4  -7   4    4.23    1.76
   4   7  -5    3.30    1.56
  -4  -7   5    2.79    1.77
   4   7  -6   19.94    2.48
  -4  -7   6   16.73    2.43
   4   7  -7    4.71    1.75
  -4  -7   7    8.01    2.32
   4   7  -8   20.57    2.64
  -4  -7   8   23.34    2.84
   4   7  -9   -0.25    1.80
  -4  -7   9    2.16    1.97
   4   7 -10   20.86    2.71
  -4  -7  10   22.83    2.98
   4   7 -11   -0.17    1.69
  -4  -7  11   -2.77    1.67
   4   7 -12    6.17    2.22
  -4  -7  12    8.49    2.62
   4   7 -13   -0.99    1.76
  -4  -7  13   -0.41    2.29
   4   7 -14    3.32    2.08
  -4  -7  14    2.51    2.54
   4   6  14    4.55    2.76
   4   6  13    7.09    2.85
   4   6  12   -1.15    2.18
   4   6  11    4.99    1.97
   4   6  11    0.87    2.17
   4   6  10   -1.35    2.02
   4   6  10    0.05    1.93
   4   6   9    9.84    2.24
   4   6   9    9.16    2.54
   4   6   8   17.08    2.43
   4   6   8   16.91    2.77
   4   6   7  102.68    5.59
   4   6   7   94.56    5.30
   4   6   6   47.50    3.48
   4   6   6   48.36    3.57
   4   6   5   58.65    3.87
   4   6   5   52.58    3.40
   4   6   4    0.27    1.23
   4   6   4    1.63    1.25
   4   6   3   26.11    2.37
   4   6   3   29.03    2.46
   4   6   2    5.80    1.20
   4   6   2    9.06    1.56
   4   6   1  132.69    6.31
   4   6   1  132.29    6.08
   4   6   0   65.23    3.21
   4   6   0   60.59    3.65
   4   6  -1  131.40    5.99
   4   6  -1  138.94    6.50
  -4  -6   1  139.29    6.85
   4   6  -2   11.55    1.75
   4   6  -2   12.78    1.11
  -4  -6   2   11.69    1.88
   4   6  -3   23.21    2.31
   4   6  -3   22.37    1.17
  -4  -6   3   26.50    2.64
   4   6  -4    0.68    1.27
  -4  -6   4    2.07    1.68
   4   6  -5   57.39    3.56
  -4  -6   5   53.10    3.58
   4   6  -6   45.57    3.19
  -4  -6   6   42.74    2.04
  -4  -6   6   45.58    3.50
   4   6  -7  104.32    5.54
  -4  -6   7  100.84    5.81
   4   6  -8   19.53    2.63
  -4  -6   8   17.98    2.52
   4   6  -9    5.41    1.84
  -4  -6   9   10.50    2.20
   4   6 -10   -0.13    1.38
  -4  -6  10   -0.89    1.54
   4   6 -11   -0.55    1.40
  -4  -6  11   -2.23    1.50
   4   6 -12    0.69    1.52
  -4  -6  12    5.19    2.01
   4   6 -13    7.99    2.06
  -4  -6  13    8.18    2.63
   4   6 -14    0.83    1.85
  -4  -6  14    4.75    2.54
   4   5  15    2.10    2.85
   4   5  14    3.35    2.61
   4   5  13   14.47    3.21
   4   5  12    3.81    2.39
   4   5  11    0.43    2.10
   4   5  11    2.34    1.92
   4   5  10    4.48    1.88
   4   5  10    4.00    2.30
   4   5   9   12.70    2.61
   4   5   9   14.22    2.22
   4   5   8    9.94    1.96
   4   5   8   13.28    2.50
   4   5   7  145.94    7.45
   4   5   7  142.01    6.86
   4   5   6   73.08    4.16
   4   5   6   78.85    4.60
   4   5   5   56.24    3.52
   4   5   5   62.97    3.77
   4   5   4   16.98    1.97
   4   5   4   21.57    1.98
   4   5   3   25.50    2.19
   4   5   3   25.87    2.21
   4   5   2   37.19    2.49
   4   5   1  185.31    7.97
   4   5   1  174.51    8.01
   4   5   0   57.20    3.25
   4   5   0   56.37    2.93
   4   5  -1  174.88    7.80
   4   5  -1  183.50    8.13
  -4  -5   1  189.06    8.64
   4   5  -2   36.74    2.49
   4   5  -2   32.41    1.85
  -4  -5   2   31.73    2.55
   4   5  -3   25.01    1.33
   4   5  -3   24.72    2.31
  -4  -5   3   24.74    2.46
   4   5  -4   16.99    2.00
  -4  -5   4   21.13    2.10
   4   5  -5   61.23    3.68
  -4  -5   5   54.97    3.48
   4   5  -6   73.76    4.20
  -4  -5   6   75.66    4.30
   4   5  -7  133.06    6.84
  -4  -5   7  148.92    7.24
   4   5  -8   11.23    1.96
  -4  -5   8   11.27    1.99
   4   5  -9   10.62    2.20
  -4  -5   9   13.31    2.37
   4   5 -10    2.19    1.53
  -4  -5  10   -0.83    1.85
   4   5 -11   -1.08    1.60
  -4  -5  11   -0.06    1.56
   4   5 -12   -0.56    1.65
  -4  -5  12    1.53    1.83
   4   5 -13   10.16    2.18
  -4  -5  13   10.45    2.44
   4   5 -14    4.87    2.10
  -4  -5  14    8.69    2.73
   4   5 -15    1.40    1.45
  -4  -5  15    1.62    2.46
   4   4  15   -0.60    2.51
   4   4  14   12.19    3.20
   4   4  13    0.53    2.23
   4   4  12    7.58    2.60
   4   4  11    0.02    1.67
   4   4  11   -0.79    2.04
   4   4  10   -0.49    1.58
   4   4  10    3.16    1.73
   4   4   9    1.76    1.59
   4   4   9   -1.02    1.39
   4   4   8   73.25    4.00
   4   4   8   63.67    4.53
   4   4   7   23.02    2.73
   4   4   7   25.86    2.30
   4   4   6   69.17    4.17
   4   4   6   67.85    3.74
   4   4   5   31.03    2.71
   4   4   5   30.00    2.34
   4   4   4   64.63    3.45
   4   4   4   66.83    3.74
   4   4   3    4.32    1.17
   4   4   3    3.40    1.22
   4   4   2    9.94    1.32
   4   4   2   10.80    1.26
   4   4   1   -0.02    1.00
   4   4   1    1.44    0.86
   4   4   0  619.13   25.59
   4   4   0  621.65   25.31
   4   4  -1    0.03    0.65
   4   4  -1    0.32    0.90
  -4  -4   1    1.74    1.08
   4   4  -2   10.84    1.00
   4   4  -2   12.00    1.47
  -4  -4   2   12.75    1.73
   4   4  -3    3.73    1.16
   4   4  -3    4.91    0.65
  -4  -4   3    3.45    1.17
   4   4  -4   65.21    3.68
  -4  -4   4   68.51    3.77
   4   4  -5   27.15    2.38
  -4  -4   5   30.64    2.53
   4   4  -6   71.49    3.95
  -4  -4   6   68.96    3.93
   4   4  -7   28.32    2.70
  -4  -4   7   27.38    2.63
   4   4  -8   64.96    4.10
  -4  -4   8   67.09    4.22
   4   4  -9    2.83    1.49
  -4  -4   9    1.23    1.57
   4   4 -10    1.74    1.73
  -4  -4  10   -0.81    1.84
   4   4 -11    1.23    1.68
  -4  -4  11   -0.85    1.83
   4   4 -12    7.67    1.86
  -4  -4  12    5.88    1.94
   4   4 -13   -0.09    1.61
  -4  -4  13   -2.05    1.95
   4   4 -14    9.87    2.19
  -4  -4  14   12.78    2.80
   4   4 -15   -0.19    0.73
  -4  -4  15    1.50    2.28
   4   3  15    2.85    2.63
   4   3  14   -1.55    2.23
   4   3  13   16.00    3.24
   4   3  12    0.46    2.10
   4   3  11    3.05    1.74
   4   3  11    6.59    2.40
   4   3  10   10.15    1.94
   4   3  10    6.06    2.38
   4   3   9    6.03    1.63
   4   3   9    1.43    1.92
   4   3   8    8.48    2.12
   4   3   8    6.51    1.56
   4   3   7   28.49    2.35
   4   3   7   30.50    2.96
   4   3   6   15.08    1.63
   4   3   6   13.28    1.98
   4   3   5   69.29    4.11
   4   3   5   77.89    3.75
   4   3   4    3.62    1.24
   4   3   4    2.98    0.91
   4   3   3   34.13    2.17
   4   3   3   33.37    2.24
   4   3   2    4.91    1.03
   4   3   2    7.44    1.24
   4   3   1  155.45    6.82
   4   3   0   39.79    2.34
   4   3   0   38.19    2.17
   4   3  -1  175.97    7.35
   4   3  -1  167.36    7.47
  -4  -3   1  167.54    7.82
   4   3  -2    8.23    1.28
   4   3  -2    8.17    0.91
  -4  -3   2    6.31    1.32
   4   3  -3   39.21    1.92
   4   3  -3   38.71    2.39
  -4  -3   3   34.13    2.41
   4   3  -4    1.48    0.97
  -4  -3   4    3.68    1.14
   4   3  -5   64.87    3.68
  -4  -3   5   72.20    3.70
   4   3  -6   15.78    1.80
  -4  -3   6   12.39    1.70
   4   3  -7   30.61    2.62
  -4  -3   7   31.72    2.59
   4   3  -8    3.56    1.41
  -4  -3   8    5.90    1.52
   4   3  -9    3.39    1.47
  -4  -3   9    3.02    1.51
   4   3 -10    9.19    1.87
  -4  -3  10    8.52    1.92
   4   3 -11    4.63    1.65
  -4  -3  11    6.09    2.09
   4   3 -12   -1.27    1.51
  -4  -3  12    1.55    1.93
  -4  -3  12    1.32    1.49
   4   3 -13    9.62    2.21
  -4  -3  13    8.05    2.41
   4   3 -14    0.14    1.70
  -4  -3  14    3.81    2.03
   4   3 -15   -0.40    0.60
  -4  -3  15   -0.40    2.15
   4   2  15    3.91    2.63
   4   2  14    2.04    2.51
   4   2  13   -1.81    2.18
   4   2  12    1.73    2.17
   4   2  11   21.91    3.23
   4   2  10   16.55    2.02
   4   2  10   12.06    2.69
   4   2   9   21.80    2.13
   4   2   9   24.74    2.74
   4   2   8    3.22    1.74
   4   2   8    2.11    1.22
   4   2   7    8.82    1.61
   4   2   7    6.45    1.30
   4   2   6  134.20    6.85
   4   2   6  145.46    6.26
   4   2   5   11.53    1.71
   4   2   5   12.21    1.37
   4   2   4   14.35    1.34
   4   2   4   14.37    1.66
   4   2   3  207.58    9.39
   4   2   3  221.51    9.04
   4   2   2  242.36   10.32
   4   2   2  237.11   10.01
   4   2   1    9.62    1.23
   4   2   1    9.21    1.10
   4   2   0   -0.77    0.76
   4   2   0   -0.96    0.79
   4   2  -1    8.85    1.23
   4   2  -1   11.64    1.10
  -4  -2   1    9.82    1.33
   4   2  -2  264.67   11.05
   4   2  -2  275.91   11.02
  -4  -2   2  246.74   11.42
   4   2  -3  218.98    9.06
   4   2  -3  209.93    9.20
  -4  -2   3  214.65    9.44
   4   2  -4   14.67    1.53
  -4  -2   4   13.97    1.44
   4   2  -5   18.31    1.74
  -4  -2   5   12.70    1.51
   4   2  -6  143.42    6.59
  -4  -2   6  140.67    6.67
   4   2  -7    9.03    1.48
  -4  -2   7    7.13    1.34
   4   2  -8   -0.25    1.36
  -4  -2   8    3.56    1.32
   4   2  -9   22.91    2.49
  -4  -2   9   19.89    2.27
   4   2 -10   18.17    2.25
  -4  -2  10   13.14    2.11
   4   2 -11   18.12    2.33
  -4  -2  11   17.44    2.41
   4   2 -12   -1.34    1.26
  -4  -2  12   -1.32    1.38
   4   2 -13   -0.61    1.25
  -4  -2  13    0.92    1.84
  -4  -2  13    1.08    1.66
   4   2 -14    4.02    1.87
  -4  -2  14    4.00    1.85
   4   2 -15   -0.25    0.67
  -4  -2  15    0.28    2.06
   4   1  16    0.67    2.50
   4   1  15    4.73    2.71
   4   1  14   -0.94    2.19
   4   1  13    0.75    2.27
   4   1  12    3.21    2.29
   4   1  11   24.11    3.32
   4   1  10   35.68    3.41
   4   1  10   36.27    2.60
   4   1   9   47.51    3.79
   4   1   9   49.33    2.99
   4   1   8   12.56    2.16
   4   1   8   13.68    1.52
   4   1   7   83.98    4.67
   4   1   7   80.49    3.88
   4   1   6    5.38    0.99
   4   1   6    3.27    1.40
   4   1   5   86.79    4.60
   4   1   5   90.78    4.05
   4   1   4  269.41   11.70
   4   1   4  270.03   11.09
   4   1   3  311.34   12.74
   4   1   3  312.93   13.32
   4   1   2  138.89    5.88
   4   1   2  136.07    6.17
   4   1   1  209.73    8.95
   4   1   1  221.41    9.26
   4   1   0    7.76    1.01
   4   1  -1  210.68    8.73
   4   1  -1  210.06    8.82
  -4  -1   1  201.16    9.00
   4   1  -2  132.92    5.95
   4   1  -2  128.38    5.90
  -4  -1   2  145.24    6.09
   4   1  -3  323.38   13.22
   4   1  -3  334.13   13.27
  -4  -1   3  295.80   13.54
   4   1  -4  297.26   12.01
  -4  -1   4  273.10   12.25
   4   1  -5   84.92    4.30
  -4  -1   5   88.01    4.20
   4   1  -6    5.80    1.24
  -4  -1   6    3.92    1.13
   4   1  -7   79.03    4.17
  -4  -1   7   74.51    4.03
   4   1  -8   14.33    1.81
  -4  -1   8   14.18    1.88
   4   1  -9   44.82    3.08
   4   1 -10   30.39    2.78
   4   1 -11   28.54    2.79
   4   1 -12    3.67    1.73
   4   1 -13    3.49    1.57
  -4  -1  13    5.05    1.85
   4   1 -14    1.25    1.65
  -4  -1  14    1.73    1.68
  -4  -1  14    1.43    2.03
   4   1 -15    0.06    0.71
  -4  -1  15    5.29    2.01
  -4  -1  15    2.57    2.16
  -4  -1  16    1.75    1.95
   4   0  16    7.48    2.87
   4   0  15    1.96    2.38
   4   0  14    0.80    2.31
   4   0  13    3.16    2.35
   4   0  12   54.59    4.48
   4   0  11    8.67    2.52
   4   0  10   16.64    1.80
   4   0  10   13.11    2.58
   4   0   9    4.65    1.98
   4   0   9    4.40    1.24
   4   0   8  188.12    7.90
   4   0   8  178.88    8.82
   4   0   7   50.96    2.60
   4   0   7   49.54    3.37
   4   0   6    0.06    0.73
   4   0   6   -0.65    1.12
   4   0   5   39.82    2.63
   4   0   5   41.10    2.05
   4   0   4  777.82   33.42
   4   0   4  836.60   32.26
   4   0   3    7.72    1.25
   4   0   3    7.91    0.82
   4   0   2   37.12    2.26
   4   0   2   39.34    1.94
   4   0   1  324.49   12.97
   4   0   1  313.72   13.40
   4   0   0    9.66    0.93
   4   0   0    8.62    1.16
   4   0  -1  308.22   12.45
  -4   0   1  298.86   12.81
   4   0  -2   33.70    1.98
   4   0  -2   38.77    2.13
  -4   0   2   38.18    1.94
   4   0  -3    9.06    0.95
   4   0  -3    6.83    1.11
  -4   0   3    8.60    0.89
   4   0  -4  806.09   33.04
  -4   0   4  831.30   34.28
   4   0  -5   41.67    2.49
  -4   0   5   41.94    2.38
   4   0  -6    0.33    0.90
   4   0  -7   51.16    3.06
   4   0  -8  165.74    7.67
   4   0  -9    3.74    1.39
   4   0 -10   18.62    2.23
   4   0 -11    3.65    1.56
   4   0 -12   51.21    3.57
   4   0 -13    3.88    1.59
   4   0 -14   -0.05    1.67
   4   0 -15   -0.85    0.60
  -4   0  15   -0.57    1.72
  -4   0  16    7.51    2.39
   4  -1  16    0.24    2.99
   4  -1  15    0.54    2.25
   4  -1  14   -0.24    2.05
   4  -1  13    5.10    2.33
   4  -1  12   24.40    3.55
   4  -1  11   41.68    3.90
   4  -1  10   21.15    2.80
   4  -1  10   21.30    1.86
   4  -1   9   79.13    3.88
   4  -1   9   82.08    4.86
   4  -1   8   62.76    3.12
   4  -1   8   66.98    4.03
   4  -1   7   23.20    2.27
   4  -1   7   20.43    1.44
   4  -1   6    5.62    0.80
   4  -1   6    5.91    1.40
   4  -1   5  110.87    4.62
   4  -1   5  109.94    5.32
   4  -1   4  168.61    7.05
   4  -1   4  181.24    7.79
   4  -1   3  668.90   27.48
   4  -1   3  659.50   26.41
   4  -1   2  195.12    7.88
   4  -1   2  193.71    8.39
   4  -1   1  136.98    5.64
   4  -1   1  135.69    6.01
   4  -1   0   12.87    1.01
   4  -1   0   13.90    1.19
   4  -1  -1  145.79    6.14
   4  -1  -1  144.40    6.33
   4  -1  -2  192.65    8.21
   4  -1  -2  184.95    8.33
  -4   1   2  206.20    8.24
   4  -1  -3  650.15   26.04
   4  -1  -3  638.27   26.54
   4  -1  -4  163.31    7.12
   4  -1  -5  110.04    5.12
   4  -1  -6    5.63    1.15
   4  -1  -7   19.68    1.93
   4  -1  -8   68.28    3.90
   4  -1  -9   78.73    4.31
   4  -1 -10   21.52    2.48
   4  -1 -11   41.63    3.45
   4  -1 -12   16.49    2.27
   4  -1 -13    1.72    1.77
   4  -1 -14   -1.11    1.63
  -4   1  15    1.54    1.71
  -4   1  15    1.16    1.86
  -4   1  16    0.40    1.95
   4  -2  16   -0.78    2.83
   4  -2  15    1.26    2.38
   4  -2  14    0.66    2.13
   4  -2  13   -1.30    1.87
   4  -2  12    8.89    2.36
   4  -2  11    0.32    1.89
   4  -2  10  147.35    7.67
   4  -2  10  152.32    6.63
   4  -2   9   12.35    1.30
   4  -2   9   12.50    2.12
   4  -2   8   33.35    2.85
   4  -2   8   31.81    1.86
   4  -2   7    0.78    1.15
   4  -2   7    0.26    0.58
   4  -2   6    1.74    0.54
   4  -2   6   -0.61    1.04
   4  -2   5   29.01    2.03
   4  -2   5   25.29    1.24
   4  -2   4    0.40    0.93
   4  -2   3   86.16    4.15
   4  -2   2  313.79   13.42
   4  -2   2  323.38   12.73
   4  -2   1   14.40    1.28
   4  -2   1   14.11    0.88
   4  -2   0   54.12    2.46
   4  -2   0   52.63    2.64
   4  -2  -1   14.52    1.07
   4  -2  -1   14.38    1.23
   4  -2  -2  312.38   13.08
   4  -2  -2  310.09   12.77
   4  -2  -3   86.79    4.14
   4  -2  -3   92.88    4.21
   4  -2  -4    1.44    0.83
   4  -2  -5   25.27    1.82
   4  -2  -6    1.45    0.94
   4  -2  -7   -0.35    1.09
   4  -2  -8   25.55    2.27
   4  -2  -9   11.33    1.77
   4  -2 -10  144.31    7.01
   4  -2 -11    1.50    1.71
   4  -2 -12    8.21    1.88
   4  -2 -13    0.69    1.73
  -4   2  13    1.04    1.85
  -4   2  14    0.10    1.86
  -4   2  15    3.99    2.26
  -4   2  16    0.30    2.29
   4  -3  16    0.05    2.36
   4  -3  15    0.97    2.68
   4  -3  14    1.53    2.18
   4  -3  13    5.10    2.20
   4  -3  12   19.36    2.83
   4  -3  11   39.88    3.70
   4  -3  10   20.11    1.77
   4  -3  10   20.19    2.59
   4  -3   9   81.04    4.90
   4  -3   9   84.52    3.91
   4  -3   8   71.98    4.19
   4  -3   8   73.83    3.37
   4  -3   7   20.71    2.23
   4  -3   7   21.22    1.29
   4  -3   6    6.38    1.30
   4  -3   5  107.15    5.11
   4  -3   4  160.03    7.14
   4  -3   3  633.78   26.21
   4  -3   2  203.24    8.66
  -4   3  -2  199.29    8.10
   4  -3   1  144.35    6.21
  -4   3  -1  138.98    5.82
   4  -3   0   14.35    0.87
   4  -3   0   11.90    0.91
   4  -3   0   12.58    1.04
   4  -3  -1  127.58    5.69
   4  -3  -1  135.74    5.87
   4  -3  -1  137.33    5.67
   4  -3  -2  191.72    8.12
   4  -3  -2  194.74    8.34
   4  -3  -3  711.18   27.41
   4  -3  -3  646.54   28.01
   4  -3  -4  153.44    6.73
   4  -3  -5  102.29    4.80
   4  -3  -6    6.34    1.19
   4  -3  -7   19.20    1.91
   4  -3  -8   64.12    3.67
   4  -3  -9   85.48    4.74
   4  -3 -10   18.97    2.28
   4  -3 -11   37.95    3.08
  -4   3  11   42.27    3.55
  -4   3  12   22.15    2.72
  -4   3  13    4.51    1.93
  -4   3  14   -0.18    1.92
  -4   3  15    5.10    1.99
  -4   3  16    3.61    2.61
   4  -4  16    6.33    3.01
   4  -4  15    1.15    2.58
   4  -4  14    1.75    2.09
   4  -4  13    0.90    2.29
   4  -4  12   46.38    4.23
   4  -4  11    5.46    2.06
   4  -4  10   20.88    2.81
  -4   4 -10   19.92    1.68
   4  -4   9    4.84    1.88
  -4   4  -9    3.54    0.93
   4  -4   8  178.54    8.38
  -4   4  -8  177.11    7.45
   4  -4   7   47.36    2.98
  -4   4  -7   49.27    2.32
   4  -4   6    1.64    1.04
  -4   4  -6   -0.30    0.46
   4  -4   5   42.76    2.55
  -4   4  -5   38.95    1.81
   4  -4   4  828.86   36.01
  -4   4  -4  918.73   34.79
   4  -4   3    7.82    1.13
  -4   4  -3    7.83    0.71
   4  -4   2   36.50    2.15
   4  -4   2   35.76    2.09
  -4   4  -2   37.01    1.82
   4  -4   1  313.59   13.01
  -4   4  -1  305.73   12.54
   4  -4   0    9.33    0.90
   4  -4   0    9.33    1.07
  -4   4   0    7.85    0.84
   4  -4  -1  320.28   13.04
   4  -4  -1  297.83   13.15
  -4   4   1  311.03   12.69
   4  -4  -2   38.67    2.21
  -4   4   2   38.26    2.18
   4  -4  -3    8.14    1.17
   4  -4  -3    5.96    1.07
  -4   4   3    6.62    1.10
   4  -4  -4  771.98   31.20
   4  -4  -5   36.65    2.31
   4  -4  -6    0.69    0.96
   4  -4  -7   53.16    3.19
  -4   4   7   49.83    3.15
  -4   4   8  181.00    8.33
  -4   4   9    4.00    1.57
  -4   4  10   18.49    2.61
  -4   4  11    4.80    2.22
  -4   4  12   57.48    4.15
  -4   4  13    1.71    2.04
  -4   4  14   -1.34    1.99
  -4   4  15   -3.58    2.01
  -4   4  16    4.98    2.42
   4  -5  16   -0.63    2.15
   4  -5  15    3.15    2.60
   4  -5  14    0.29    2.22
   4  -5  13    3.63    2.25
   4  -5  12    5.68    2.00
   4  -5  11   29.98    3.06
   4  -5  10   40.04    3.39
  -4   5 -10   34.31    2.17
   4  -5   9   47.85    3.39
  -4   5  -9   42.58    2.41
   4  -5   8   16.76    1.92
  -4   5  -8   14.66    1.29
   4  -5   7   80.12    4.33
  -4   5  -7   82.70    3.68
   4  -5   6    7.10    1.39
  -4   5  -6    5.88    0.77
   4  -5   5   87.23    4.36
  -4   5  -5   92.54    3.92
   4  -5   4  292.16   12.14
  -4   5  -4  278.84   11.57
   4  -5   3  345.41   14.26
   4  -5   3  321.17   13.85
  -4   5  -3  321.14   13.35
   4  -5   2  128.14    6.12
   4  -5   2  135.19    6.00
  -4   5  -2  141.92    5.79
   4  -5   1  206.47    9.26
   4  -5   1  226.82    9.44
   4  -5   0    7.70    1.07
  -4   5   0    8.84    1.03
   4  -5  -1  202.75    8.93
   4  -5  -1  198.97    8.74
  -4   5   1  205.94    8.53
   4  -5  -2  142.12    6.12
  -4   5   2  130.35    6.00
   4  -5  -3  312.16   13.36
  -4   5   3  314.06   13.06
  -4   5   4  279.33   11.82
  -4   5   5   82.21    4.18
  -4   5   6    4.77    1.30
  -4   5   7   75.75    4.14
  -4   5   8   13.20    1.97
  -4   5   9   47.44    3.60
  -4   5  10   34.50    3.34
  -4   5  11   24.43    2.89
  -4   5  12    5.71    2.33
  -4   5  13    3.19    2.21
  -4   5  14    0.81    1.73
  -4   5  15    5.27    2.52
   4  -6  15   -0.82    2.00
   4  -6  15   -2.95    2.30
   4  -6  14    3.32    2.39
   4  -6  13   -0.29    2.06
   4  -6  12    2.30    2.02
   4  -6  11   21.85    2.86
   4  -6  10   15.43    2.23
  -4   6 -10   16.01    1.57
   4  -6   9   22.97    2.50
  -4   6  -9   20.80    1.73
   4  -6   8    1.98    1.21
  -4   6  -8    2.29    0.85
   4  -6   7    7.56    1.49
  -4   6  -7    7.20    0.97
   4  -6   6  134.28    6.74
   4  -6   6  141.54    6.34
  -4   6  -6  136.02    5.89
   4  -6   5   14.41    1.76
   4  -6   5   17.87    1.66
  -4   6  -5   13.73    1.22
   4  -6   4   16.17    1.42
   4  -6   4   14.33    1.61
  -4   6  -4   14.61    1.25
   4  -6   3  224.47    9.83
   4  -6   3  220.85    9.46
  -4   6  -3  215.87    9.21
   4  -6   2  266.31   11.10
   4  -6   2  240.36   10.70
  -4   6  -2  252.09   10.51
   4  -6   1    8.25    1.04
   4  -6   1    9.01    1.33
   4  -6   0   -0.20    0.88
   4  -6   0   -0.74    0.68
  -4   6   0   -0.72    0.76
   4  -6  -1    9.00    1.14
  -4   6   1   10.34    1.28
   4  -6  -2  239.10   10.63
  -4   6   2  255.98   10.46
  -4   6   3  219.72    9.42
  -4   6   4   14.98    1.61
  -4   6   5   12.94    1.63
  -4   6   6  145.52    6.80
  -4   6   7    7.98    1.59
  -4   6   8    1.06    1.42
  -4   6   9   21.08    2.50
  -4   6  10   15.92    2.39
  -4   6  11   19.79    2.69
  -4   6  12    1.70    1.76
  -4   6  13   -2.24    1.96
  -4   6  14    3.21    2.30
  -4   6  15   -0.13    2.17
   4  -7  15    0.50    2.15
   4  -7  14    2.99    2.33
   4  -7  14    1.13    2.07
   4  -7  13   10.09    2.53
   4  -7  13    7.84    2.10
   4  -7  12   -1.36    1.67
   4  -7  12    0.10    1.88
   4  -7  11    3.95    2.33
   4  -7  11    3.95    1.95
   4  -7  10   10.08    2.15
   4  -7  10    6.05    2.08
  -4   7 -10    9.94    1.40
   4  -7   9    3.76    1.83
   4  -7   9    4.34    1.71
  -4   7  -9    4.09    1.13
   4  -7   8    2.37    1.63
   4  -7   8    5.95    1.57
  -4   7  -8    4.78    1.11
   4  -7   7   27.23    2.18
   4  -7   7   24.07    2.53
  -4   7  -7   24.80    1.74
   4  -7   6   13.15    1.91
   4  -7   6   15.05    1.64
  -4   7  -6   14.67    1.39
   4  -7   5   71.20    3.64
   4  -7   5   70.87    4.02
  -4   7  -5   73.19    3.50
   4  -7   4    2.30    1.06
   4  -7   4    4.91    1.27
  -4   7  -4    4.91    0.96
   4  -7   3   37.37    2.47
   4  -7   3   41.67    2.23
  -4   7  -3   36.23    2.24
   4  -7   2    7.96    1.04
   4  -7   2    8.18    1.29
   4  -7   1  167.15    7.52
   4  -7   1  167.79    7.13
  -4   7  -1  154.57    7.09
   4  -7   0   38.79    2.53
   4  -7   0   35.02    2.11
  -4   7   0   37.00    2.28
   4  -7  -1  147.91    7.51
   4  -7  -1  163.49    7.12
  -4   7   1  169.17    7.11
   4  -7  -2    7.54    1.16
  -4   7   2    7.33    1.27
  -4   7   3   36.83    2.41
  -4   7   4    2.44    1.16
  -4   7   5   68.23    3.72
  -4   7   6   12.57    1.75
  -4   7   7   29.93    2.79
  -4   7   8    4.25    1.60
  -4   7   9    3.82    1.69
  -4   7  10    6.53    2.22
  -4   7  11    3.13    1.82
  -4   7  12    0.31    2.01
  -4   7  13   11.96    2.68
  -4   7  14    1.36    1.96
  -4   7  15    2.52    2.10
   4  -8  15    1.44    2.28
   4  -8  14    8.22    2.45
   4  -8  13    1.26    1.97
   4  -8  12    9.80    2.36
   4  -8  12    7.38    2.12
   4  -8  11    0.34    1.64
   4  -8  11    0.38    1.84
   4  -8  10   -1.71    1.51
   4  -8  10   -0.36    1.80
  -4   8 -10    1.62    1.12
   4  -8   9    1.47    1.73
   4  -8   9    0.64    1.59
  -4   8  -9    2.25    1.06
   4  -8   8   58.95    4.24
   4  -8   8   70.18    3.87
  -4   8  -8   65.24    3.43
   4  -8   7   21.58    2.54
   4  -8   7   25.53    2.20
  -4   8  -7   28.35    1.98
   4  -8   6   67.29    3.71
   4  -8   6   73.09    4.24
  -4   8  -6   72.08    3.58
   4  -8   5   25.55    2.00
   4  -8   5   30.02    2.59
  -4   8  -5   26.14    2.01
   4  -8   4   61.62    3.71
   4  -8   4   65.40    3.32
  -4   8  -4   66.46    3.40
   4  -8   3    4.63    0.94
   4  -8   3    5.22    1.34
  -4   8  -3    4.25    1.01
   4  -8   2   11.05    1.18
   4  -8   2   15.17    1.79
  -4   8  -2   10.34    1.36
   4  -8   1    0.70    1.05
   4  -8   1    0.69    0.72
  -4   8  -1    0.51    0.93
   4  -8   0  638.25   25.93
   4  -8   0  622.46   26.80
  -4   8   0  617.39   25.53
   4  -8  -1    0.00    1.16
   4  -8  -1    0.12    0.87
  -4   8   1   -0.13    0.95
  -4   8   2   13.67    1.61
  -4   8   3    4.28    1.24
  -4   8   4   66.70    3.73
  -4   8   5   30.58    2.58
  -4   8   6   64.91    3.83
  -4   8   7   26.21    2.60
  -4   8   8   69.57    4.45
  -4   8   9    0.55    1.68
  -4   8  10   -0.40    2.00
  -4   8  11   -1.84    1.62
  -4   8  12   11.04    2.64
  -4   8  13   -0.97    1.83
  -4   8  14   12.22    2.98
  -4   8  15   -0.89    2.44
   4  -9  15    2.11    2.29
   4  -9  14    5.00    2.31
   4  -9  13    9.27    2.52
   4  -9  12    0.72    1.96
   4  -9  11   -1.02    1.70
   4  -9  11    0.01    1.83
   4  -9  10    3.12    1.98
   4  -9  10    2.31    1.57
  -4   9 -10    0.41    1.14
   4  -9   9   14.00    2.48
   4  -9   9   15.04    2.06
  -4   9  -9   13.64    1.73
   4  -9   8   13.81    2.40
   4  -9   8    9.98    1.67
  -4   9  -8   10.27    1.55
   4  -9   7  139.18    6.33
   4  -9   7  130.35    7.07
  -4   9  -7  135.85    6.30
   4  -9   6   78.27    3.94
   4  -9   6   75.09    4.58
  -4   9  -6   76.19    4.04
   4  -9   5   60.90    3.20
   4  -9   5   57.55    3.76
  -4   9  -5   61.32    3.37
   4  -9   4   22.12    2.29
   4  -9   4   21.56    1.69
  -4   9  -4   21.00    1.98
   4  -9   3   26.26    2.33
   4  -9   3   24.15    1.68
  -4   9  -3   14.22    1.73
   4  -9   2   41.26    2.74
   4  -9   2   33.86    2.09
  -4   9  -2   35.11    2.63
   4  -9   1  180.14    8.40
   4  -9   1  177.23    7.74
  -4   9  -1  172.49    7.91
   4  -9   0   53.54    2.95
   4  -9   0   55.09    3.55
  -4   9   0   58.71    3.27
   4  -9  -1  195.90    8.92
   4  -9  -1  181.63    8.22
  -4   9   1  180.12    8.27
  -4   9   2   39.76    2.73
  -4   9   3   29.37    2.53
  -4   9   4   19.46    2.11
  -4   9   5   66.14    3.87
  -4   9   6   67.84    4.08
  -4   9   7  137.54    6.87
  -4   9   8   13.97    2.34
  -4   9   9   13.00    2.40
  -4   9  10    2.49    1.95
  -4   9  11    0.81    1.83
  -4   9  12    1.27    1.94
  -4   9  13   19.75    3.32
  -4   9  14    3.66    2.21
  -4   9  15    2.17    2.57
   4 -10  14    1.45    2.25
   4 -10  13    9.27    2.67
   4 -10  12    3.31    2.11
   4 -10  11    2.25    2.01
   4 -10  10    1.42    1.99
  -4  10 -10    1.66    1.27
   4 -10   9    9.45    1.81
   4 -10   9    9.95    2.38
  -4  10  -9    9.66    1.61
   4 -10   8   19.33    2.05
   4 -10   8   17.06    2.66
  -4  10  -8   19.95    2.15
   4 -10   7   96.45    4.75
   4 -10   7   90.45    5.52
  -4  10  -7   99.21    4.95
   4 -10   6   40.34    3.38
   4 -10   6   42.23    2.61
  -4  10  -6   44.11    2.91
   4 -10   5   56.17    3.05
   4 -10   5   55.93    3.65
  -4  10  -5   60.56    3.52
   4 -10   4    3.15    0.94
   4 -10   4    3.36    1.52
   4 -10   3   26.49    1.75
   4 -10   3   22.89    2.45
  -4  10  -3   20.80    2.16
   4 -10   2   12.42    1.26
   4 -10   2   10.69    1.92
  -4  10  -2    9.82    1.67
   4 -10   1  143.57    7.12
   4 -10   1  136.86    6.34
  -4  10  -1  143.86    6.68
   4 -10   0   64.43    3.30
   4 -10   0   65.01    4.06
  -4  10   0   60.43    3.67
   4 -10  -1  143.35    7.18
  -4  10   1  134.68    6.57
  -4  10   2    8.54    1.64
  -4  10   3   20.53    2.25
  -4  10   4    1.11    1.42
  -4  10   5   56.85    3.72
  -4  10   6   39.69    3.19
  -4  10   7   93.77    5.27
  -4  10   8   14.62    2.42
  -4  10   9   11.24    2.34
  -4  10  10    3.72    2.34
  -4  10  11    3.19    2.30
  -4  10  12   -0.39    1.89
  -4  10  13   12.97    2.97
  -4  10  14    6.33    2.83
   4 -11  14    2.19    2.49
   4 -11  13   -1.35    2.13
   4 -11  12    4.12    2.31
   4 -11  11    0.67    1.96
   4 -11  10   17.16    2.90
  -4  11 -10   24.64    2.38
   4 -11   9   -0.72    1.91
  -4  11  -9    2.21    1.46
   4 -11   8   21.15    2.90
  -4  11  -8   21.71    2.36
   4 -11   7    6.31    1.33
   4 -11   7    5.58    2.08
  -4  11  -7    5.66    1.62
   4 -11   6   16.77    1.62
   4 -11   6   18.98    2.69
  -4  11  -6   17.38    2.14
   4 -11   5   -0.12    1.67
   4 -11   5    1.61    0.98
  -4  11  -5    0.21    0.48
   4 -11   4    7.17    1.13
   4 -11   4    7.03    1.87
  -4  11  -4    4.38    1.41
   4 -11   3    3.49    0.96
   4 -11   3    6.39    1.77
  -4  11  -3    5.97    1.59
   4 -11   2   16.66    2.40
   4 -11   2   16.58    1.55
  -4  11  -2   15.79    2.08
   4 -11   1   12.97    1.40
   4 -11   1   15.18    2.29
  -4  11  -1    8.92    1.77
   4 -11   0  188.60    9.18
  -4  11   0  183.45    8.59
   4 -11  -1   11.02    2.19
  -4  11   1   11.78    1.96
  -4  11   2   17.95    2.20
  -4  11   3    7.74    1.76
  -4  11   4    7.56    1.83
  -4  11   5   -1.20    1.53
  -4  11   6   17.64    2.57
  -4  11   7    4.38    2.04
  -4  11   8   16.94    2.65
  -4  11   9    0.10    2.17
  -4  11  10   18.92    2.79
  -4  11  11   -1.98    1.81
  -4  11  12    1.46    2.10
  -4  11  13    2.69    2.28
  -4  11  14    1.63    2.31
   4 -12  14    0.15    2.37
   4 -12  13    4.01    2.45
   4 -12  12    0.92    2.18
   4 -12  11    1.11    2.47
   4 -12  10    8.43    2.44
   4 -12   9   12.03    2.59
  -4  12  -9   17.11    2.20
   4 -12   8    4.34    2.53
  -4  12  -8    7.57    1.86
   4 -12   7   22.15    3.11
  -4  12  -7   36.81    3.17
   4 -12   6    4.24    2.10
   4 -12   6    6.41    1.21
  -4  12  -6    5.09    1.43
   4 -12   5    7.87    1.20
   4 -12   5    6.89    2.16
  -4  12  -5   12.53    1.98
   4 -12   4   23.70    1.84
   4 -12   4   25.40    2.95
  -4  12  -4   26.91    2.84
   4 -12   3   22.20    2.80
   4 -12   3   21.62    1.79
  -4  12  -3   22.67    2.50
   4 -12   2   31.58    2.15
   4 -12   2   32.35    3.31
  -4  12  -2   31.33    2.92
   4 -12   1   54.78    4.03
  -4  12  -1   51.39    3.64
   4 -12   0    0.40    1.74
  -4  12   0    0.61    1.52
   4 -12  -1   49.44    4.00
  -4  12   1   52.52    3.62
  -4  12   2   31.47    3.02
  -4  12   3   17.98    2.45
  -4  12   4   20.41    2.61
  -4  12   5    8.13    2.11
  -4  12   6    2.83    2.03
  -4  12   7   29.45    3.29
  -4  12   8    5.33    2.19
  -4  12   9   12.20    2.55
  -4  12  10    7.09    2.39
  -4  12  11   -3.29    2.27
  -4  12  12    0.70    2.56
  -4  12  13    2.80    2.36
  -4  12  14   -0.62    2.76
   4 -13  13   -3.10    2.04
   4 -13  12   -1.68    2.01
   4 -13  11    8.50    2.57
   4 -13  10    0.82    2.18
   4 -13   9   17.60    2.99
  -4  13  -9   19.52    2.44
   4 -13   8    0.08    2.06
  -4  13  -8   -0.99    1.48
   4 -13   7   -0.15    1.90
  -4  13  -7    1.09    1.60
   4 -13   6   43.39    3.97
  -4  13  -6   34.44    3.22
   4 -13   5   17.26    2.80
  -4  13  -5   26.88    3.03
   4 -13   4    8.18    1.21
   4 -13   4    7.09    2.32
  -4  13  -4   10.25    2.31
   4 -13   3   78.06    3.96
   4 -13   3   82.25    5.27
  -4  13  -3   78.08    4.75
   4 -13   2   37.16    3.74
  -4  13  -2   36.09    3.39
   4 -13   1   12.08    2.56
  -4  13  -1   12.21    2.25
   4 -13   0   -1.30    1.95
  -4  13   0    1.36    1.76
   4 -13  -1   14.89    2.77
  -4  13   1   16.05    2.48
  -4  13   2   37.86    3.43
  -4  13   3   64.44    4.37
  -4  13   4    5.77    2.05
  -4  13   5   25.63    3.08
  -4  13   6   42.74    3.87
  -4  13   7    0.00    1.98
  -4  13   8    0.35    2.00
  -4  13   9   18.92    3.28
  -4  13  10   -1.13    2.40
  -4  13  11    9.96    2.70
  -4  13  12   -0.38    2.22
  -4  13  13   -1.54    2.65
   4 -14  12   -0.80    2.27
   4 -14  11    0.60    2.35
   4 -14  10   11.89    2.88
   4 -14   9   12.23    2.84
  -4  14  -9   14.82    2.43
   4 -14   8    0.08    2.07
  -4  14  -8    3.19    1.82
   4 -14   7    8.76    2.54
   4 -14   6    0.89    2.11
  -4  14  -6   -1.44    1.78
   4 -14   5   22.25    3.25
  -4  14  -5   17.69    2.63
   4 -14   4   34.72    3.85
  -4  14  -4   39.89    3.60
   4 -14   3   29.07    3.51
  -4  14  -3   25.42    2.99
   4 -14   2   13.65    2.79
  -4  14  -2   17.56    2.62
   4 -14   1   41.90    4.14
  -4  14  -1   40.45    3.64
   4 -14   0    1.08    2.15
  -4  14   0    3.59    2.04
   4 -14  -1   39.55    4.15
  -4  14   1   43.14    3.81
  -4  14   2    8.99    2.30
  -4  14   3   31.63    3.33
  -4  14   4   30.67    3.38
  -4  14   5   15.55    2.73
  -4  14   6    0.55    1.95
  -4  14   7   13.97    2.64
  -4  14   8    1.57    2.34
  -4  14   9   11.66    2.67
  -4  14  10    7.40    2.86
  -4  14  11    0.66    2.22
  -4  14  12    1.31    2.30
   4 -15  12   -0.78    2.36
   4 -15  11    3.17    2.50
   4 -15  10    2.06    2.37
   4 -15   9   -1.42    2.23
  -4  15  -9    1.13    1.71
   4 -15   8    5.49    2.44
  -4  15  -8    2.85    1.20
   4 -15   7    2.20    2.27
  -4  15  -7    0.36    1.48
   4 -15   6    3.40    2.31
  -4  15  -6    2.32    1.75
   4 -15   5    0.75    2.29
  -4  15  -5   -0.49    2.05
   4 -15   4   36.27    4.11
  -4  15  -4   41.20    3.91
   4 -15   3    9.12    2.70
  -4  15  -3   10.36    2.71
   4 -15   2    0.17    2.26
  -4  15  -2    3.21    2.15
   4 -15   1    3.60    2.45
  -4  15  -1    5.66    2.26
   4 -15   0   22.54    3.52
  -4  15   0   25.90    3.19
  -4  15   1    7.63    2.47
  -4  15   2    0.84    2.09
  -4  15   3    8.31    2.45
  -4  15   4   35.10    3.70
  -4  15   5   -0.81    2.02
  -4  15   6    1.43    2.06
  -4  15   7    5.50    2.32
  -4  15   8    8.03    2.82
  -4  15   9   -3.04    1.93
  -4  15  10    5.51    2.84
  -4  15  11    2.70    2.37
  -4  15  12    5.68    3.08
   4 -16  11    3.94    2.60
   4 -16  10    3.44    2.63
   4 -16   9    1.46    2.39
  -4  16  -9    0.10    1.68
   4 -16   8   -1.63    2.16
  -4  16  -8    0.12    1.35
   4 -16   7    1.28    2.30
  -4  16  -7    3.95    2.10
   4 -16   6   -0.95    2.22
  -4  16  -6    0.29    1.69
   4 -16   5    5.61    2.55
  -4  16  -5    2.01    2.23
   4 -16   4   -0.29    2.25
  -4  16  -4   -3.29    1.55
   4 -16   3    7.79    2.79
  -4  16  -3    9.49    2.43
   4 -16   2    3.85    2.55
  -4  16  -2    5.91    2.29
   4 -16   1    2.37    2.51
  -4  16  -1    2.58    2.12
   4 -16   0    2.35    2.48
  -4  16   0    3.03    2.20
  -4  16   1    5.36    2.75
  -4  16   2   10.35    2.63
  -4  16   3    7.03    2.50
  -4  16   4    1.32    2.05
  -4  16   5    1.92    2.11
  -4  16   6   -1.36    2.05
  -4  16   7    1.66    2.26
  -4  16   8   -2.26    2.08
  -4  16   9    3.51    2.45
  -4  16  10    1.32    2.40
  -4  16  11    2.42    2.91
   4 -17  10    2.76    2.66
   4 -17   9   -0.20    2.41
  -4  17  -9    1.23    0.73
   4 -17   8    1.20    2.51
  -4  17  -8    2.01    2.07
   4 -17   7    1.22    2.99
  -4  17  -7    7.06    2.46
   4 -17   6    0.37    2.48
  -4  17  -6   -0.80    2.04
   4 -17   5    1.92    2.49
  -4  17  -5    0.85    2.28
   4 -17   4    0.51    2.32
  -4  17  -4    2.83    2.36
   4 -17   3    6.63    2.59
  -4  17  -3    0.42    1.87
   4 -17   2   13.62    3.44
  -4  17  -2   17.92    2.98
   4 -17   1    7.44    2.72
  -4  17  -1    8.28    2.50
   4 -17   0    1.09    2.30
  -4  17   0    6.80    2.48
  -4  17   1    8.43    2.46
  -4  17   2   12.10    2.72
  -4  17   3    2.87    2.28
  -4  17   4   -0.19    2.17
  -4  17   5    1.98    2.26
  -4  17   6   -1.21    2.55
  -4  17   7    5.05    2.54
  -4  17   8    1.55    2.71
  -4  17   9   -0.94    2.29
  -4  17  10    7.53    3.18
   4 -18   9    2.97    2.78
  -4  18  -9    6.44    2.43
   4 -18   8    1.58    2.80
  -4  18  -8    2.57    1.87
   4 -18   7    1.18    2.61
  -4  18  -7   -0.53    2.08
   4 -18   6    7.09    2.93
  -4  18  -6   -0.29    2.35
   4 -18   5    4.04    2.72
  -4  18  -5    8.97    2.53
   4 -18   4   -1.26    2.37
  -4  18  -4   -0.74    2.32
   4 -18   3   13.57    3.14
  -4  18  -3   13.54    3.11
   4 -18   2    0.52    2.84
  -4  18  -2    2.47    2.14
   4 -18   1    0.59    2.31
  -4  18  -1   -0.02    2.05
   4 -18   0   14.98    3.17
  -4  18   0   11.83    2.80
  -4  18   1    0.99    2.17
  -4  18   2    0.84    2.56
  -4  18   3   12.58    2.86
  -4  18   4   -2.04    2.42
  -4  18   5    6.12    2.55
  -4  18   6    4.10    2.52
  -4  18   7   -1.06    2.29
  -4  18   8    0.55    2.42
  -4  18   9    4.94    2.78
   4 -19   8    0.70    2.79
  -4  19  -8    2.87    2.07
   4 -19   7    1.91    2.89
  -4  19  -7   -1.48    1.70
   4 -19   6   -1.32    2.56
  -4  19  -6   -4.78    2.08
   4 -19   5   -0.83    2.50
  -4  19  -5    0.47    2.11
   4 -19   4    8.06    2.92
  -4  19  -4    9.15    3.00
   4 -19   3    2.88    3.14
  -4  19  -3    7.80    2.65
   4 -19   2    3.32    2.60
  -4  19  -2    3.20    2.30
   4 -19   1    4.89    2.66
  -4  19  -1    4.43    2.40
  -4  19   0    1.33    2.23
  -4  19   1    5.05    2.45
  -4  19   2    2.59    2.39
  -4  19   3    2.98    2.45
  -4  19   4   10.37    2.88
  -4  19   5    6.98    3.03
  -4  19   6    1.80    2.48
  -4  19   7    7.48    2.74
  -4  19   8    2.83    2.66
   4 -20   7    0.99    2.73
  -4  20  -7    2.48    2.16
   4 -20   6    1.94    2.82
  -4  20  -6    0.94    2.34
   4 -20   5    2.39    2.77
  -4  20  -5    2.13    2.17
   4 -20   4   -0.90    2.52
  -4  20  -4   -0.07    2.50
   4 -20   3    3.84    2.72
  -4  20  -3    1.95    2.71
   4 -20   2    3.11    2.70
  -4  20  -2    6.47    2.59
   4 -20   1    0.55    2.58
  -4  20  -1    2.89    2.64
  -4  20   0    2.79    2.39
  -4  20   1   -4.06    2.43
  -4  20   2   -3.26    2.27
  -4  20   3   -0.74    2.20
  -4  20   4    4.92    2.60
  -4  20   5    1.08    2.48
  -4  20   6    6.11    2.82
  -4  20   7    2.84    3.12
   4 -21   5    0.28    3.08
  -4  21  -5   -4.28    2.29
   4 -21   4    2.43    2.74
  -4  21  -4    3.95    2.92
   4 -21   3    3.18    2.78
  -4  21  -3    2.49    2.39
   4 -21   2    2.16    2.61
  -4  21  -2   -1.72    2.44
  -4  21  -1   -1.11    2.25
  -4  21   0    2.09    2.41
  -4  21   1    0.88    2.47
  -4  21   2    1.36    2.36
  -4  21   3   -0.32    2.37
  -4  21   4    2.24    2.49
  -4  21   5   -1.76    2.27
   5  17   2   -2.02    2.14
   5  17   1   -0.66    2.07
   5  17   0    2.13    2.33
   5  17  -1    0.38    2.14
   5  17  -2    0.50    2.63
   5  16   5    1.24    2.27
   5  16   4    0.04    2.17
   5  16   3    5.27    2.57
   5  16   2    0.26    2.22
   5  16   1    4.59    2.46
   5  16   0    0.52    2.50
   5  16  -1    3.26    2.28
   5  16  -2   -1.63    1.99
   5  16  -3    1.82    2.28
   5  16  -4   -1.66    2.08
  -5 -16   4    0.76    2.55
   5  16  -5   -1.34    2.18
  -5 -16   5    0.38    2.61
   5  15   7   -4.61    2.17
   5  15   7   -0.13    2.25
   5  15   6    0.05    1.63
   5  15   6   -1.87    2.52
   5  15   5   -2.60    2.43
   5  15   4    1.30    2.22
   5  15   3    5.92    2.49
   5  15   2   -0.43    2.21
   5  15   1    0.17    2.07
   5  15   0    0.01    2.12
   5  15  -1    1.80    2.10
   5  15  -2    0.73    2.43
   5  15  -3    6.55    2.56
   5  15  -4    3.25    2.28
  -5 -15   4    0.39    2.42
   5  15  -5   -2.63    2.01
  -5 -15   5    1.23    2.59
   5  15  -6    3.51    2.24
  -5 -15   6    2.78    3.26
   5  15  -7    2.22    2.51
  -5 -15   7   -1.62    3.13
   5  14   8    3.68    2.39
   5  14   8   -0.63    2.11
   5  14   7    2.37    2.32
   5  14   7    2.31    2.07
   5  14   6    1.31    2.18
   5  14   6    1.70    1.98
   5  14   5    8.21    2.44
   5  14   5    7.88    2.60
   5  14   4   11.90    2.82
   5  14   3    3.10    2.15
   5  14   2   -0.53    2.01
   5  14   1    3.08    2.18
   5  14   0    0.03    1.89
   5  14  -1    6.24    2.31
   5  14  -2    5.04    2.24
   5  14  -3    3.37    2.15
  -5 -14   3    2.85    2.46
   5  14  -4    8.75    2.66
  -5 -14   4    8.05    3.27
   5  14  -5    7.98    2.55
  -5 -14   5    4.40    2.78
   5  14  -6    1.90    2.56
  -5 -14   6   -2.74    2.91
   5  14  -7    1.16    2.09
  -5 -14   7    0.28    2.55
   5  14  -8    0.38    2.06
  -5 -14   8   -2.74    3.04
   5  13  10    5.51    2.78
   5  13   9   -0.20    2.72
   5  13   9    4.16    2.32
   5  13   8    3.38    2.33
   5  13   8    2.75    2.32
   5  13   7    0.47    1.99
   5  13   7    3.83    2.66
   5  13   6    3.21    2.40
   5  13   6    4.20    2.28
   5  13   5   -2.20    1.36
   5  13   5    5.18    2.20
   5  13   4    2.81    1.98
   5  13   4   11.32    2.79
   5  13   3    3.24    1.78
   5  13   3    0.94    2.05
   5  13   2    6.71    2.33
   5  13   1   -2.24    1.78
   5  13   0    6.37    2.22
   5  13  -1    0.26    1.88
   5  13  -2   10.19    2.47
   5  13  -3    5.51    2.53
  -5 -13   3    6.19    2.46
   5  13  -4   10.50    2.57
  -5 -13   4    3.93    2.63
   5  13  -5    1.33    2.55
  -5 -13   5    0.91    2.37
   5  13  -6    5.20    2.37
  -5 -13   6    5.48    2.71
   5  13  -7    5.15    2.32
  -5 -13   7    6.51    3.18
   5  13  -8    2.26    2.08
  -5 -13   8    2.05    3.05
   5  13  -9    1.15    1.99
  -5 -13   9    0.41    2.66
   5  13 -10    5.56    2.42
  -5 -13  10    0.67    2.87
   5  12  10    0.92    2.40
   5  12  10   -1.99    2.35
   5  12   9   -1.56    2.20
   5  12   9    6.72    2.34
   5  12   8    4.04    2.39
   5  12   8    4.69    2.30
   5  12   7    5.19    2.57
   5  12   7    3.97    2.23
   5  12   6    0.57    1.98
   5  12   6   -0.34    2.14
   5  12   5    0.11    2.26
   5  12   5   -0.40    1.54
   5  12   4   -2.34    2.08
   5  12   4    0.34    1.44
   5  12   3   12.09    2.57
   5  12   3   10.43    2.08
   5  12   2   -0.67    1.83
   5  12   2    2.30    1.64
   5  12   1    4.72    2.14
   5  12   0    6.60    2.15
   5  12  -1    3.93    2.11
   5  12  -2    0.87    1.88
   5  12  -3   12.68    2.54
  -5 -12   3   10.70    2.74
   5  12  -4    1.40    1.93
  -5 -12   4   -1.03    2.16
   5  12  -5    1.20    1.98
  -5 -12   5   -0.48    2.19
   5  12  -6   -0.12    1.89
  -5 -12   6    0.89    2.24
   5  12  -7    0.78    1.88
  -5 -12   7   -1.58    2.28
   5  12  -8    1.87    2.27
  -5 -12   8    3.24    3.03
   5  12  -9    5.83    2.17
  -5 -12   9    1.32    2.56
   5  12 -10    1.95    2.10
  -5 -12  10    2.89    2.71
   5  11  11    4.76    2.62
   5  11  11    0.61    3.00
   5  11  10    5.52    2.71
   5  11  10    4.31    2.22
   5  11   9    1.62    2.33
   5  11   9    5.35    2.64
   5  11   8    1.39    2.02
   5  11   8    1.19    2.55
   5  11   7    1.41    2.04
   5  11   7   -1.86    1.77
   5  11   6    3.96    2.33
   5  11   6    0.09    1.83
   5  11   5    5.64    1.91
   5  11   5    2.35    1.93
   5  11   4   11.44    2.25
   5  11   4   11.60    2.72
   5  11   3    9.07    2.03
   5  11   3    5.39    2.18
   5  11   2    3.14    1.79
   5  11   2    3.61    2.12
   5  11   1    3.27    2.05
   5  11   1    2.37    1.54
   5  11   0    0.00    1.84
   5  11  -1   -0.28    1.83
   5  11  -2    4.73    2.12
  -5 -11   2    7.69    2.64
   5  11  -3    7.67    2.29
  -5 -11   3    4.69    2.50
   5  11  -4   12.25    2.55
  -5 -11   4   14.29    3.23
   5  11  -5    3.18    2.04
  -5 -11   5    3.84    2.36
   5  11  -6    3.04    1.92
  -5 -11   6    1.90    2.29
   5  11  -7    1.14    1.82
  -5 -11   7   -0.28    2.17
   5  11  -8    2.33    2.16
  -5 -11   8   -0.71    2.30
   5  11  -9    3.40    2.04
  -5 -11   9   -3.01    2.74
   5  11 -10    6.64    2.47
  -5 -11  10   11.91    3.10
   5  11 -11    0.49    1.89
  -5 -11  11   -2.81    2.77
   5  10  12   -2.72    2.36
   5  10  11    5.07    2.54
   5  10  11    6.69    2.87
   5  10  10    4.19    2.48
   5  10  10    0.63    2.39
   5  10   9   14.87    2.96
   5  10   9   14.35    3.08
   5  10   8    2.59    2.20
   5  10   8    6.53    2.16
   5  10   7    3.73    1.95
   5  10   7   -3.56    1.70
   5  10   6    7.99    2.48
   5  10   6    4.44    2.05
   5  10   5   14.06    2.61
   5  10   5   12.63    2.41
   5  10   4    0.28    2.26
   5  10   4    0.41    0.77
   5  10   3   30.96    3.03
   5  10   3   35.06    3.38
   5  10   2   -0.09    2.10
   5  10   2    3.52    1.56
   5  10   1    7.39    1.60
   5  10   1    7.05    2.16
   5  10   0   29.86    2.41
   5  10   0   29.66    3.18
   5  10  -1    7.08    2.09
   5  10  -2   -0.34    1.67
  -5 -10   2    1.74    2.18
   5  10  -3   33.94    3.55
  -5 -10   3   45.07    4.24
   5  10  -4    1.10    1.89
  -5 -10   4    2.81    2.68
   5  10  -5   11.44    2.53
  -5 -10   5    9.83    2.94
   5  10  -6    6.01    2.09
  -5 -10   6    7.47    2.48
   5  10  -7    0.44    1.78
  -5 -10   7    2.24    2.66
   5  10  -8    3.56    1.98
  -5 -10   8    4.14    2.33
   5  10  -9   12.42    2.50
  -5 -10   9   12.20    3.17
   5  10 -10    1.03    2.02
  -5 -10  10    2.67    2.80
   5  10 -11    2.00    1.98
  -5 -10  11    5.35    2.60
   5  10 -12    4.93    2.42
  -5 -10  12    1.30    2.30
   5   9  13    3.86    2.90
   5   9  12    3.44    2.78
   5   9  11    2.46    2.37
   5   9  11    3.02    2.55
   5   9  10   16.86    3.26
   5   9  10    9.92    2.64
   5   9   9    3.08    2.33
   5   9   9    0.32    2.13
   5   9   8    6.04    2.32
   5   9   8    4.64    1.93
   5   9   7   12.17    2.63
   5   9   7    9.49    2.45
   5   9   6   16.34    2.58
   5   9   6   15.45    2.62
   5   9   5    5.93    1.95
   5   9   5    2.37    2.17
   5   9   4   45.59    3.62
   5   9   4   44.79    3.60
   5   9   3   29.85    3.14
   5   9   3   26.71    2.68
   5   9   2   63.24    4.39
   5   9   2   56.75    3.68
   5   9   1   12.08    1.73
   5   9   1    9.31    2.22
   5   9   0   11.18    1.64
   5   9   0    7.59    2.11
   5   9  -1    7.43    2.04
   5   9  -1   10.02    1.46
   5   9  -2   58.88    4.15
  -5  -9   2   60.92    4.49
   5   9  -3   26.52    3.00
  -5  -9   3   25.88    3.28
   5   9  -4   42.97    3.78
  -5  -9   4   40.42    4.05
   5   9  -5    4.38    2.02
  -5  -9   5    4.70    2.65
   5   9  -6   18.57    2.72
  -5  -9   6   20.64    3.07
   5   9  -7    7.29    2.12
  -5  -9   7    4.93    2.32
   5   9  -8    6.97    2.07
  -5  -9   8    6.38    2.38
   5   9  -9    3.18    1.82
  -5  -9   9   -0.86    2.43
   5   9 -10   16.82    2.77
  -5  -9  10   13.74    2.86
   5   9 -11    1.96    2.12
  -5  -9  11   -0.29    2.53
   5   9 -12    3.89    2.01
  -5  -9  12    3.57    2.90
   5   9 -13    4.73    2.24
  -5  -9  13    0.22    2.77
   5   8  13    3.88    2.82
   5   8  12    0.66    2.47
   5   8  11    7.65    2.86
   5   8  10   13.53    3.06
   5   8  10   14.07    2.64
   5   8   9    3.06    2.13
   5   8   9    0.84    2.09
   5   8   8    0.95    2.09
   5   8   8    4.14    2.18
   5   8   7   20.55    2.83
   5   8   7   15.34    2.81
   5   8   6    6.22    2.27
   5   8   6    1.91    2.24
   5   8   5   17.65    2.70
   5   8   5   25.61    2.99
   5   8   4   38.01    3.28
   5   8   4   43.90    3.28
   5   8   3   18.79    2.44
   5   8   2   15.58    2.25
   5   8   2   16.68    1.92
   5   8   1   22.96    2.14
   5   8   1   24.31    2.61
   5   8   0   11.57    1.57
   5   8   0   10.30    2.03
   5   8  -1   21.16    2.58
   5   8  -1   21.09    1.86
   5   8  -2   13.39    1.39
   5   8  -2   16.36    2.31
  -5  -8   2   17.94    2.62
   5   8  -3   22.42    2.70
  -5  -8   3   24.18    3.01
   5   8  -4   43.45    3.66
  -5  -8   4   40.09    3.72
   5   8  -5   18.78    2.62
  -5  -8   5   22.45    3.20
   5   8  -6    7.33    2.13
  -5  -8   6    3.71    2.13
   5   8  -7   13.74    2.63
  -5  -8   7   15.57    2.93
   5   8  -8    3.63    1.83
  -5  -8   8   -0.50    2.15
   5   8  -9    4.37    1.86
  -5  -8   9    2.40    1.94
   5   8 -10    7.48    2.35
  -5  -8  10   13.34    2.91
   5   8 -11    4.24    2.21
  -5  -8  11    9.02    2.51
   5   8 -12    1.74    1.81
  -5  -8  12   -0.76    2.06
   5   8 -13    4.68    1.93
  -5  -8  13    7.61    2.61
   5   7  14    1.23    2.64
   5   7  13    2.71    2.68
   5   7  12    1.72    2.52
   5   7  11    3.96    2.52
   5   7  10    7.41    2.52
   5   7  10    4.92    2.28
   5   7   9   11.93    2.41
   5   7   9   14.08    2.88
   5   7   8   10.99    2.41
   5   7   8    7.70    2.46
   5   7   7   13.95    2.68
   5   7   7   14.84    2.49
   5   7   6   12.11    2.37
   5   7   6   10.15    2.03
   5   7   5   20.43    2.62
   5   7   5   18.16    2.44
   5   7   4    3.79    1.84
   5   7   4    4.40    1.58
   5   7   3   55.73    3.48
   5   7   3   34.93    2.62
   5   7   2    1.02    1.37
   5   7   2    0.12    1.22
   5   7   1   75.43    4.31
   5   7   1   72.25    3.90
   5   7   0   56.72    3.14
   5   7   0   56.18    3.62
   5   7  -1   76.55    4.29
   5   7  -1   71.49    3.70
   5   7  -2   -1.21    0.80
   5   7  -2   -0.88    1.32
  -5  -7   2    1.56    1.98
   5   7  -3   57.83    2.71
   5   7  -3   56.04    3.80
  -5  -7   3   62.66    4.29
   5   7  -4    6.84    1.91
  -5  -7   4    6.40    1.98
   5   7  -5   17.57    2.41
  -5  -7   5   18.25    2.61
   5   7  -6    7.39    1.96
  -5  -7   6    8.39    2.14
   5   7  -7   15.06    2.40
  -5  -7   7   14.91    2.44
   5   7  -8    9.55    2.13
  -5  -7   8    8.42    2.49
   5   7  -9   10.86    2.23
  -5  -7   9   13.51    2.48
   5   7 -10    4.37    1.83
  -5  -7  10    3.36    2.33
   5   7 -11    7.91    2.10
  -5  -7  11    4.33    2.21
   5   7 -12    5.07    2.20
  -5  -7  12    4.63    2.61
   5   7 -13    3.78    2.14
  -5  -7  13    1.06    2.54
   5   7 -14    0.75    1.66
  -5  -7  14    2.23    2.29
   5   6  14   -0.44    2.55
   5   6  13   13.58    3.32
   5   6  12   -4.49    2.08
   5   6  11    0.17    2.19
   5   6  10   -0.91    1.89
   5   6  10   -0.39    2.11
   5   6   9    2.22    1.69
   5   6   9    3.01    1.90
   5   6   8    2.20    2.12
   5   6   8    5.59    2.02
   5   6   7   78.62    5.09
   5   6   7   81.14    4.74
   5   6   6   20.37    2.52
   5   6   6   22.52    2.75
   5   6   5   23.87    2.51
   5   6   5   17.78    2.52
   5   6   4    8.76    1.76
   5   6   4    7.44    1.77
   5   6   3    5.55    1.47
   5   6   3    4.68    1.40
   5   6   2   17.66    2.04
   5   6   2   13.49    1.73
   5   6   1   82.04    4.16
   5   6   1   81.58    4.45
   5   6   0   23.90    2.31
   5   6   0   21.01    1.75
   5   6  -1   79.08    3.98
   5   6  -1   88.20    4.55
  -5  -6   1   83.76    4.76
   5   6  -2   17.47    1.50
   5   6  -2   16.25    2.07
  -5  -6   2   22.20    2.45
   5   6  -3    5.63    0.76
   5   6  -3    3.66    1.48
  -5  -6   3    2.63    1.51
   5   6  -4    7.73    1.74
  -5  -6   4    8.26    2.12
   5   6  -5   22.33    2.53
  -5  -6   5   23.20    2.81
   5   6  -6   22.40    2.55
  -5  -6   6   18.45    2.41
   5   6  -7   69.89    4.52
  -5  -6   7   80.14    4.90
   5   6  -8    4.05    1.74
  -5  -6   8    4.05    1.86
   5   6  -9   -0.41    1.56
  -5  -6   9    0.02    2.06
   5   6 -10   -0.53    1.45
  -5  -6  10    0.25    1.76
   5   6 -11   -1.70    1.41
  -5  -6  11   -3.64    1.97
   5   6 -12    2.24    1.84
  -5  -6  12   -2.23    1.63
   5   6 -13   11.61    2.53
  -5  -6  13    7.11    2.69
   5   6 -14    1.88    2.02
  -5  -6  14    1.61    2.39
   5   5  14   10.53    3.11
   5   5  13    3.49    2.63
   5   5  12    2.77    2.46
   5   5  11    4.50    2.43
   5   5  10    3.60    2.33
   5   5  10    4.31    1.92
   5   5   9   10.38    2.65
   5   5   9   14.14    2.20
   5   5   8   66.52    4.63
   5   5   8   61.11    3.95
   5   5   7   12.54    2.06
   5   5   7    6.72    2.21
   5   5   6  273.57   12.00
   5   5   6  277.89   12.65
   5   5   5   48.65    3.35
   5   5   5   45.20    3.00
   5   5   4    1.10    1.23
   5   5   4    1.31    1.36
   5   5   3   74.46    3.98
   5   5   3   76.10    4.04
   5   5   2  125.59    5.96
   5   5   1   54.24    3.00
   5   5   1   51.01    3.18
   5   5   0  228.97    9.92
   5   5   0  229.14   10.08
   5   5  -1   55.52    3.33
   5   5  -1   53.38    2.89
  -5  -5   1   59.02    3.71
   5   5  -2  133.27    6.29
   5   5  -2  125.06    5.79
  -5  -5   2  136.41    6.58
   5   5  -3   89.98    4.75
   5   5  -3   85.87    4.00
  -5  -5   3   94.96    5.00
   5   5  -4   -0.42    1.12
   5   5  -4    0.47    0.46
  -5  -5   4   -2.71    1.39
   5   5  -5   45.25    3.17
  -5  -5   5   48.53    3.40
   5   5  -6  260.49   11.68
  -5  -5   6  263.18   11.98
   5   5  -7    8.84    1.89
  -5  -5   7   12.27    2.25
   5   5  -8   60.07    4.04
  -5  -5   8   64.50    4.35
   5   5  -9   14.57    2.28
  -5  -5   9   10.85    2.15
   5   5 -10    4.35    1.75
  -5  -5  10    2.28    1.66
   5   5 -11    4.58    1.75
  -5  -5  11    6.33    1.96
   5   5 -12    7.82    2.25
  -5  -5  12    1.03    2.06
   5   5 -13    4.09    2.02
  -5  -5  13    1.80    1.87
   5   5 -14   12.58    2.40
  -5  -5  14   10.99    2.82
   5   4  15    1.43    2.78
   5   4  14    2.68    2.69
   5   4  13   11.43    3.03
   5   4  12    4.13    2.43
   5   4  11   -2.90    1.94
   5   4  10    2.43    1.60
   5   4  10    0.59    2.17
   5   4   9   14.56    2.76
   5   4   9   13.03    2.07
   5   4   8   11.17    1.89
   5   4   8   12.42    2.46
   5   4   7  140.82    7.17
   5   4   7  130.20    6.47
   5   4   6   81.14    4.35
   5   4   6   85.72    4.88
   5   4   5   62.45    3.79
   5   4   5   60.26    3.49
   5   4   4   22.87    2.19
   5   4   4   20.64    1.89
   5   4   3   25.61    2.22
   5   4   3   26.84    2.22
   5   4   2   33.49    2.21
   5   4   2   33.20    2.28
   5   4   1  171.80    7.55
   5   4   1  166.09    7.51
   5   4   0   49.92    3.02
   5   4   0   55.87    2.88
   5   4  -1  180.91    7.99
   5   4  -1  182.47    7.79
  -5  -4   1  170.35    8.26
   5   4  -2   32.49    2.40
   5   4  -2   30.82    1.95
  -5  -4   2   36.29    2.51
   5   4  -3   22.83    1.49
   5   4  -3   22.39    2.14
  -5  -4   3   27.19    2.39
   5   4  -4   20.27    2.15
   5   4  -4   22.25    1.35
  -5  -4   4   22.62    2.22
   5   4  -5   59.51    3.51
  -5  -4   5   57.23    3.42
   5   4  -6   83.94    4.58
  -5  -4   6   75.35    4.33
   5   4  -7  132.05    6.59
  -5  -4   7  131.40    6.63
   5   4  -8    8.18    2.11
  -5  -4   8   19.04    2.34
   5   4  -9   12.69    2.33
  -5  -4   9   12.86    2.10
   5   4 -10    3.07    1.86
  -5  -4  10    2.47    1.90
   5   4 -11    2.54    1.56
  -5  -4  11    0.14    1.86
   5   4 -12    1.15    1.76
  -5  -4  12    1.40    1.97
   5   4 -13    9.76    2.38
  -5  -4  13   10.56    2.65
   5   4 -14    6.77    1.97
  -5  -4  14    2.10    2.01
   5   4 -15    1.69    1.72
  -5  -4  15    3.98    2.17
   5   3  15    2.18    2.63
   5   3  14    1.08    2.49
   5   3  13   20.32    3.54
   5   3  12    4.27    1.97
   5   3  11    7.99    2.61
   5   3  10    0.41    1.58
   5   3  10    0.65    2.15
   5   3   9   24.03    2.36
   5   3   9   17.44    2.86
   5   3   8   45.40    2.91
   5   3   8   42.00    3.82
   5   3   7   89.73    4.58
   5   3   7   96.54    5.39
   5   3   6    1.45    1.43
   5   3   6    1.86    1.22
   5   3   5  158.68    6.99
   5   3   5  151.66    7.44
   5   3   4   52.66    2.94
   5   3   4   53.34    3.20
   5   3   3   64.15    3.57
   5   3   3   66.40    3.40
   5   3   2   21.35    1.91
   5   3   2   20.50    1.76
   5   3   1  159.62    7.05
   5   3   0  246.96   10.63
   5   3   0  252.21   10.69
   5   3  -1  151.92    6.71
   5   3  -1  146.74    6.82
  -5  -3   1  158.84    7.15
   5   3  -2   20.97    1.88
   5   3  -2   17.84    1.42
  -5  -3   2   18.61    1.77
   5   3  -3   72.18    3.32
   5   3  -3   68.81    3.70
  -5  -3   3   65.27    3.75
   5   3  -4   46.88    2.43
   5   3  -4   48.86    2.96
  -5  -3   4   51.20    2.87
   5   3  -5  147.38    7.12
  -5  -3   5  159.13    7.24
   5   3  -6   -1.21    1.05
  -5  -3   6    1.29    1.27
   5   3  -7   86.55    4.65
  -5  -3   7   83.85    4.65
   5   3  -8   42.02    3.11
  -5  -3   8   41.72    3.18
   5   3  -9   19.26    2.39
  -5  -3   9   21.58    2.60
   5   3 -10    2.41    1.77
  -5  -3  10    0.72    1.52
   5   3 -11    7.34    1.90
  -5  -3  11   10.93    2.32
   5   3 -12    0.93    1.49
  -5  -3  12    4.18    2.07
   5   3 -13   16.30    2.71
  -5  -3  13   16.36    2.85
   5   3 -14    1.34    1.64
  -5  -3  14   -2.12    1.99
   5   3 -15    2.16    1.72
  -5  -3  15    0.56    1.94
   5   2  15   -1.74    2.35
   5   2  14    1.78    2.55
   5   2  13    3.80    2.49
   5   2  12   -1.76    2.04
   5   2  11    4.71    2.36
   5   2  10   15.36    2.03
   5   2  10   14.44    2.79
   5   2   9   11.21    2.51
   5   2   9   15.55    1.84
   5   2   8   20.72    2.02
   5   2   8   17.11    2.60
   5   2   7    2.80    1.61
   5   2   7    3.01    1.17
   5   2   6   16.06    1.56
   5   2   6   16.63    2.10
   5   2   5    9.24    1.65
   5   2   5   12.03    1.39
   5   2   4    3.34    1.23
   5   2   4    3.78    0.95
   5   2   3   35.91    2.32
   5   2   3   31.91    2.05
   5   2   2   44.89    2.52
   5   2   2   38.89    2.36
   5   2   1   36.89    2.23
   5   2   1   39.06    2.28
   5   2   0  221.79    9.83
   5   2   0  236.52    9.73
   5   2  -1   38.42    2.30
   5   2  -1   35.72    2.13
   5   2  -2   35.14    2.30
   5   2  -2   36.59    2.09
  -5  -2   2   39.68    2.37
   5   2  -3   35.75    2.29
   5   2  -3   35.31    1.98
  -5  -2   3   32.89    2.24
   5   2  -4    3.91    1.16
   5   2  -4    5.39    0.82
  -5  -2   4    2.41    1.01
   5   2  -5   11.50    1.59
  -5  -2   5    9.40    1.40
   5   2  -6   18.76    1.99
  -5  -2   6   17.29    1.80
   5   2  -7    2.74    1.29
  -5  -2   7    1.54    1.11
   5   2  -8   19.37    2.24
  -5  -2   8   22.45    2.22
   5   2  -9   16.16    2.12
  -5  -2   9   12.89    2.04
   5   2 -10   12.95    2.31
  -5  -2  10   12.54    2.06
   5   2 -11    1.06    1.73
  -5  -2  11    2.67    1.83
   5   2 -12    1.28    1.69
  -5  -2  12    1.83    1.85
   5   2 -13    1.04    1.53
  -5  -2  13   -0.13    1.90
   5   2 -14    2.56    1.99
  -5  -2  14    5.02    2.03
   5   2 -15   -1.33    1.77
  -5  -2  15   -0.50    2.11
   5   1  15   -0.41    2.38
   5   1  14    0.19    2.30
   5   1  13    2.73    2.36
   5   1  12    0.23    2.06
   5   1  11    3.78    2.35
   5   1  10   71.35    5.09
   5   1  10   79.06    4.07
   5   1   9   17.62    1.83
   5   1   9   19.24    2.75
   5   1   8   -1.23    1.04
   5   1   8    1.31    1.71
   5   1   7   59.99    3.03
   5   1   7   56.69    3.62
   5   1   6   88.74    5.09
   5   1   6  104.40    4.49
   5   1   5   68.08    3.65
   5   1   5   63.65    3.17
   5   1   4  107.03    5.29
   5   1   4  108.58    4.77
   5   1   3  173.69    7.32
   5   1   3  171.76    7.76
   5   1   2  389.64   16.05
   5   1   2  398.00   16.61
   5   1   1  123.50    5.63
   5   1   1  123.49    5.45
   5   1   0   11.75    1.26
   5   1  -1  121.56    5.60
   5   1  -1  129.54    5.67
   5   1  -2  384.24   15.89
   5   1  -2  383.27   16.07
  -5  -1   2  387.04   16.41
   5   1  -3  172.96    7.63
   5   1  -3  176.26    7.55
  -5  -1   3  172.15    7.68
   5   1  -4  119.18    5.26
   5   1  -4  104.12    4.95
  -5  -1   4  108.96    5.11
   5   1  -5   60.57    3.42
  -5  -1   5   64.15    3.29
   5   1  -6   95.06    4.90
  -5  -1   6  101.60    4.88
   5   1  -7   58.69    3.46
  -5  -1   7   57.48    3.38
   5   1  -8   -0.18    1.14
  -5  -1   8    0.85    1.34
   5   1  -9   20.27    2.33
  -5  -1   9   17.26    2.21
   5   1 -10   75.19    4.39
  -5  -1  10   72.21    4.54
   5   1 -11    0.16    1.74
  -5  -1  11    5.92    1.92
   5   1 -12    3.12    1.57
  -5  -1  12    4.75    1.95
   5   1 -13    0.04    1.69
  -5  -1  13    0.99    1.63
   5   1 -14   14.58    2.61
  -5  -1  14    4.63    1.92
   5   1 -15    0.94    1.56
  -5  -1  15    1.55    2.12
   5   0  15    0.16    2.44
   5   0  14    0.55    2.24
   5   0  13    2.05    2.17
   5   0  12    9.31    2.53
   5   0  11   51.55    4.51
   5   0  10    5.48    2.27
   5   0   9   52.69    3.94
   5   0   9   49.67    2.85
   5   0   8   11.82    2.12
   5   0   8   11.81    1.33
   5   0   7    7.40    1.69
   5   0   7    6.33    1.00
   5   0   6   30.11    1.78
   5   0   6   31.72    2.31
   5   0   5  227.20   10.09
   5   0   5  223.03    9.27
   5   0   4    2.05    1.06
   5   0   4    0.89    0.62
   5   0   3  392.86   15.66
   5   0   3  380.79   16.38
   5   0   2   28.55    1.62
   5   0   2   27.85    1.99
   5   0   1  121.43    5.54
   5   0   1  121.32    5.24
   5   0   0    3.22    0.96
   5   0   0    1.42    0.87
   5   0  -1  122.24    5.40
   5   0  -2   27.51    1.83
   5   0  -2   29.42    1.95
  -5   0   2   32.38    1.81
   5   0  -3  398.12   16.88
   5   0  -3  414.03   16.69
  -5   0   3  401.30   17.07
   5   0  -4    1.32    0.64
   5   0  -4    1.92    0.91
  -5   0   4    2.02    0.75
   5   0  -5  228.31    9.71
  -5   0   5  218.99    9.77
   5   0  -6   36.20    2.36
  -5   0   6   27.08    2.02
   5   0  -7    8.47    1.50
  -5   0   7    8.22    1.38
   5   0  -8   13.51    1.99
   5   0  -9   52.55    3.45
   5   0 -10    5.51    1.63
   5   0 -11   43.93    3.32
   5   0 -12    6.77    1.78
   5   0 -13   -0.73    1.34
   5   0 -14   -0.86    1.41
  -5   0  14    3.67    1.82
   5   0 -15    1.56    1.93
  -5   0  15    5.22    1.95
  -5   0  15    5.45    2.08
   5  -1  16   -1.01    2.96
   5  -1  15    1.66    2.96
   5  -1  14    1.16    2.29
   5  -1  13    2.13    2.22
   5  -1  12    5.69    2.31
   5  -1  11   26.12    3.20
   5  -1  10   40.72    3.68
   5  -1   9   49.85    3.65
   5  -1   9   46.39    2.58
   5  -1   8   15.49    2.22
   5  -1   8   17.78    1.39
   5  -1   7   74.47    4.33
   5  -1   7   77.09    3.44
   5  -1   6    3.89    1.43
   5  -1   6    5.31    0.74
   5  -1   5   87.65    4.47
   5  -1   5   85.43    3.67
   5  -1   4  289.03   11.86
   5  -1   4  301.63   12.72
   5  -1   3  325.56   14.10
   5  -1   3  335.71   13.33
   5  -1   2  132.82    6.00
   5  -1   2  130.49    5.50
   5  -1   1  216.56    9.32
   5  -1   1  215.03    8.88
   5  -1   0    8.52    1.20
   5  -1   0    9.88    1.01
   5  -1  -1  214.75    8.93
   5  -1  -1  211.68    9.18
   5  -1  -2  143.23    6.15
   5  -1  -2  141.40    6.28
  -5   1   2  137.50    6.04
   5  -1  -3  313.73   12.78
   5  -1  -3  280.99   12.92
  -5   1   3  322.93   12.94
   5  -1  -4  277.41   12.23
  -5   1   4  303.38   12.43
   5  -1  -5   89.24    4.39
   5  -1  -6    3.85    1.16
   5  -1  -7   74.74    4.01
   5  -1  -8   14.04    1.96
   5  -1  -9   40.41    2.96
   5  -1 -10   39.67    3.38
   5  -1 -11   24.09    2.62
   5  -1 -12    6.86    2.06
   5  -1 -13    3.80    1.72
   5  -1 -14   -3.60    1.66
   5  -1 -15    2.32    1.96
  -5   1  16    1.27    2.17
   5  -2  16    7.04    2.93
   5  -2  15   -2.41    2.19
   5  -2  14   -2.16    2.55
   5  -2  13    1.41    2.14
   5  -2  12    5.67    2.29
   5  -2  11    7.81    2.31
   5  -2  10   30.06    3.21
   5  -2   9   12.93    2.33
   5  -2   9   19.88    1.49
   5  -2   8   16.46    1.25
   5  -2   8   15.82    2.18
   5  -2   7   32.11    1.62
   5  -2   7   28.87    2.65
   5  -2   6    2.40    0.46
   5  -2   6    0.97    1.16
   5  -2   5    2.22    0.88
   5  -2   4  120.11    5.66
   5  -2   3  165.30    7.56
   5  -2   3  172.19    6.83
   5  -2   2  213.43    8.64
   5  -2   2  213.06    9.26
   5  -2   1   25.12    1.81
   5  -2   1   21.58    1.29
   5  -2   0   31.31    1.73
   5  -2   0   29.19    1.99
   5  -2  -1   18.78    1.55
   5  -2  -1   17.84    1.34
   5  -2  -2  216.12    8.86
   5  -2  -2  202.17    9.04
  -5   2   2  210.53    8.75
   5  -2  -3  166.29    7.53
   5  -2  -3  176.97    7.46
   5  -2  -4  107.37    5.16
   5  -2  -4  117.61    5.25
   5  -2  -5    3.32    1.04
   5  -2  -6    2.80    1.22
   5  -2  -7   30.97    2.34
   5  -2  -8   15.48    1.91
   5  -2  -9   15.01    2.16
   5  -2 -10   30.73    3.01
   5  -2 -11    7.11    1.81
   5  -2 -12    1.59    1.53
   5  -2 -13   -1.27    1.44
   5  -2 -14    2.85    1.94
  -5   2  15    1.45    2.07
  -5   2  16    4.20    2.48
  -5   2  16    2.68    2.29
   5  -3  16    0.01    2.86
   5  -3  15    2.00    2.71
   5  -3  14    0.71    2.14
   5  -3  13   -1.62    1.85
   5  -3  12    3.30    2.07
   5  -3  11    9.64    2.70
   5  -3  10   25.46    2.96
   5  -3   9   22.33    2.60
   5  -3   9   17.10    1.36
   5  -3   8   14.03    1.13
   5  -3   8   19.83    2.42
   5  -3   7   35.05    2.59
   5  -3   7   30.85    1.52
   5  -3   6    2.64    1.24
   5  -3   5    4.52    1.22
   5  -3   4  115.56    5.44
   5  -3   3  163.21    7.32
  -5   3  -3  164.38    6.56
   5  -3   2  212.90    9.18
   5  -3   2  210.46    8.55
   5  -3   1   19.00    1.65
   5  -3   1   18.10    1.11
   5  -3   0   29.28    2.01
   5  -3   0   31.68    1.71
   5  -3  -1   21.07    1.66
   5  -3  -1   21.81    1.44
   5  -3  -1   20.86    1.07
   5  -3  -2  227.81    9.41
   5  -3  -2  206.51    9.09
   5  -3  -3  160.11    7.10
   5  -3  -3  167.58    7.29
   5  -3  -4  113.52    5.47
   5  -3  -4  121.81    5.40
   5  -3  -5    3.28    1.01
   5  -3  -6    2.49    1.07
   5  -3  -7   29.99    2.30
   5  -3  -8   12.81    1.91
   5  -3  -9   16.53    2.13
   5  -3 -10   25.83    2.63
   5  -3 -11    8.89    2.18
   5  -3 -12    3.47    1.91
  -5   3  13    2.57    1.85
  -5   3  14    3.04    2.18
  -5   3  15    4.39    2.08
  -5   3  16    2.60    2.37
   5  -4  16    2.84    2.49
   5  -4  15    4.32    2.79
   5  -4  14    0.99    2.10
   5  -4  13    3.69    2.17
   5  -4  12    2.84    1.92
   5  -4  11   21.88    2.86
   5  -4  10   33.92    3.25
   5  -4   9   44.87    3.35
   5  -4   9   45.65    2.35
   5  -4   8   16.26    2.25
   5  -4   8   14.72    1.10
   5  -4   7   81.88    4.41
   5  -4   7   81.94    3.47
   5  -4   6    4.03    1.27
   5  -4   6    5.61    0.44
   5  -4   5   83.96    4.25
   5  -4   4  267.85   11.56
   5  -4   3  318.58   13.86
  -5   4  -3  333.19   13.09
   5  -4   2  145.41    6.30
  -5   4  -2  134.63    5.75
   5  -4   1  209.48    9.17
   5  -4   1  210.35    9.19
  -5   4  -1  218.88    8.77
   5  -4   0    9.76    1.28
   5  -4   0   10.02    0.88
   5  -4   0    9.60    0.95
   5  -4  -1  217.91    8.92
   5  -4  -1  210.75    9.21
   5  -4  -1  210.78    9.10
   5  -4  -2  128.95    5.94
   5  -4  -2  131.83    5.75
   5  -4  -3  326.57   13.67
   5  -4  -3  332.41   14.01
   5  -4  -4  290.92   12.30
   5  -4  -4  278.73   11.98
   5  -4  -5   84.75    4.22
   5  -4  -6    5.64    1.28
   5  -4  -7   76.15    4.11
   5  -4  -8   17.33    2.05
   5  -4  -9   42.81    3.10
   5  -4 -10   33.31    3.01
  -5   4  10   36.61    3.29
  -5   4  11   32.63    3.42
  -5   4  12    6.14    1.93
  -5   4  13    2.49    1.84
  -5   4  14    0.40    1.81
  -5   4  15    3.08    1.96
  -5   4  16    2.34    2.49
   5  -5  15    2.76    2.68
   5  -5  14    1.19    2.39
   5  -5  13    0.76    2.27
   5  -5  12    6.72    2.09
   5  -5  11   46.85    4.14
   5  -5  10    4.44    2.14
   5  -5   9   54.71    3.82
  -5   5  -9   51.27    2.58
   5  -5   8   12.43    2.08
  -5   5  -8   11.22    0.97
   5  -5   7    6.96    1.47
  -5   5  -7    7.30    0.71
   5  -5   6   33.48    2.36
  -5   5  -6   33.44    1.60
   5  -5   5  217.25    9.53
  -5   5  -5  215.22    8.74
   5  -5   4    2.00    0.94
  -5   5  -4    2.61    0.50
   5  -5   3  439.62   17.85
  -5   5  -3  411.73   17.09
   5  -5   2   31.21    2.01
   5  -5   2   29.33    1.85
  -5   5  -2   29.02    1.66
   5  -5   1  116.88    5.48
  -5   5  -1  122.60    5.17
   5  -5   0    1.85    0.77
   5  -5   0    1.47    0.72
  -5   5   0    1.61    0.70
   5  -5  -1  115.93    5.30
   5  -5  -1  111.17    5.33
  -5   5   1  121.28    5.19
   5  -5  -2   31.63    2.04
  -5   5   2   28.95    1.97
   5  -5  -3  383.05   16.51
  -5   5   3  398.76   16.17
  -5   5   4    0.87    0.92
  -5   5   5  224.31    9.78
  -5   5   6   29.24    2.44
  -5   5   7   10.32    1.68
  -5   5   8    9.89    1.82
  -5   5   9   51.18    3.79
  -5   5  10    7.80    2.04
  -5   5  11   52.55    4.30
  -5   5  12   11.36    2.58
  -5   5  13    1.97    1.87
  -5   5  14    1.08    2.27
  -5   5  15    2.97    2.47
   5  -6  15    1.20    2.47
   5  -6  14   -0.44    2.34
   5  -6  13    1.09    1.88
   5  -6  12    4.41    1.95
   5  -6  11    6.93    2.29
   5  -6  10   77.67    4.68
   5  -6   9   21.33    2.37
  -5   6  -9   18.83    1.46
   5  -6   8   -1.33    1.46
  -5   6  -8    0.30    0.65
   5  -6   7   60.83    3.48
  -5   6  -7   58.76    2.77
   5  -6   6   89.56    4.64
  -5   6  -6   95.76    4.06
   5  -6   5   61.64    3.64
   5  -6   5   62.30    3.42
  -5   6  -5   67.20    2.95
   5  -6   4  113.70    5.28
   5  -6   4  116.84    5.52
  -5   6  -4  109.12    4.85
   5  -6   3  171.99    7.74
   5  -6   3  170.72    7.95
  -5   6  -3  182.85    7.41
   5  -6   2  405.63   16.71
   5  -6   2  393.24   17.05
  -5   6  -2  395.66   16.19
   5  -6   1  117.17    5.39
   5  -6   1  116.99    5.36
   5  -6   0    9.99    1.27
   5  -6   0    8.09    1.12
  -5   6   0   12.91    1.31
   5  -6  -1  116.53    5.38
   5  -6  -1  118.44    5.52
  -5   6   1  116.79    5.27
   5  -6  -2  382.07   16.16
  -5   6   2  382.94   15.81
   5  -6  -3  171.98    7.85
  -5   6   3  178.52    7.73
  -5   6   4  124.08    5.78
  -5   6   5   61.51    3.47
  -5   6   6   92.84    4.80
  -5   6   7   57.33    3.56
  -5   6   8    1.45    1.45
  -5   6   9   17.08    2.56
  -5   6  10   77.90    4.79
  -5   6  11    3.54    2.24
  -5   6  12    3.85    1.97
  -5   6  13    0.34    1.87
  -5   6  14    6.36    2.27
  -5   6  15    0.44    2.34
   5  -7  15    2.95    2.27
   5  -7  14   -0.38    2.30
   5  -7  14    3.70    2.30
   5  -7  13   -1.37    1.89
   5  -7  13    1.39    1.85
   5  -7  12    4.59    2.18
   5  -7  12    1.19    1.91
   5  -7  11    0.96    1.91
   5  -7  10   12.29    2.27
   5  -7   9   13.82    2.38
   5  -7   9   12.46    1.94
  -5   7  -9   13.08    1.33
   5  -7   8   20.39    2.29
   5  -7   8   15.37    2.38
  -5   7  -8   19.50    1.52
   5  -7   7    1.09    1.42
   5  -7   7    5.59    1.49
  -5   7  -7    2.50    0.78
   5  -7   6   16.36    1.68
   5  -7   6   15.26    1.95
  -5   7  -6   14.91    1.27
   5  -7   5   10.51    1.63
   5  -7   5   11.40    1.41
  -5   7  -5   10.97    1.12
   5  -7   4    5.54    1.26
   5  -7   4    4.73    1.04
  -5   7  -4    3.80    0.90
   5  -7   3   34.49    2.31
   5  -7   3   36.83    2.14
  -5   7  -3   31.22    2.01
   5  -7   2   36.92    2.43
   5  -7   2   36.13    2.22
  -5   7  -2   41.43    2.27
   5  -7   1   36.24    2.21
   5  -7   1   38.61    2.33
   5  -7   0  234.50    9.77
   5  -7   0  209.28    9.96
  -5   7   0  229.82    9.53
   5  -7  -1   38.87    2.32
  -5   7   1   38.09    2.35
   5  -7  -2   37.60    2.28
  -5   7   2   33.63    2.24
   5  -7  -3   31.80    2.08
  -5   7   3   31.04    2.17
  -5   7   4    4.18    1.25
  -5   7   5   10.15    1.63
  -5   7   6   16.50    1.99
  -5   7   7    2.51    1.43
  -5   7   8   15.61    2.24
  -5   7   9   14.93    2.51
  -5   7  10   10.97    2.53
  -5   7  11   -1.52    1.68
  -5   7  12    3.16    1.94
  -5   7  13    2.78    2.29
  -5   7  14   -1.41    2.24
  -5   7  15    0.79    2.39
   5  -8  15    0.14    2.05
   5  -8  14    3.50    2.24
   5  -8  13   13.94    2.78
   5  -8  13   19.35    2.69
   5  -8  12    4.57    1.85
   5  -8  12    1.14    1.84
   5  -8  11    5.65    2.11
   5  -8  11   11.34    2.40
   5  -8  10    1.55    1.84
   5  -8  10    1.02    1.85
   5  -8   9   17.12    2.57
   5  -8   9   19.84    2.40
  -5   8  -9   21.63    1.78
   5  -8   8   49.94    3.54
   5  -8   8   43.34    3.10
  -5   8  -8   42.72    2.52
   5  -8   7   88.73    4.63
   5  -8   7   86.91    5.05
  -5   8  -7   88.77    4.18
   5  -8   6   -1.59    1.06
   5  -8   6    0.80    1.35
  -5   8  -6   -0.11    0.77
   5  -8   5  153.43    6.99
   5  -8   5  148.89    7.43
  -5   8  -5  157.25    6.76
   5  -8   4   45.66    2.83
   5  -8   4   49.57    3.16
  -5   8  -4   56.52    2.85
   5  -8   3   62.66    3.30
   5  -8   3   60.73    3.52
  -5   8  -3   66.02    3.34
   5  -8   2   17.35    1.44
   5  -8   2   19.18    1.86
   5  -8   1  145.14    7.01
   5  -8   1  148.26    6.71
  -5   8  -1  156.42    6.69
   5  -8   0  254.00   10.96
   5  -8   0  258.74   11.43
  -5   8   0  251.00   10.82
   5  -8  -1  161.84    7.48
   5  -8  -1  162.61    7.04
  -5   8   1  144.15    6.93
   5  -8  -2   20.41    1.76
  -5   8   2   16.25    1.73
  -5   8   3   66.38    3.64
  -5   8   4   48.92    3.03
  -5   8   5  143.40    6.76
  -5   8   6    0.98    1.27
  -5   8   7   87.16    4.80
  -5   8   8   42.65    3.27
  -5   8   9   16.81    2.44
  -5   8  10   -0.39    2.05
  -5   8  11    7.91    2.45
  -5   8  12    4.18    1.98
  -5   8  13   17.37    2.83
  -5   8  14    0.50    2.42
  -5   8  15    2.24    2.20
   5  -9  15    5.29    2.47
   5  -9  14    5.48    2.50
   5  -9  13   16.55    3.21
   5  -9  12    5.59    2.42
   5  -9  12   -1.34    1.76
   5  -9  11    0.41    1.85
   5  -9  11   -1.70    1.59
   5  -9  10    0.41    1.59
   5  -9  10    0.29    1.86
   5  -9   9   11.52    1.97
   5  -9   9   12.49    2.42
  -5   9  -9   12.11    1.51
   5  -9   8   12.10    2.25
   5  -9   8   12.49    1.87
  -5   9  -8   12.79    1.52
   5  -9   7  137.38    6.46
   5  -9   7  139.84    7.11
  -5   9  -7  131.00    6.17
   5  -9   6   71.27    3.94
   5  -9   6   76.30    4.55
  -5   9  -6   78.31    3.87
   5  -9   5   57.78    3.23
   5  -9   5   58.39    3.72
  -5   9  -5   60.63    3.31
   5  -9   4   18.80    2.12
   5  -9   4   21.80    1.86
  -5   9  -4   21.06    1.92
   5  -9   3   20.32    1.74
   5  -9   3   23.22    2.25
  -5   9  -3   24.49    1.90
   5  -9   2   35.23    2.21
   5  -9   2   36.39    2.57
  -5   9  -2   32.39    2.38
   5  -9   1  171.67    7.69
   5  -9   1  171.19    8.14
  -5   9  -1  177.63    7.80
   5  -9   0   54.35    3.07
   5  -9   0   57.58    3.66
  -5   9   0   56.69    3.21
   5  -9  -1  151.16    8.04
   5  -9  -1  181.03    7.68
  -5   9   1  174.12    7.66
   5  -9  -2   36.34    2.39
  -5   9   2   32.32    2.44
  -5   9   3   21.77    2.07
  -5   9   4   19.49    2.13
  -5   9   5   55.04    3.50
  -5   9   6   74.14    4.31
  -5   9   7  137.60    6.88
  -5   9   8   12.53    2.20
  -5   9   9    8.91    2.19
  -5   9  10    0.89    1.82
  -5   9  11    1.17    2.13
  -5   9  12   -0.47    2.21
  -5   9  13   15.84    3.20
  -5   9  14    4.70    2.70
  -5   9  15    3.70    2.89
   5 -10  14   12.40    2.91
   5 -10  13    4.18    2.31
   5 -10  12    1.07    2.02
   5 -10  11    5.04    2.19
   5 -10  10    1.55    1.95
   5 -10  10    3.22    1.76
   5 -10   9   14.63    2.16
   5 -10   9   14.30    2.59
  -5  10  -9   15.12    1.76
   5 -10   8   66.51    3.71
   5 -10   8   59.74    4.39
  -5  10  -8   58.53    3.45
   5 -10   7    8.42    2.15
   5 -10   7   10.87    1.66
  -5  10  -7    9.64    1.61
   5 -10   6  245.70   11.35
   5 -10   6  273.05   12.22
  -5  10  -6  267.99   11.31
   5 -10   5   49.68    3.45
   5 -10   5   46.69    2.88
  -5  10  -5   47.74    3.01
   5 -10   4   -0.23    1.40
   5 -10   4    0.30    0.89
  -5  10  -4   -0.01    1.11
   5 -10   3   77.70    3.92
   5 -10   3   81.91    4.52
   5 -10   2  128.37    6.27
   5 -10   2  122.96    5.71
  -5  10  -2  121.06    5.92
   5 -10   1   59.99    3.08
   5 -10   1   58.57    3.63
  -5  10  -1   46.87    3.21
   5 -10   0  228.31   10.09
   5 -10   0  229.01   10.73
  -5  10   0  234.18   10.15
   5 -10  -1   53.00    3.86
   5 -10  -1   50.20    3.02
  -5  10   1   60.18    3.39
  -5  10   2  122.89    6.00
  -5  10   3   86.09    4.63
  -5  10   4   -0.38    1.24
  -5  10   5   45.26    3.23
  -5  10   6  264.49   11.85
  -5  10   7   10.80    2.17
  -5  10   8   60.34    4.17
  -5  10   9   12.64    2.49
  -5  10  10    4.76    2.09
  -5  10  11    6.35    2.18
  -5  10  12    1.86    2.04
  -5  10  13    1.80    2.49
  -5  10  14   10.21    2.79
   5 -11  14    2.60    2.36
   5 -11  13    8.06    2.61
   5 -11  12   -0.35    2.03
   5 -11  11    0.78    2.05
   5 -11  10    2.05    2.03
   5 -11   9    0.43    1.55
   5 -11   9   -0.14    1.86
  -5  11  -9   -0.16    1.15
   5 -11   8    4.92    2.14
   5 -11   8    6.92    1.69
  -5  11  -8    6.83    1.65
   5 -11   7   70.85    4.93
   5 -11   7   80.48    4.25
  -5  11  -7   82.86    4.43
   5 -11   6   22.36    2.08
   5 -11   6   23.84    2.83
  -5  11  -6   21.43    2.35
   5 -11   5   23.34    2.73
   5 -11   5   19.05    1.87
  -5  11  -5   19.36    2.22
   5 -11   4    9.28    1.38
   5 -11   4    9.81    2.02
   5 -11   3    4.84    1.65
   5 -11   3    1.84    1.05
  -5  11  -3    1.98    1.49
   5 -11   2   16.96    1.60
   5 -11   2   16.43    2.27
  -5  11  -2   18.30    2.10
   5 -11   1   86.89    5.07
   5 -11   1   86.71    4.29
  -5  11  -1   91.79    4.76
   5 -11   0   24.40    1.98
   5 -11   0   22.91    2.62
  -5  11   0   21.10    2.30
   5 -11  -1   88.66    4.49
   5 -11  -1   88.02    5.21
  -5  11   1   86.31    4.73
  -5  11   2   18.48    2.21
  -5  11   3    1.55    1.47
  -5  11   4    8.58    1.88
  -5  11   5   20.11    2.46
  -5  11   6   19.01    2.52
  -5  11   7   67.81    4.43
  -5  11   8    6.15    2.12
  -5  11   9   -0.03    1.86
  -5  11  10   -1.23    1.81
  -5  11  11    2.16    2.32
  -5  11  12    1.56    2.10
  -5  11  13    6.36    2.46
  -5  11  14    0.78    2.67
   5 -12  14    1.86    2.37
   5 -12  13    2.70    2.36
   5 -12  12    4.71    2.42
   5 -12  11    3.93    2.24
   5 -12  10    5.04    2.20
   5 -12   9   10.67    2.54
  -5  12  -9   16.74    2.06
   5 -12   8    8.44    2.31
  -5  12  -8    8.64    1.93
   5 -12   7   13.22    1.74
   5 -12   7   15.89    2.71
  -5  12  -7   14.43    2.05
   5 -12   6    8.29    1.40
   5 -12   6    5.67    2.20
  -5  12  -6    8.99    1.87
   5 -12   5   18.20    1.74
   5 -12   5   17.74    2.59
  -5  12  -5   14.16    2.16
   5 -12   4    7.57    1.30
   5 -12   4    6.16    2.04
  -5  12  -4    7.29    1.68
   5 -12   3   57.00    4.04
   5 -12   3   57.70    3.22
  -5  12  -3   61.19    3.96
   5 -12   2   -0.76    1.67
   5 -12   2   -0.74    0.87
  -5  12  -2    1.29    1.47
   5 -12   1   69.45    3.74
   5 -12   1   75.41    4.67
  -5  12  -1   71.78    4.43
   5 -12   0   55.78    4.05
   5 -12   0   51.91    3.21
  -5  12   0   54.75    3.65
   5 -12  -1   74.88    5.01
  -5  12   1   82.58    4.75
  -5  12   2    0.09    1.47
  -5  12   3   57.62    3.85
  -5  12   4    5.82    2.00
  -5  12   5   12.83    2.33
  -5  12   6    9.75    2.28
  -5  12   7   12.77    2.55
  -5  12   8    9.01    2.63
  -5  12   9    8.87    2.38
  -5  12  10    9.67    2.74
  -5  12  11    6.55    2.68
  -5  12  12    9.16    2.56
  -5  12  13    0.45    2.61
  -5  12  14   -1.75    2.16
   5 -13  13    4.42    2.44
   5 -13  12    3.09    2.26
   5 -13  11    4.55    2.34
   5 -13  10   12.07    2.71
   5 -13   9    1.29    2.05
  -5  13  -9    2.85    1.39
   5 -13   8    1.66    2.10
  -5  13  -8    2.40    1.68
   5 -13   7   19.17    2.98
  -5  13  -7   15.32    2.32
   5 -13   6    4.06    2.15
  -5  13  -6    4.13    1.55
   5 -13   5   17.23    2.77
   5 -13   5   23.19    1.88
   5 -13   4   42.74    3.83
   5 -13   4   40.41    2.55
  -5  13  -4   37.34    3.48
   5 -13   3   27.64    3.17
   5 -13   3   25.94    2.06
  -5  13  -3   24.26    2.75
   5 -13   2   17.09    2.74
   5 -13   2   17.53    1.79
  -5  13  -2   14.13    2.29
   5 -13   1   20.17    1.98
   5 -13   1   21.01    2.94
  -5  13  -1   23.06    2.84
   5 -13   0   13.23    2.60
  -5  13   0   10.35    2.13
   5 -13  -1   22.91    3.10
  -5  13   1   23.98    2.80
  -5  13   2   14.97    2.34
  -5  13   3   24.83    2.84
  -5  13   4   41.29    3.64
  -5  13   5   14.50    2.55
  -5  13   6    4.52    2.18
  -5  13   7   17.79    2.77
  -5  13   8    2.20    2.02
  -5  13   9    1.85    2.05
  -5  13  10   12.46    2.74
  -5  13  11    5.65    2.42
  -5  13  12    1.96    2.26
  -5  13  13    2.37    2.44
   5 -14  13   -4.93    2.61
   5 -14  12    4.46    2.57
   5 -14  11    3.36    2.47
   5 -14  10   13.74    2.97
   5 -14   9    0.50    2.11
  -5  14  -9    2.81    1.58
   5 -14   8    2.70    2.22
  -5  14  -8    8.35    1.90
   5 -14   7    8.31    2.50
  -5  14  -7    9.23    2.09
   5 -14   6   17.88    2.92
   5 -14   5    1.93    2.13
  -5  14  -5    4.75    1.83
   5 -14   4   37.69    3.87
   5 -14   4   38.80    2.50
  -5  14  -4   33.01    3.36
   5 -14   3   26.66    2.12
   5 -14   3   25.26    3.33
  -5  14  -3   28.39    3.06
   5 -14   2   58.78    3.51
   5 -14   2   61.35    4.68
  -5  14  -2   65.29    4.58
   5 -14   1   12.19    2.65
  -5  14  -1   11.05    2.36
   5 -14   0    8.83    2.93
  -5  14   0    7.37    2.14
   5 -14  -1   12.78    2.74
  -5  14   1    7.74    2.23
  -5  14   2   60.42    4.30
  -5  14   3   31.07    3.22
  -5  14   4   33.31    3.36
  -5  14   5    3.40    2.09
  -5  14   6   19.58    2.92
  -5  14   7   10.64    2.57
  -5  14   8    5.28    2.35
  -5  14   9    2.41    2.20
  -5  14  10   18.95    3.09
  -5  14  11   -0.75    2.17
  -5  14  12    2.88    2.78
  -5  14  13   -0.74    2.45
   5 -15  12   -0.66    2.40
   5 -15  11    5.58    2.68
   5 -15  10   -1.17    2.13
   5 -15   9    9.86    2.79
  -5  15  -9   13.10    2.41
   5 -15   8    2.63    2.30
  -5  15  -8    6.91    1.89
   5 -15   7    1.25    2.13
  -5  15  -7    0.80    1.25
   5 -15   6    6.13    2.36
  -5  15  -6    3.49    1.69
   5 -15   5   11.78    2.81
  -5  15  -5   13.00    2.59
   5 -15   4    1.53    2.37
  -5  15  -4    0.79    1.82
   5 -15   3   35.01    3.97
  -5  15  -3   36.99    3.82
   5 -15   2   -0.10    2.26
  -5  15  -2   -2.82    1.76
   5 -15   1    5.89    2.51
  -5  15  -1    6.69    2.25
   5 -15   0   33.50    4.02
  -5  15   0   37.10    3.65
   5 -15  -1    4.83    2.51
  -5  15   1    6.32    2.27
  -5  15   2    0.37    2.10
  -5  15   3   35.08    3.68
  -5  15   4   -0.07    2.04
  -5  15   5   11.07    2.53
  -5  15   6    7.40    2.36
  -5  15   7   -2.72    1.85
  -5  15   8    2.74    2.23
  -5  15   9    6.48    2.44
  -5  15  10    0.24    2.18
  -5  15  11   -0.19    2.68
  -5  15  12   -3.22    2.16
   5 -16  11   -1.98    2.25
   5 -16  10    4.28    2.55
   5 -16   9   -1.29    2.18
  -5  16  -9    2.08    1.78
   5 -16   8    0.70    2.25
  -5  16  -8    1.79    1.76
   5 -16   7    1.70    2.23
  -5  16  -7    0.86    1.27
   5 -16   6    0.60    2.36
  -5  16  -6    5.87    2.25
   5 -16   5    4.96    2.58
  -5  16  -5    2.52    1.86
   5 -16   4   18.11    3.17
  -5  16  -4   14.49    2.81
   5 -16   3    3.56    2.55
  -5  16  -3    6.22    2.21
   5 -16   2    5.19    2.58
  -5  16  -2    6.71    2.28
   5 -16   1    0.92    2.34
  -5  16  -1   -0.25    2.04
   5 -16   0    2.05    2.48
  -5  16   0   -0.53    2.08
   5 -16  -1    0.55    2.32
  -5  16   1   -0.81    2.02
  -5  16   2    6.02    2.42
  -5  16   3    7.43    2.43
  -5  16   4   11.84    2.66
  -5  16   5    6.23    2.42
  -5  16   6    6.21    2.66
  -5  16   7    0.92    2.04
  -5  16   8    0.29    2.14
  -5  16   9    2.06    2.31
  -5  16  10    5.37    2.55
  -5  16  11   -0.62    2.29
   5 -17  10    3.90    2.64
   5 -17   9    1.66    2.42
  -5  17  -9    3.01    2.21
   5 -17   8    0.79    2.42
  -5  17  -8    2.38    0.73
   5 -17   7   -1.01    2.78
  -5  17  -7    1.94    1.77
   5 -17   6   -0.84    2.38
  -5  17  -6    2.59    1.84
   5 -17   5   -1.46    2.70
  -5  17  -5    1.88    1.94
   5 -17   4   -0.48    2.29
  -5  17  -4   -0.57    1.75
   5 -17   3    8.87    2.80
  -5  17  -3   12.34    2.58
   5 -17   2   -1.92    2.16
  -5  17  -2   -1.63    2.23
   5 -17   1    4.90    2.68
  -5  17  -1    9.55    2.51
   5 -17   0    5.49    2.63
  -5  17   0    8.33    2.47
  -5  17   1    6.29    2.79
  -5  17   2    2.41    2.18
  -5  17   3    7.26    2.43
  -5  17   4   -2.43    1.96
  -5  17   5   -0.49    2.08
  -5  17   6    0.70    2.20
  -5  17   7    1.25    2.31
  -5  17   8    0.96    2.20
  -5  17   9    3.21    2.84
  -5  17  10   -3.85    2.61
   5 -18  10    7.54    2.98
   5 -18   9   -1.44    2.57
   5 -18   8    2.49    2.63
  -5  18  -8    2.42    2.12
   5 -18   7    3.60    2.89
  -5  18  -7    2.57    2.14
   5 -18   6    0.88    2.57
  -5  18  -6    2.61    2.19
   5 -18   5    3.16    2.68
  -5  18  -5    5.03    2.52
   5 -18   4    7.42    2.84
  -5  18  -4    7.07    2.38
   5 -18   3    4.78    2.61
  -5  18  -3    3.34    2.50
   5 -18   2    9.23    2.84
  -5  18  -2    5.33    2.31
   5 -18   1   -1.68    2.23
  -5  18  -1   -1.65    2.42
   5 -18   0    8.82    3.13
  -5  18   0    4.02    2.31
  -5  18   1    1.57    2.14
  -5  18   2    8.60    2.94
  -5  18   3    2.14    2.28
  -5  18   4   10.55    2.74
  -5  18   5   -2.80    2.06
  -5  18   6    2.61    2.35
  -5  18   7    9.16    2.80
  -5  18   8    1.28    2.49
  -5  18   9    4.94    2.67
  -5  18  10    1.69    2.63
   5 -19   8    3.47    2.95
  -5  19  -8    0.39    2.11
   5 -19   7    2.00    3.31
  -5  19  -7    4.66    2.14
   5 -19   6    6.86    2.96
  -5  19  -6   -1.02    1.78
   5 -19   5    4.66    2.84
  -5  19  -5    7.78    2.52
   5 -19   4    8.65    3.01
  -5  19  -4   11.72    2.73
   5 -19   3    4.24    2.72
  -5  19  -3    3.09    2.17
   5 -19   2    0.60    2.51
  -5  19  -2    6.40    2.42
   5 -19   1   12.66    3.15
  -5  19  -1    7.30    2.63
   5 -19   0    1.59    2.52
  -5  19   0   -1.41    2.10
  -5  19   1    5.64    2.48
  -5  19   2    0.78    2.26
  -5  19   3    5.03    2.43
  -5  19   4    7.89    2.79
  -5  19   5    2.73    2.36
  -5  19   6    1.96    2.87
  -5  19   7   -0.99    2.39
  -5  19   8    2.40    2.57
   5 -20   7   -2.88    2.58
  -5  20  -7    0.80    1.89
   5 -20   6    0.44    2.59
  -5  20  -6    3.63    2.30
   5 -20   5   -1.24    3.07
  -5  20  -5    2.55    2.30
   5 -20   4   -1.29    2.32
  -5  20  -4    0.24    2.07
   5 -20   3    7.65    2.98
  -5  20  -3   10.51    2.76
   5 -20   2   -1.62    2.43
  -5  20  -2   -1.84    1.95
   5 -20   1    1.88    2.55
  -5  20  -1    0.15    2.63
  -5  20   0    2.92    2.73
  -5  20   1   -0.90    2.26
  -5  20   2    4.93    2.54
  -5  20   3    7.12    2.73
  -5  20   4    0.09    2.38
  -5  20   5   -1.20    2.19
  -5  20   6    3.50    2.54
  -5  20   7   -1.70    2.34
   5 -21   5    1.44    2.69
  -5  21  -5   -3.40    1.90
   5 -21   4    3.65    2.82
  -5  21  -4   -2.94    2.51
   5 -21   3   -2.31    2.93
  -5  21  -3    0.00    2.62
   5 -21   2    2.74    2.68
  -5  21  -2    2.12    2.38
   5 -21   1    3.58    2.70
  -5  21  -1   -1.59    2.08
  -5  21   0    3.59    2.37
  -5  21   1    3.13    2.58
  -5  21   2    1.13    2.42
  -5  21   3    0.35    2.41
  -5  21   4    1.67    2.34
  -5  21   5    0.55    2.44
   5 -22   2    0.17    3.01
  -5  22  -2    2.50    2.45
  -5  22  -1    0.06    2.21
  -5  22   0    4.40    2.75
  -5  22   1    0.67    2.43
  -5  22   2    2.93    2.60
   6  16   3    0.57    2.74
   6  16   2    3.49    2.47
   6  16   1    0.22    2.17
   6  16   0    3.90    2.40
   6  16  -1    1.40    2.27
   6  16  -2   -1.55    2.06
   6  16  -3   -0.17    2.08
   6  15   6    2.27    2.42
   6  15   5   -0.15    2.15
   6  15   4    4.46    2.51
   6  15   3    0.40    2.18
   6  15   2    2.85    2.22
   6  15   1   -0.72    2.13
   6  15   0    3.50    2.27
   6  15  -1   -0.67    2.01
   6  15  -2    1.18    2.14
   6  15  -3   -2.02    2.42
   6  15  -4    1.30    2.28
   6  15  -5    1.66    2.24
  -6 -15   5   -1.11    2.44
   6  15  -6   -1.86    2.03
  -6 -15   6    0.53    2.76
   6  14   7    1.88    2.26
   6  14   7   -1.56    1.84
   6  14   6   -1.85    2.00
   6  14   6   -0.13    0.76
   6  14   5    0.79    2.18
   6  14   4    3.36    2.27
   6  14   3    5.34    2.49
   6  14   2   -0.39    2.11
   6  14   1    2.49    2.54
   6  14   0   -1.29    1.96
   6  14  -1    1.00    2.03
   6  14  -2    2.25    2.18
   6  14  -3    4.18    2.34
   6  14  -4    7.22    2.50
  -6 -14   4    0.14    2.41
   6  14  -5   -1.02    2.07
  -6 -14   5    3.98    2.64
   6  14  -6   -1.00    2.03
  -6 -14   6    0.62    2.60
   6  14  -7   -1.75    2.01
  -6 -14   7    1.19    2.71
   6  13   9   -0.22    2.63
   6  13   9   -0.56    2.69
   6  13   8   -0.31    2.46
   6  13   8    2.03    2.61
   6  13   7    2.96    2.61
   6  13   7    0.80    2.38
   6  13   6    3.46    2.55
   6  13   6    0.24    2.21
   6  13   5    2.62    2.25
   6  13   5    6.27    2.41
   6  13   4   -0.93    1.98
   6  13   4   -3.87    1.26
   6  13   3    8.61    2.58
   6  13   2    3.41    2.21
   6  13   1    2.28    2.04
   6  13   0    1.80    2.03
   6  13  -1    1.62    1.98
   6  13  -2    0.98    2.05
   6  13  -3    9.08    2.46
   6  13  -4   -1.70    1.91
  -6 -13   4    0.02    2.71
   6  13  -5    2.20    2.27
  -6 -13   5    4.66    2.60
   6  13  -6    0.43    1.96
  -6 -13   6    3.09    2.70
   6  13  -7    3.12    2.28
  -6 -13   7    2.66    3.08
   6  13  -8    3.48    2.22
  -6 -13   8    1.27    3.05
   6  13  -9    5.86    2.67
  -6 -13   9   -1.06    2.60
   6  12  10    0.83    2.47
   6  12  10    4.08    2.53
   6  12   9    0.32    2.24
   6  12   9    0.87    2.41
   6  12   8   -3.05    2.18
   6  12   8   -2.22    2.29
   6  12   7    2.96    2.19
   6  12   7    1.56    2.45
   6  12   6    4.46    2.07
   6  12   6    2.82    2.11
   6  12   5    4.02    2.18
   6  12   4    6.86    2.66
   6  12   4    2.03    1.93
   6  12   3    3.97    2.13
   6  12   3    1.05    1.67
   6  12   2    0.61    2.22
   6  12   1    7.83    2.30
   6  12   0    1.47    1.98
   6  12  -1    3.43    2.01
   6  12  -2   -3.33    1.60
   6  12  -3    2.62    2.00
  -6 -12   3    1.20    2.66
   6  12  -4    7.53    2.29
  -6 -12   4    7.70    2.68
   6  12  -5    0.36    2.03
  -6 -12   5    3.08    2.47
   6  12  -6    2.52    2.05
  -6 -12   6    4.63    2.58
   6  12  -7    7.34    2.41
  -6 -12   7   -0.28    2.42
   6  12  -8   -0.53    1.87
  -6 -12   8   -0.37    2.48
   6  12  -9    0.72    1.96
  -6 -12   9    0.59    2.53
   6  12 -10    4.87    2.20
  -6 -12  10   -0.25    2.65
   6  11  11    0.85    2.58
   6  11  10    1.21    2.47
   6  11  10   -0.25    2.28
   6  11   9    2.15    2.71
   6  11   9    2.19    2.05
   6  11   8    6.87    2.56
   6  11   8   -0.31    2.07
   6  11   7    4.27    2.14
   6  11   7    5.15    2.19
   6  11   6    3.26    1.98
   6  11   6    5.61    2.05
   6  11   5    0.56    1.88
   6  11   5    1.11    1.73
   6  11   4    0.48    1.88
   6  11   4    2.74    1.64
   6  11   3    1.83    1.71
   6  11   3    4.52    2.39
   6  11   2   -0.73    1.38
   6  11   2   -1.36    1.86
   6  11   1    0.74    1.86
   6  11   0    0.49    1.92
   6  11  -1    0.89    1.90
   6  11  -2    1.37    2.20
   6  11  -3    1.23    1.92
  -6 -11   3    3.73    2.70
   6  11  -4    0.53    2.29
  -6 -11   4    7.81    2.57
   6  11  -5    0.91    1.95
  -6 -11   5    4.14    2.72
   6  11  -6    3.89    2.06
  -6 -11   6   -0.14    2.61
   6  11  -7    0.54    1.94
  -6 -11   7    2.52    2.85
   6  11  -8    1.35    1.93
  -6 -11   8    0.33    2.39
   6  11  -9    0.59    1.85
  -6 -11   9    0.28    2.49
   6  11 -10    2.82    2.07
  -6 -11  10   -2.46    2.82
   6  11 -11    1.48    2.16
  -6 -11  11    0.04    2.52
   6  10  11   -1.10    2.27
   6  10  10    4.75    2.45
   6  10  10    1.77    2.40
   6  10   9    0.70    2.25
   6  10   9    2.45    2.37
   6  10   8   -0.22    2.19
   6  10   8   -3.42    1.82
   6  10   7    2.23    2.05
   6  10   7    6.70    2.36
   6  10   6   -0.55    1.70
   6  10   6    3.36    1.90
   6  10   5    1.69    2.03
   6  10   5    2.65    1.89
   6  10   4    5.30    2.47
   6  10   3   12.63    2.19
   6  10   3   13.77    2.53
   6  10   2   15.72    2.72
   6  10   2   14.76    2.22
   6  10   1    8.47    2.27
   6  10   1   10.22    1.83
   6  10   0   -2.13    1.81
   6  10   0   -0.38    1.36
   6  10  -1   10.61    2.44
   6  10  -2   17.15    2.69
   6  10  -3   13.89    2.54
  -6 -10   3    7.72    2.92
   6  10  -4    1.54    1.93
  -6 -10   4    2.57    2.23
   6  10  -5    1.15    1.88
  -6 -10   5    2.85    2.31
   6  10  -6    1.28    1.85
  -6 -10   6    1.19    2.18
   6  10  -7    4.64    2.03
  -6 -10   7    5.09    2.80
   6  10  -8   -2.61    1.53
  -6 -10   8   -0.16    2.65
   6  10  -9    1.11    2.16
  -6 -10   9    0.61    2.82
   6  10 -10    3.14    2.06
  -6 -10  10    2.51    2.53
   6  10 -11    0.48    1.95
  -6 -10  11   -0.60    2.85
   6   9  12   -4.38    2.23
   6   9  11    2.18    2.60
   6   9  10    7.34    2.86
   6   9  10   12.03    2.71
   6   9   9    5.49    2.44
   6   9   9   -2.11    2.04
   6   9   8    1.26    2.05
   6   9   8    0.90    2.07
   6   9   7    5.00    2.19
   6   9   7    5.25    2.23
   6   9   6   -0.37    1.63
   6   9   6   -0.56    1.70
   6   9   5    8.32    2.36
   6   9   5    5.76    2.31
   6   9   4   10.29    2.24
   6   9   4   10.39    2.34
   6   9   3    6.06    1.71
   6   9   3   11.00    2.29
   6   9   2   26.22    2.61
   6   9   2   26.83    3.04
   6   9   1   15.46    2.01
   6   9   1   14.72    2.38
   6   9   0   29.72    3.19
   6   9   0   32.56    2.62
   6   9  -1   13.25    1.75
   6   9  -1   15.76    2.53
   6   9  -2   27.19    3.09
  -6  -9   2   23.44    3.18
   6   9  -3   11.47    2.36
  -6  -9   3    9.41    2.86
   6   9  -4    9.85    2.38
  -6  -9   4   14.53    3.10
   6   9  -5    7.93    2.21
  -6  -9   5   14.40    2.72
   6   9  -6   -2.24    1.67
  -6  -9   6    2.13    2.15
   6   9  -7    4.45    1.98
  -6  -9   7    6.22    2.40
   6   9  -8    1.59    1.80
  -6  -9   8   -1.34    2.04
   6   9  -9    1.90    2.16
  -6  -9   9    5.72    2.46
   6   9 -10    5.94    2.18
  -6  -9  10    0.47    2.68
   6   9 -11    3.43    2.04
  -6  -9  11    2.28    2.72
   6   9 -12    3.60    2.27
  -6  -9  12    3.51    2.88
   6   8  13    2.90    2.65
   6   8  12    1.10    2.63
   6   8  11    2.66    2.67
   6   8  10    1.05    2.05
   6   8  10    2.82    2.33
   6   8   9    4.81    2.45
   6   8   9    7.84    2.11
   6   8   8    1.47    2.16
   6   8   8    5.69    2.22
   6   8   7    5.79    1.91
   6   8   7    2.68    2.05
   6   8   6    5.33    1.87
   6   8   6    2.50    1.94
   6   8   5   24.08    2.79
   6   8   5   22.77    2.74
   6   8   4    0.93    1.55
   6   8   4   -1.47    1.57
   6   8   3   82.75    4.90
   6   8   2    0.92    1.71
   6   8   2   -2.26    1.38
   6   8   1   16.26    2.69
   6   8   1   20.66    2.16
   6   8   0   52.58    3.74
   6   8   0   49.74    3.19
   6   8  -1   14.75    1.75
   6   8  -1   14.50    2.34
   6   8  -2   -0.51    1.69
   6   8  -2    0.94    1.01
  -6  -8   2    3.43    2.06
   6   8  -3   76.84    4.91
  -6  -8   3   83.89    5.50
   6   8  -4    0.44    1.78
  -6  -8   4    0.39    2.25
   6   8  -5   23.58    2.92
  -6  -8   5   23.08    3.04
   6   8  -6    7.02    2.10
  -6  -8   6    4.86    2.27
   6   8  -7    2.39    1.86
  -6  -8   7    2.88    2.50
   6   8  -8    1.92    1.82
  -6  -8   8    2.97    2.10
   6   8  -9    7.32    2.12
  -6  -8   9    6.49    2.61
   6   8 -10    0.58    1.77
  -6  -8  10   -2.24    1.82
   6   8 -11    5.32    2.33
  -6  -8  11    4.96    2.40
   6   8 -12    3.08    1.88
  -6  -8  12   -0.23    2.11
   6   8 -13    1.92    2.21
  -6  -8  13    0.50    2.66
   6   7  13    0.82    2.62
   6   7  12    4.04    2.75
   6   7  11   -0.14    2.40
   6   7  10    6.08    2.26
   6   7  10    0.32    2.21
   6   7   9    2.62    2.21
   6   7   9    3.30    1.95
   6   7   8    5.37    2.30
   6   7   8    6.33    2.17
   6   7   7    4.46    1.84
   6   7   7    6.71    2.25
   6   7   6    0.14    1.76
   6   7   6    1.50    1.89
   6   7   5    3.14    1.72
   6   7   5    1.89    1.95
   6   7   4   46.10    3.34
   6   7   4   44.38    3.31
   6   7   3   25.47    2.73
   6   7   3    9.89    1.69
   6   7   2    0.00    1.37
   6   7   2    2.40    1.63
   6   7   1    5.60    1.72
   6   7   1    7.08    1.53
   6   7   0    4.24    1.68
   6   7   0    3.95    1.38
   6   7  -1    8.64    1.50
   6   7  -1    6.77    1.76
   6   7  -2    0.59    1.03
   6   7  -2    1.76    1.50
  -6  -7   2    1.50    1.72
   6   7  -3   23.49    2.68
   6   7  -3   23.67    1.61
  -6  -7   3   22.69    2.92
   6   7  -4   49.47    3.73
  -6  -7   4   52.08    3.88
   6   7  -5    1.08    1.67
  -6  -7   5    2.17    1.90
   6   7  -6    0.03    1.64
  -6  -7   6    0.14    1.81
   6   7  -7   11.07    2.48
  -6  -7   7   13.74    2.80
   6   7  -8    7.84    2.08
  -6  -7   8    5.72    2.42
   6   7  -9    3.85    1.84
  -6  -7   9    0.86    1.83
   6   7 -10    0.84    2.09
  -6  -7  10   -0.14    2.22
   6   7 -11   -0.59    1.56
  -6  -7  11    0.43    2.40
   6   7 -12    1.13    1.76
  -6  -7  12   -2.02    2.39
   6   7 -13    2.47    2.29
  -6  -7  13    0.39    2.58
   6   6  14    2.81    2.64
   6   6  13    1.82    2.56
   6   6  12    1.80    2.47
   6   6  11    0.86    2.30
   6   6  10    7.36    2.60
   6   6  10   10.11    2.32
   6   6   9    2.79    1.90
   6   6   9    3.72    2.28
   6   6   8    3.61    2.22
   6   6   8    6.60    2.03
   6   6   7    6.60    1.79
   6   6   7    8.27    2.30
   6   6   6   26.75    2.95
   6   6   6   28.56    2.72
   6   6   5   20.46    2.48
   6   6   5   20.82    2.50
   6   6   4   26.84    2.65
   6   6   4   29.15    2.65
   6   6   3   12.55    1.84
   6   6   3   12.23    2.06
   6   6   2    2.79    1.44
   6   6   2    1.15    1.28
   6   6   1   62.89    3.79
   6   6   1   62.76    3.57
   6   6   0   22.51    2.34
   6   6   0   22.43    2.07
   6   6  -1   61.12    3.44
   6   6  -1   69.40    3.96
   6   6  -2    3.43    1.55
   6   6  -2    2.38    1.04
  -6  -6   2    0.41    1.45
   6   6  -3    7.85    1.88
   6   6  -3   16.73    1.39
  -6  -6   3   15.82    2.26
   6   6  -4   30.89    2.84
   6   6  -4   26.22    1.53
  -6  -6   4   29.74    3.11
   6   6  -5   21.04    2.63
  -6  -6   5   23.48    2.92
   6   6  -6   26.99    2.84
  -6  -6   6   28.33    2.94
   6   6  -7    7.04    1.97
  -6  -6   7    4.03    2.15
   6   6  -8    3.15    1.81
  -6  -6   8    3.15    2.18
   6   6  -9    1.43    2.04
  -6  -6   9    2.64    1.86
   6   6 -10    8.09    2.08
  -6  -6  10    5.81    2.08
   6   6 -11   -0.71    1.80
  -6  -6  11    1.66    2.34
   6   6 -12    1.92    1.78
  -6  -6  12    3.13    2.43
   6   6 -13    4.12    1.90
  -6  -6  13    1.24    2.49
   6   6 -14    3.29    2.17
  -6  -6  14    2.17    2.49
   6   5  14    2.15    2.55
   6   5  13   11.96    3.18
   6   5  12    0.92    1.81
   6   5  11   -1.07    2.08
   6   5  10    0.27    2.15
   6   5  10    3.98    1.89
   6   5   9    1.03    1.67
   6   5   9    0.02    2.11
   6   5   8    3.81    2.20
   6   5   8    5.81    1.84
   6   5   7   70.30    4.28
   6   5   7   75.42    4.89
   6   5   6   16.44    2.46
   6   5   6   18.12    2.26
   6   5   5   21.38    2.38
   6   5   5   23.52    2.52
   6   5   4    6.64    1.66
   6   5   4    7.62    1.51
   6   5   3    5.31    1.58
   6   5   3    5.98    1.61
   6   5   2   14.50    1.99
   6   5   1   77.89    4.40
   6   5   1   88.94    4.34
   6   5   0   17.54    2.09
   6   5   0   22.54    1.88
   6   5  -1   84.07    4.54
   6   5  -1   84.07    4.20
   6   5  -2   18.85    2.19
   6   5  -2   19.58    1.66
  -6  -5   2   18.44    2.23
   6   5  -3    4.88    1.50
   6   5  -3    4.09    0.93
  -6  -5   3    3.99    1.46
   6   5  -4    7.38    1.74
   6   5  -4    7.89    0.91
  -6  -5   4    8.80    2.00
   6   5  -5   22.42    2.44
  -6  -5   5   19.10    2.55
   6   5  -6   19.91    2.44
  -6  -5   6   18.17    2.32
   6   5  -7   74.69    4.60
  -6  -5   7   75.11    4.71
   6   5  -8    4.09    1.81
  -6  -5   8    5.87    1.87
   6   5  -9    0.82    1.63
  -6  -5   9   -1.14    1.60
   6   5 -10   -1.34    1.39
  -6  -5  10   -0.67    1.97
   6   5 -11    1.95    1.61
  -6  -5  11    1.49    1.79
   6   5 -12    1.58    1.73
  -6  -5  12   -1.48    1.98
   6   5 -13    9.59    2.28
  -6  -5  13    9.14    2.64
   6   5 -14    1.19    1.80
  -6  -5  14    1.96    2.35
   6   4  14    5.12    2.77
   6   4  13    8.27    2.85
   6   4  12   -0.25    2.24
   6   4  11    4.88    2.47
   6   4  10   -0.67    2.07
   6   4   9    9.93    2.61
   6   4   9   10.65    2.02
   6   4   8   13.68    2.68
   6   4   8   17.53    2.23
   6   4   7   90.52    5.34
   6   4   7   98.61    4.97
   6   4   6   42.49    3.33
   6   4   6   41.38    2.96
   6   4   5   55.31    3.62
   6   4   5   54.65    3.30
   6   4   4   -0.52    1.18
   6   4   4    1.50    1.31
   6   4   3   24.35    2.31
   6   4   3   20.32    1.98
   6   4   2    7.71    1.41
   6   4   2    9.89    1.47
   6   4   1  118.59    5.82
   6   4   1  132.73    6.02
   6   4   0   65.70    3.59
   6   4   0   61.24    3.36
   6   4  -1  131.60    6.27
   6   4  -1  132.67    6.09
   6   4  -2    9.51    1.26
   6   4  -2    8.32    1.57
  -6  -4   2   13.81    1.78
   6   4  -3   27.06    1.80
   6   4  -3   29.96    2.35
  -6  -4   3   23.03    2.43
   6   4  -4    3.61    1.35
   6   4  -4    1.67    0.74
  -6  -4   4    1.48    1.20
   6   4  -5   58.59    3.63
  -6  -4   5   57.71    3.71
   6   4  -6   45.93    3.30
  -6  -4   6   45.00    3.27
   6   4  -7  100.77    5.58
  -6  -4   7  104.71    5.62
   6   4  -8   15.30    2.34
  -6  -4   8   16.05    2.43
   6   4  -9    8.88    2.06
  -6  -4   9   13.25    2.38
   6   4 -10   -1.35    1.43
  -6  -4  10   -2.31    1.61
   6   4 -11    1.17    1.85
  -6  -4  11    0.08    1.54
   6   4 -12    2.84    1.97
  -6  -4  12    0.86    2.00
   6   4 -13   12.55    2.65
  -6  -4  13    9.86    2.36
   6   4 -14    5.14    2.21
  -6  -4  14    1.46    2.19
   6   3  15    2.20    2.64
   6   3  14   11.07    3.09
   6   3  13    0.97    2.38
   6   3  12    4.64    2.45
   6   3  11    4.51    2.38
   6   3  10   -0.07    2.10
   6   3   9    0.13    1.96
   6   3   9    0.02    1.48
   6   3   8   36.25    2.78
   6   3   8   35.43    3.33
   6   3   7    7.63    1.61
   6   3   7    3.81    1.85
   6   3   6  130.59    6.68
   6   3   6  130.64    6.12
   6   3   5   35.26    2.81
   6   3   5   33.91    2.36
   6   3   4    4.71    1.41
   6   3   4    3.03    1.17
   6   3   3    2.08    1.16
   6   3   3    2.51    1.01
   6   3   2    6.66    1.29
   6   3   2    6.56    1.22
   6   3   1    5.16    1.17
   6   3   0  223.56    9.93
   6   3   0  233.08    9.90
   6   3  -1    3.62    1.06
   6   3  -1    5.80    1.28
   6   3  -2    5.53    1.05
   6   3  -2    5.69    1.31
  -6  -3   2    7.52    1.52
   6   3  -3    2.41    0.86
   6   3  -3    1.89    1.16
  -6  -3   3    3.26    1.25
   6   3  -4    4.19    0.88
   6   3  -4    4.15    1.30
  -6  -3   4    2.00    1.28
   6   3  -5   34.37    2.61
   6   3  -5   32.96    1.99
  -6  -3   5   35.49    2.55
   6   3  -6  127.37    6.39
  -6  -3   6  128.59    6.27
   6   3  -7    5.71    1.90
  -6  -3   7   10.23    1.88
   6   3  -8   33.77    3.08
  -6  -3   8   31.80    2.67
   6   3  -9   -0.56    1.76
  -6  -3   9    0.84    1.71
   6   3 -10    1.87    1.57
  -6  -3  10    0.20    1.71
   6   3 -11    4.34    1.69
  -6  -3  11    5.29    2.05
   6   3 -12    3.38    1.76
  -6  -3  12    1.24    1.95
   6   3 -13   -0.92    1.88
  -6  -3  13   -0.10    1.99
   6   3 -14    5.42    2.24
  -6  -3  14    5.09    2.51
   6   3 -15    0.48    1.64
  -6  -3  15   -3.35    2.03
   6   2  15   -0.50    2.49
   6   2  14    6.01    2.75
   6   2  13    4.53    2.47
   6   2  12    3.17    2.22
   6   2  11   -1.76    1.91
   6   2  10    0.17    2.10
   6   2   9   10.67    1.69
   6   2   9   10.43    2.09
   6   2   8    2.84    1.87
   6   2   8    0.52    1.30
   6   2   7   31.05    2.32
   6   2   7   34.36    3.12
   6   2   6   56.50    3.64
   6   2   6   50.84    2.97
   6   2   5    1.76    1.39
   6   2   5    2.54    1.00
   6   2   4   33.25    2.15
   6   2   4   32.28    2.49
   6   2   3    3.02    1.05
   6   2   3    4.54    1.30
   6   2   2   12.02    1.32
   6   2   2   11.83    1.62
   6   2   1   34.77    2.35
   6   2   1   35.57    2.29
   6   2   0    9.36    1.30
   6   2   0   12.98    1.51
   6   2  -1   30.10    2.01
   6   2  -1   30.01    2.08
   6   2  -2   11.77    1.32
   6   2  -2   11.31    1.49
  -6  -2   2   13.20    1.49
   6   2  -3    6.25    1.02
   6   2  -3    3.50    1.15
  -6  -2   3    3.27    1.14
   6   2  -4   36.18    2.47
   6   2  -4   29.05    2.00
  -6  -2   4   36.75    2.42
   6   2  -5    2.31    1.18
   6   2  -5    1.41    0.80
  -6  -2   5    2.98    1.11
   6   2  -6   49.64    3.26
  -6  -2   6   53.54    3.18
   6   2  -7   34.68    3.06
  -6  -2   7   31.79    2.54
   6   2  -8    0.01    1.34
  -6  -2   8    0.02    1.46
   6   2  -9    8.15    1.89
  -6  -2   9   12.70    2.11
   6   2 -10    0.08    1.50
  -6  -2  10   -0.26    1.65
   6   2 -11   -1.09    1.41
  -6  -2  11    0.85    1.75
   6   2 -12   -2.71    1.62
  -6  -2  12    1.44    1.85
   6   2 -13    1.97    1.71
  -6  -2  13    5.46    1.91
   6   2 -14   -0.89    1.83
  -6  -2  14    0.08    1.71
   6   2 -15   -0.33    1.82
  -6  -2  15   -0.95    2.11
   6   1  15   -1.17    2.96
   6   1  14    0.99    2.52
   6   1  13    2.42    2.29
   6   1  12    3.75    2.28
   6   1  11    8.44    2.40
   6   1  10    0.57    1.99
   6   1   9   29.57    3.20
   6   1   9   27.16    2.19
   6   1   8    8.40    1.78
   6   1   8    9.70    1.45
   6   1   7   39.87    2.39
   6   1   7   41.75    3.23
   6   1   6    2.94    1.54
   6   1   6    4.40    1.03
   6   1   5   96.01    4.99
   6   1   5   97.72    4.42
   6   1   4   29.60    1.90
   6   1   4   27.35    2.29
   6   1   3  126.83    6.02
   6   1   3  126.62    5.58
   6   1   2    3.89    1.12
   6   1   2    3.20    0.86
   6   1   1   49.55    2.86
   6   1   1   53.38    2.78
   6   1   0   50.36    2.69
   6   1  -1   55.60    3.04
   6   1  -1   59.76    3.09
   6   1  -2    1.28    0.90
   6   1  -2    2.52    0.92
  -6  -1   2    3.95    0.92
   6   1  -3  127.89    5.89
   6   1  -3  134.89    6.04
  -6  -1   3  128.58    6.00
   6   1  -4   30.26    2.11
   6   1  -4   30.87    2.01
  -6  -1   4   30.79    1.99
   6   1  -5   90.61    4.51
   6   1  -5   94.19    4.78
  -6  -1   5   98.97    4.67
   6   1  -6    2.02    1.21
  -6  -1   6    2.55    1.05
   6   1  -7   42.40    3.11
  -6  -1   7   39.57    2.72
   6   1  -8    7.31    1.99
  -6  -1   8    9.88    1.73
   6   1  -9   26.02    2.67
  -6  -1   9   26.48    2.58
   6   1 -10    1.38    1.57
  -6  -1  10    3.48    1.73
   6   1 -11    7.28    1.95
  -6  -1  11    8.77    2.11
   6   1 -12    2.39    1.86
  -6  -1  12    1.65    1.72
   6   1 -13   -1.05    1.72
  -6  -1  13    0.78    1.78
   6   1 -14   -0.13    1.49
  -6  -1  14    1.30    1.96
   6   1 -15    0.54    1.61
  -6  -1  15   -1.54    1.91
   6   0  15    3.40    2.75
   6   0  14    0.41    2.41
   6   0  13   -0.88    2.05
   6   0  12   -0.27    2.04
   6   0  11    6.13    2.45
   6   0  10   53.30    4.31
   6   0   9   22.63    1.80
   6   0   9   17.57    2.72
   6   0   8   12.49    2.27
   6   0   8    9.64    1.33
   6   0   7    4.23    1.37
   6   0   7    4.35    0.96
   6   0   6   72.39    4.20
   6   0   6   72.76    3.37
   6   0   5   68.73    3.81
   6   0   5   70.08    3.23
   6   0   4   62.17    3.62
   6   0   4   66.92    3.05
   6   0   3  105.40    4.56
   6   0   3  102.04    5.02
   6   0   2  175.00    7.76
   6   0   2  170.18    7.32
   6   0   1   44.95    2.61
   6   0   1   42.44    2.27
   6   0   0  129.80    6.03
   6   0   0  134.43    5.84
   6   0  -1   22.09    1.54
   6   0  -2  178.28    7.71
  -6   0   2  174.82    7.72
   6   0  -3  107.97    5.09
   6   0  -3  113.62    5.11
  -6   0   3  106.49    4.97
   6   0  -4   67.77    3.40
   6   0  -4   67.03    3.55
  -6   0   4   65.00    3.27
   6   0  -5   68.75    3.74
   6   0  -5   70.12    3.57
  -6   0   5   69.12    3.45
   6   0  -6   70.22    3.92
  -6   0   6   71.52    3.67
   6   0  -7    3.80    1.32
  -6   0   7    3.74    1.29
   6   0  -8    8.48    1.77
  -6   0   8   11.88    1.69
   6   0  -9   19.76    2.40
  -6   0   9   24.78    2.43
   6   0 -10   49.50    3.58
  -6   0  10   51.52    3.59
   6   0 -11    9.26    2.00
  -6   0  11   12.90    2.22
   6   0 -12    0.69    1.48
  -6   0  12   -0.27    1.66
   6   0 -13   -0.43    1.73
  -6   0  13   -0.07    1.71
   6   0 -14   -1.02    1.72
  -6   0  14   -0.65    1.84
   6   0 -15    2.05    2.14
  -6   0  15    2.72    2.07
   6  -1  15    3.61    2.65
   6  -1  14    0.86    2.41
   6  -1  13    1.62    2.29
   6  -1  12    5.38    2.36
   6  -1  11    4.88    2.30
   6  -1  10   80.94    5.26
   6  -1   9   24.87    3.00
   6  -1   8   -0.12    0.78
   6  -1   8    0.19    1.59
   6  -1   7   62.61    3.99
   6  -1   7   65.70    2.97
   6  -1   6   90.47    4.86
   6  -1   6   92.11    3.94
   6  -1   5   60.60    2.67
   6  -1   5   56.32    3.47
   6  -1   4  118.31    5.03
   6  -1   4  121.72    5.77
   6  -1   3  172.10    7.72
   6  -1   3  168.79    7.06
   6  -1   2  395.47   16.71
   6  -1   2  394.51   15.99
   6  -1   1  122.81    5.67
   6  -1   1  121.09    5.28
   6  -1   0   11.47    1.22
   6  -1   0   10.48    1.34
   6  -1  -1  123.70    5.44
   6  -1  -1  120.20    5.62
   6  -1  -2  398.80   15.92
   6  -1  -2  381.84   15.54
  -6   1   2  352.29   15.79
   6  -1  -3  173.58    7.50
  -6   1   3  168.61    7.34
   6  -1  -4  109.16    5.13
  -6   1   4  107.43    4.85
   6  -1  -5   61.31    3.40
  -6   1   5   61.10    3.09
   6  -1  -6   99.44    4.93
  -6   1   6   96.20    4.67
   6  -1  -7   60.15    3.59
  -6   1   7   61.95    3.43
   6  -1  -8    0.36    1.25
   6  -1  -9   17.76    2.25
   6  -1 -10   63.69    4.07
   6  -1 -11    8.90    2.00
   6  -1 -12    4.73    1.94
   6  -1 -13    2.28    1.64
   6  -1 -14    2.97    2.09
   6  -1 -15    0.15    1.77
  -6   1  15   -1.13    1.51
   6  -2  15    4.01    3.03
   6  -2  14    2.16    2.41
   6  -2  13   -2.82    1.97
   6  -2  12    1.20    2.14
   6  -2  11   24.94    3.23
   6  -2  10   16.43    2.71
   6  -2   9   22.61    2.83
   6  -2   8    1.95    0.64
   6  -2   8    2.92    1.63
   6  -2   7    5.05    1.65
   6  -2   7    9.32    0.68
   6  -2   6  135.11    6.61
   6  -2   6  136.93    5.50
   6  -2   5   14.44    0.75
   6  -2   5   14.31    1.81
   6  -2   4   14.13    0.80
   6  -2   4   11.71    1.58
   6  -2   3  235.72    9.42
   6  -2   3  227.79   10.19
   6  -2   2  261.79   11.33
   6  -2   2  262.87   10.68
   6  -2   1   10.47    0.98
   6  -2   1    9.17    1.22
   6  -2   0    1.27    0.98
   6  -2   0    0.48    0.74
   6  -2  -1    9.30    1.30
   6  -2  -1   10.35    1.12
   6  -2  -2  238.91   10.17
   6  -2  -2  229.90    9.89
   6  -2  -3  228.93    9.68
   6  -2  -3  217.38    9.47
  -6   2   3  219.20    9.34
   6  -2  -4   14.73    1.55
   6  -2  -4   15.27    1.55
  -6   2   4   11.92    1.03
   6  -2  -5   12.51    1.53
   6  -2  -5   11.58    1.42
   6  -2  -6  142.90    6.72
   6  -2  -7    6.28    1.44
   6  -2  -8    1.50    1.30
   6  -2  -9   17.48    2.25
   6  -2 -10   11.86    2.09
   6  -2 -11   20.92    2.62
   6  -2 -12    1.04    1.53
   6  -2 -13    1.34    1.93
   6  -2 -14    4.96    2.23
   6  -2 -15   -1.14    1.99
   6  -3  15    0.01    2.76
   6  -3  14    3.09    2.36
   6  -3  13    7.61    2.41
   6  -3  12    2.94    2.04
   6  -3  11   24.51    3.10
   6  -3  10    1.26    1.88
   6  -3   9   19.61    2.51
   6  -3   8   17.49    2.32
   6  -3   7   49.13    3.28
   6  -3   6  179.51    8.33
   6  -3   5   78.91    4.18
   6  -3   4  148.87    6.88
   6  -3   3  130.91    6.17
   6  -3   3  134.05    5.42
   6  -3   2   -0.03    0.50
   6  -3   2   -0.42    1.01
   6  -3   1  321.75   14.07
   6  -3   1  339.71   13.45
   6  -3   0    3.14    0.81
   6  -3   0    3.12    1.09
   6  -3  -1  309.36   13.79
   6  -3  -1  341.15   13.40
   6  -3  -2    0.53    0.87
   6  -3  -2   -0.72    0.76
   6  -3  -3  133.93    6.15
   6  -3  -3  133.17    5.99
   6  -3  -4  146.05    6.73
   6  -3  -4  148.69    6.63
   6  -3  -5   71.48    3.89
   6  -3  -5   77.62    3.89
   6  -3  -6  169.89    7.70
   6  -3  -7   52.04    3.21
   6  -3  -8   15.68    1.97
   6  -3  -9   17.07    2.22
   6  -3 -10    0.41    1.44
   6  -3 -11   28.37    3.14
   6  -3 -12    2.91    1.69
   6  -3 -13    4.95    2.14
   6  -3 -14    3.93    1.85
  -6   3  14    5.51    2.14
  -6   3  15    1.44    2.15
   6  -4  15    1.66    2.41
   6  -4  14    4.22    2.35
   6  -4  13    0.93    2.13
   6  -4  12    0.47    1.88
   6  -4  11   20.37    2.88
   6  -4  10   14.65    2.49
   6  -4   9   23.70    2.92
   6  -4   8    0.55    1.50
   6  -4   7    9.39    1.73
   6  -4   6  140.28    6.71
   6  -4   5   12.67    1.72
   6  -4   4   11.88    1.53
   6  -4   3  224.75    9.75
  -6   4  -3  220.35    8.96
   6  -4   2  249.15   11.12
  -6   4  -2  264.56   10.47
   6  -4   1    9.45    1.39
   6  -4   1    9.95    0.98
   6  -4   0    0.52    0.62
   6  -4   0   -1.45    0.67
   6  -4   0   -0.08    0.51
   6  -4  -1    9.37    1.11
   6  -4  -1   10.37    1.38
   6  -4  -1   10.58    0.86
   6  -4  -2  253.69   11.23
   6  -4  -2  266.65   10.91
   6  -4  -3  223.13    9.58
   6  -4  -3  226.41    9.86
   6  -4  -4   11.62    1.43
   6  -4  -4   13.08    1.44
   6  -4  -5   16.44    1.74
   6  -4  -6  138.75    6.51
   6  -4  -7    8.38    1.58
   6  -4  -8    2.64    1.39
   6  -4  -9   22.36    2.50
   6  -4 -10   15.13    2.30
   6  -4 -11   21.72    2.86
   6  -4 -12    0.73    1.53
  -6   4  12    3.34    1.84
  -6   4  13   -1.28    1.64
  -6   4  14    2.86    2.07
  -6   4  15    4.76    2.56
   6  -5  15    1.72    2.33
   6  -5  14   -0.19    2.05
   6  -5  13    4.09    2.51
   6  -5  12    3.72    2.39
   6  -5  11    7.17    2.18
   6  -5  10   83.95    5.09
   6  -5   9   19.63    2.45
   6  -5   8   -0.40    1.41
   6  -5   7   60.30    3.63
   6  -5   6  107.25    5.37
   6  -5   5   66.26    3.65
   6  -5   4  111.30    5.44
  -6   5  -4  115.05    4.66
   6  -5   3  175.88    7.78
  -6   5  -3  171.11    7.13
   6  -5   2  378.44   16.16
  -6   5  -2  386.14   15.46
   6  -5   1  122.28    5.45
   6  -5   1  117.39    5.55
  -6   5  -1  122.56    5.23
   6  -5   0   10.97    1.34
   6  -5   0   11.24    1.01
  -6   5   0    5.80    0.87
   6  -5  -1  118.12    5.64
   6  -5  -1  128.82    5.41
   6  -5  -1  119.90    5.43
  -6   5   1  119.29    5.43
   6  -5  -2  400.80   16.86
   6  -5  -2  395.54   16.40
   6  -5  -3  184.46    7.97
   6  -5  -3  169.56    7.72
   6  -5  -4  119.01    5.50
   6  -5  -4  115.75    5.61
   6  -5  -5   67.35    3.65
   6  -5  -6   95.92    4.87
   6  -5  -7   63.18    3.70
   6  -5  -8    0.96    1.35
   6  -5  -9   17.85    2.41
  -6   5   9   15.42    2.36
  -6   5  10   81.60    4.96
  -6   5  11    4.19    1.94
  -6   5  12    2.78    1.88
  -6   5  13    4.75    2.03
  -6   5  14    1.47    2.30
  -6   5  15    2.04    2.36
   6  -6  15   -1.50    2.49
   6  -6  14    2.79    2.22
   6  -6  13    1.32    2.33
   6  -6  12   -1.61    1.71
   6  -6  11    9.10    2.52
   6  -6  10   52.73    4.11
   6  -6   9   19.24    2.41
   6  -6   8   11.80    1.90
  -6   6  -8   11.27    0.87
   6  -6   7    3.62    1.42
  -6   6  -7    4.35    0.56
   6  -6   6   72.45    4.03
  -6   6  -6   71.03    3.05
   6  -6   5   71.96    3.82
  -6   6  -5   69.90    3.05
   6  -6   4   66.02    3.53
  -6   6  -4   64.50    2.95
   6  -6   3   92.04    4.83
   6  -6   3  100.87    4.87
  -6   6  -3  107.92    4.44
   6  -6   2  172.02    7.83
   6  -6   2  172.12    7.82
  -6   6  -2  181.95    7.41
   6  -6   1   47.38    2.73
  -6   6  -1   46.47    2.43
   6  -6   0  136.40    6.07
   6  -6   0  131.51    6.17
  -6   6   0  135.68    5.90
   6  -6  -1   43.00    2.51
   6  -6  -1   43.51    2.59
  -6   6   1   43.98    2.46
   6  -6  -2  177.47    8.00
  -6   6   2  179.95    7.85
   6  -6  -3  103.86    5.05
  -6   6   3  106.65    5.01
   6  -6  -4   65.55    3.67
  -6   6   4   68.67    3.63
  -6   6   5   72.66    3.94
  -6   6   6   70.82    3.98
  -6   6   7    2.50    1.42
  -6   6   8   12.39    2.27
  -6   6   9   21.94    2.65
  -6   6  10   47.69    3.75
  -6   6  11    5.89    2.09
  -6   6  12    1.02    2.10
  -6   6  13    1.29    2.21
  -6   6  14    0.00    1.88
  -6   6  15   -1.46    2.30
   6  -7  15   -0.04    2.08
   6  -7  15    6.61    2.55
   6  -7  14    0.51    2.35
   6  -7  13    4.88    2.47
   6  -7  12   -0.79    1.66
   6  -7  11    8.27    2.06
   6  -7  10    1.13    2.01
   6  -7   9   30.98    3.07
   6  -7   8    8.58    1.78
  -6   7  -8   10.30    0.98
   6  -7   7   45.08    3.05
  -6   7  -7   38.83    2.04
   6  -7   6    2.75    1.38
   6  -7   6    3.30    1.45
  -6   7  -6    2.11    0.62
   6  -7   5   93.38    4.96
   6  -7   5   92.86    4.72
  -6   7  -5   96.93    4.20
   6  -7   4   31.58    2.25
   6  -7   4   31.36    2.34
  -6   7  -4   33.45    1.92
   6  -7   3  119.52    5.72
   6  -7   3  122.09    5.85
  -6   7  -3  126.09    5.43
   6  -7   2    2.46    0.97
   6  -7   2    2.25    0.90
  -6   7  -2    3.20    0.89
   6  -7   1   55.34    3.00
   6  -7   0   77.56    4.04
   6  -7   0   85.07    4.10
  -6   7   0   81.88    3.95
   6  -7  -1   57.81    3.17
   6  -7  -1   53.70    3.05
  -6   7   1   54.06    3.01
   6  -7  -2    3.77    1.04
  -6   7   2    1.73    0.98
   6  -7  -3  122.72    6.01
  -6   7   3  133.12    5.99
   6  -7  -4   31.06    2.35
  -6   7   4   28.89    2.27
  -6   7   5   97.34    4.95
  -6   7   6    1.72    1.28
  -6   7   7   36.90    2.91
  -6   7   8    7.72    1.90
  -6   7   9   30.12    3.10
  -6   7  10    1.85    1.87
  -6   7  11    4.24    2.03
  -6   7  12    3.57    2.29
  -6   7  13    2.47    2.06
  -6   7  14   -0.78    2.02
  -6   7  15   -2.21    1.89
   6  -8  15   -1.66    1.99
   6  -8  14    4.90    2.33
   6  -8  14    8.27    2.66
   6  -8  13    9.31    2.52
   6  -8  13    0.54    2.25
   6  -8  12    3.76    2.06
   6  -8  12   -1.44    1.88
   6  -8  11    0.90    1.85
   6  -8  11   -2.56    1.81
   6  -8  10    0.28    1.57
   6  -8  10    1.54    1.84
   6  -8   9    6.37    2.10
   6  -8   9    7.77    1.76
   6  -8   8   -1.49    1.50
   6  -8   8    3.12    1.70
  -6   8  -8    0.78    0.75
   6  -8   7   36.71    3.19
   6  -8   7   36.08    2.86
  -6   8  -7   36.83    2.05
   6  -8   6   55.41    3.55
   6  -8   6   55.67    3.36
  -6   8  -6   52.44    2.72
   6  -8   5    2.18    1.26
   6  -8   5    2.25    1.33
  -6   8  -5    2.91    0.90
   6  -8   4   33.83    2.37
   6  -8   4   31.79    2.44
  -6   8  -4   29.27    2.03
   6  -8   3    3.69    1.23
   6  -8   3    3.47    1.33
  -6   8  -3    3.04    1.11
   6  -8   2   13.88    1.57
   6  -8   2   12.29    1.56
  -6   8  -2   12.61    1.42
   6  -8   1   29.03    1.94
   6  -8   1   29.88    2.00
  -6   8  -1   21.71    1.72
   6  -8   0   12.26    1.43
  -6   8   0   13.45    1.54
   6  -8  -1   32.61    2.41
   6  -8  -1   36.46    2.28
  -6   8   1   32.25    2.22
   6  -8  -2   11.19    1.45
  -6   8   2   10.00    1.45
   6  -8  -3    3.02    1.12
  -6   8   3    4.85    1.25
  -6   8   4   29.56    2.34
  -6   8   5    3.68    1.41
  -6   8   6   51.83    3.38
  -6   8   7   30.89    2.91
  -6   8   8    0.87    1.64
  -6   8   9   12.27    2.36
  -6   8  10    0.78    1.84
  -6   8  11    1.08    2.22
  -6   8  12   -0.24    2.09
  -6   8  13    4.05    2.49
  -6   8  14    3.81    2.25
  -6   8  15    3.06    2.18
   6  -9  15    1.95    2.30
   6  -9  14    9.77    2.68
   6  -9  13    0.60    2.06
   6  -9  13   -1.50    1.85
   6  -9  12    2.00    2.02
   6  -9  12    1.84    1.98
   6  -9  11    2.99    1.94
   6  -9  11    4.17    1.99
   6  -9  10   -0.49    1.66
   6  -9  10   -0.37    1.78
   6  -9   9   -1.86    1.67
   6  -9   9    0.88    1.74
   6  -9   8   37.87    2.95
   6  -9   8   34.66    3.34
  -6   9  -8   33.84    2.22
   6  -9   7    4.97    1.82
   6  -9   7    5.90    1.68
  -6   9  -7    8.49    1.25
   6  -9   6  124.00    6.72
   6  -9   6  133.93    6.32
  -6   9  -6  134.66    5.94
   6  -9   5   35.35    2.51
   6  -9   5   33.22    2.91
  -6   9  -5   35.58    2.30
   6  -9   4    4.49    1.24
   6  -9   4    3.54    1.36
  -6   9  -4    1.46    1.02
   6  -9   3    2.22    1.20
   6  -9   3    2.68    1.00
  -6   9  -3    4.93    1.22
   6  -9   2    4.54    1.04
   6  -9   2    7.35    1.40
  -6   9  -2    2.55    0.87
   6  -9   1    5.38    1.30
   6  -9   1    5.73    1.23
  -6   9  -1    5.29    1.21
   6  -9   0  218.31    9.96
   6  -9   0  224.96   10.37
  -6   9   0  240.72    9.95
   6  -9  -1    6.30    1.15
   6  -9  -1    5.39    1.23
  -6   9   1    4.17    1.21
   6  -9  -2    8.76    1.38
  -6   9   2    8.76    1.50
   6  -9  -3    2.17    1.11
  -6   9   3    2.36    1.29
  -6   9   4    2.75    1.28
  -6   9   5   32.20    2.60
  -6   9   6  125.54    6.28
  -6   9   7    8.01    1.93
  -6   9   8   31.07    3.05
  -6   9   9    0.51    1.73
  -6   9  10   -1.34    1.99
  -6   9  11    0.99    2.17
  -6   9  12    6.14    2.20
  -6   9  13    2.21    2.08
  -6   9  14    2.00    2.23
  -6   9  15    0.54    2.59
   6 -10  14   -0.20    2.21
   6 -10  13    8.77    2.62
   6 -10  12    1.10    2.03
   6 -10  11    2.88    1.88
   6 -10  11    2.47    2.05
   6 -10  10    1.45    1.88
   6 -10  10   -1.04    1.60
   6 -10   9    5.32    1.78
   6 -10   9   11.40    2.40
   6 -10   8   18.42    2.64
   6 -10   8   15.14    2.11
  -6  10  -8   16.35    1.70
   6 -10   7  105.49    5.87
   6 -10   7   97.58    5.22
  -6  10  -7  102.44    4.91
   6 -10   6   39.01    3.32
   6 -10   6   42.58    2.88
  -6  10  -6   43.00    2.74
   6 -10   5   53.02    3.75
   6 -10   5   61.57    3.39
  -6  10  -5   59.54    3.33
   6 -10   4    1.28    1.35
   6 -10   4    0.77    1.08
  -6  10  -4    2.93    1.21
   6 -10   3   25.23    2.01
   6 -10   3   26.20    2.47
  -6  10  -3   24.95    2.17
   6 -10   2    9.07    1.40
   6 -10   2   10.85    1.75
  -6  10  -2   10.58    1.45
   6 -10   1  127.54    6.16
   6 -10   1  135.59    6.64
  -6  10  -1  139.10    6.36
   6 -10   0   59.61    3.79
   6 -10   0   62.05    3.36
  -6  10   0   63.44    3.67
   6 -10  -1  141.94    6.39
   6 -10  -1  128.28    6.73
  -6  10   1  128.99    6.31
   6 -10  -2   11.77    1.60
  -6  10   2    8.90    1.63
  -6  10   3   27.11    2.47
  -6  10   4    1.65    1.37
  -6  10   5   59.40    3.79
  -6  10   6   51.59    3.62
  -6  10   7   95.51    5.39
  -6  10   8   15.90    2.46
  -6  10   9   11.85    2.67
  -6  10  10   -0.88    2.12
  -6  10  11    2.76    1.99
  -6  10  12   -0.81    1.91
  -6  10  13    6.27    2.47
  -6  10  14    3.72    2.82
   6 -11  14    0.58    2.18
   6 -11  13    6.97    2.58
   6 -11  12   -0.11    2.01
   6 -11  11    1.04    2.09
   6 -11  10   -0.39    1.85
   6 -11  10    0.92    1.59
   6 -11   9    1.29    2.00
   6 -11   9    2.38    1.63
   6 -11   8    9.20    2.30
   6 -11   8    2.52    1.59
  -6  11  -8    5.92    1.42
   6 -11   7   63.93    4.59
   6 -11   7   73.67    4.14
  -6  11  -7   71.18    3.94
   6 -11   6   18.07    2.81
   6 -11   6   20.74    2.08
  -6  11  -6   20.70    2.11
   6 -11   5   21.10    2.05
   6 -11   5   16.77    2.46
  -6  11  -5   22.94    2.28
   6 -11   4    6.82    1.35
   6 -11   4   11.91    2.03
  -6  11  -4    8.53    1.71
   6 -11   3    3.07    1.14
   6 -11   3    4.22    1.62
   6 -11   2   17.95    2.22
   6 -11   2   16.03    1.71
  -6  11  -2   17.69    2.02
   6 -11   1   82.60    4.34
   6 -11   1   90.94    5.09
  -6  11  -1   83.59    4.55
   6 -11   0   23.32    2.55
   6 -11   0   21.53    1.92
  -6  11   0   18.84    2.14
   6 -11  -1   88.90    4.55
   6 -11  -1   86.30    5.06
  -6  11   1   83.97    4.65
   6 -11  -2   19.87    2.15
  -6  11   2   19.06    2.22
  -6  11   3    2.04    1.49
  -6  11   4    9.10    1.85
  -6  11   5   25.06    2.66
  -6  11   6   18.62    2.48
  -6  11   7   72.21    4.62
  -6  11   8    6.09    2.20
  -6  11   9    0.80    2.32
  -6  11  10   -0.98    1.80
  -6  11  11    0.29    2.32
  -6  11  12    2.66    2.56
  -6  11  13    8.31    2.98
  -6  11  14   -0.59    2.26
   6 -12  14    3.22    2.57
   6 -12  13    1.52    2.36
   6 -12  12    2.82    2.27
   6 -12  11    5.33    2.25
   6 -12  10    6.71    2.31
   6 -12   9    4.89    2.19
   6 -12   8    4.35    1.70
   6 -12   8    4.97    2.13
  -6  12  -8    4.65    1.60
   6 -12   7    7.55    1.72
   6 -12   7    3.79    1.98
  -6  12  -7    5.27    1.66
   6 -12   6   26.83    2.42
   6 -12   6   30.97    3.29
  -6  12  -6   30.42    2.73
   6 -12   5   15.72    2.72
   6 -12   5   18.42    1.91
  -6  12  -5   19.03    2.27
   6 -12   4   28.43    2.93
   6 -12   4   26.97    2.15
  -6  12  -4   25.89    2.58
   6 -12   3   12.46    1.57
   6 -12   3   13.74    2.23
  -6  12  -3   13.59    2.14
   6 -12   2    1.47    1.62
   6 -12   2    2.31    1.15
  -6  12  -2   -2.48    1.50
   6 -12   1   69.22    4.65
   6 -12   1   64.38    3.69
  -6  12  -1   72.15    4.27
   6 -12   0   18.00    1.99
   6 -12   0   26.23    2.84
  -6  12   0   21.09    2.38
   6 -12  -1   61.45    3.69
   6 -12  -1   71.87    4.54
  -6  12   1   65.86    4.02
  -6  12   2   -0.07    1.47
  -6  12   3   10.17    1.95
  -6  12   4   28.30    2.94
  -6  12   5   16.55    2.49
  -6  12   6   24.60    2.92
  -6  12   7    6.41    2.11
  -6  12   8    3.48    2.13
  -6  12   9    4.98    2.12
  -6  12  10    8.74    2.65
  -6  12  11    0.87    2.00
  -6  12  12    3.10    2.24
  -6  12  13    0.31    2.19
  -6  12  14   -3.56    2.49
   6 -13  13   -2.05    2.48
   6 -13  12    1.73    2.30
   6 -13  11    1.91    2.15
   6 -13  10   -1.47    1.89
   6 -13   9    3.48    2.12
   6 -13   8    7.24    2.35
  -6  13  -8    7.07    1.69
   6 -13   7    7.15    2.36
  -6  13  -7    7.08    1.91
   6 -13   6   -2.37    1.26
   6 -13   6   -0.57    1.92
  -6  13  -6   -1.56    1.40
   6 -13   5   -1.53    1.74
   6 -13   5   -0.71    1.18
  -6  13  -5    1.36    1.41
   6 -13   4   46.04    2.93
   6 -13   4   45.66    3.74
   6 -13   3   21.60    2.87
   6 -13   3   24.58    2.11
  -6  13  -3   25.15    2.67
   6 -13   2    0.33    1.08
   6 -13   2    0.66    1.84
  -6  13  -2    0.79    1.55
   6 -13   1    9.28    2.30
   6 -13   1    6.39    1.44
  -6  13  -1    7.82    2.20
   6 -13   0    5.42    1.47
   6 -13   0    6.95    2.44
  -6  13   0    5.45    1.86
   6 -13  -1    8.00    2.31
  -6  13   1    9.48    2.23
  -6  13   2   -1.41    1.59
  -6  13   3   25.83    2.82
  -6  13   4   46.42    3.71
  -6  13   5    2.27    1.89
  -6  13   6   -0.45    1.93
  -6  13   7   11.66    2.61
  -6  13   8    5.99    2.28
  -6  13   9    5.58    2.19
  -6  13  10   -0.12    2.33
  -6  13  11    0.71    2.47
  -6  13  12    3.06    2.40
  -6  13  13    1.51    2.76
   6 -14  13   -2.86    2.13
   6 -14  12    3.36    2.33
   6 -14  11    3.55    2.48
   6 -14  10   -1.16    2.06
   6 -14   9    5.13    2.39
   6 -14   8    2.47    2.19
  -6  14  -8    4.03    1.71
   6 -14   7    3.48    2.20
  -6  14  -7    3.54    1.66
   6 -14   6    6.26    2.39
  -6  14  -6    6.91    2.00
   6 -14   5   25.41    3.30
   6 -14   5   26.51    2.23
   6 -14   4    0.85    1.21
   6 -14   4    1.03    2.04
  -6  14  -4    1.79    1.64
   6 -14   3   83.82    4.33
   6 -14   3   78.88    5.38
  -6  14  -3   80.52    5.14
   6 -14   2    1.48    1.23
   6 -14   2   -1.02    2.02
  -6  14  -2    2.47    2.13
   6 -14   1   17.45    2.89
   6 -14   1   15.52    1.93
  -6  14  -1   19.90    2.92
   6 -14   0   53.99    4.36
  -6  14   0   48.97    3.84
   6 -14  -1   18.30    3.36
  -6  14   1   14.40    2.47
  -6  14   2   -0.09    1.83
  -6  14   3   75.15    4.80
  -6  14   4    1.16    1.95
  -6  14   5   24.70    3.08
  -6  14   6    6.03    2.27
  -6  14   7    0.57    1.99
  -6  14   8    1.49    1.98
  -6  14   9    4.92    2.28
  -6  14  10    0.87    2.15
  -6  14  11    4.45    2.55
  -6  14  12   -0.22    2.28
  -6  14  13   -0.67    2.82
   6 -15  12    3.33    2.53
   6 -15  11   -2.46    2.08
   6 -15  10   10.87    2.85
   6 -15   9    1.57    2.21
   6 -15   8   -0.78    2.05
  -6  15  -8    3.36    1.68
   6 -15   7    5.47    2.34
  -6  15  -7    4.25    1.74
   6 -15   6   -0.29    2.04
  -6  15  -6    1.55    1.31
   6 -15   5   10.74    2.63
  -6  15  -5    7.74    2.33
   6 -15   4   12.35    2.80
  -6  15  -4    8.88    2.48
   6 -15   3    9.74    2.68
   6 -15   3   10.27    1.56
  -6  15  -3    7.37    2.56
   6 -15   2   24.06    3.35
   6 -15   2   25.05    2.38
  -6  15  -2   25.81    3.36
   6 -15   1   14.99    2.88
  -6  15  -1   14.51    2.60
   6 -15   0   27.02    3.59
  -6  15   0   31.53    3.33
   6 -15  -1   18.17    3.16
  -6  15   1   15.87    2.74
  -6  15   2   24.80    3.13
  -6  15   3    6.48    2.28
  -6  15   4   12.34    2.60
  -6  15   5    9.01    2.43
  -6  15   6    1.89    2.05
  -6  15   7    3.89    2.24
  -6  15   8   -2.49    1.90
  -6  15   9   -0.79    2.49
  -6  15  10    6.97    2.99
  -6  15  11    2.53    2.41
  -6  15  12    2.65    2.50
   6 -16  11   -2.64    2.60
   6 -16  10    6.04    2.67
   6 -16   9    3.36    2.48
   6 -16   8   -1.13    2.17
  -6  16  -8   -0.68    1.64
   6 -16   7    2.25    2.22
  -6  16  -7    3.92    1.84
   6 -16   6   -1.00    2.03
  -6  16  -6   -0.99    1.12
   6 -16   5    4.74    2.42
  -6  16  -5    2.41    1.79
   6 -16   4   -0.08    2.31
  -6  16  -4    2.81    2.24
   6 -16   3   15.40    3.35
  -6  16  -3   11.03    2.80
   6 -16   2   17.40    3.22
  -6  16  -2   14.76    2.78
   6 -16   1   10.92    2.83
  -6  16  -1   12.40    2.65
   6 -16   0   -0.42    2.32
  -6  16   0   -1.44    1.97
   6 -16  -1   10.66    2.96
  -6  16   1    8.71    2.54
  -6  16   2   14.97    2.84
  -6  16   3   14.20    2.79
  -6  16   4    4.72    2.22
  -6  16   5    1.90    2.05
  -6  16   6    4.55    2.20
  -6  16   7    6.12    2.34
  -6  16   8   -0.93    2.09
  -6  16   9    4.87    2.45
  -6  16  10    5.37    2.61
  -6  16  11   -0.88    2.24
   6 -17  11    0.88    2.96
   6 -17  10    2.15    2.44
   6 -17   9    1.70    2.41
   6 -17   8   -0.34    2.31
  -6  17  -8    1.96    1.97
   6 -17   7    2.30    2.40
  -6  17  -7    1.07    0.63
   6 -17   6    0.83    2.41
  -6  17  -6    2.79    1.79
   6 -17   5   -0.93    2.33
  -6  17  -5   -2.55    1.95
   6 -17   4    0.71    2.30
  -6  17  -4    2.96    1.93
   6 -17   3    7.15    2.71
  -6  17  -3    5.50    2.47
   6 -17   2   -0.66    2.21
  -6  17  -2    0.58    1.97
   6 -17   1   -0.93    2.17
  -6  17  -1   -0.86    1.99
   6 -17   0   -6.22    2.02
  -6  17   0    1.13    2.16
   6 -17  -1   -1.47    2.31
  -6  17   1    3.14    2.13
  -6  17   2    3.50    2.28
  -6  17   3    1.45    2.18
  -6  17   4    4.04    2.24
  -6  17   5    0.43    2.03
  -6  17   6    5.28    2.38
  -6  17   7    6.45    2.48
  -6  17   8   -0.78    2.09
  -6  17   9    0.54    2.76
  -6  17  10   -0.51    2.73
  -6  17  11   -2.42    2.27
   6 -18  10    2.34    2.60
   6 -18   9    3.76    2.66
   6 -18   8   -1.04    2.39
  -6  18  -8   -0.45    1.79
   6 -18   7    8.97    2.99
  -6  18  -7    3.24    2.04
   6 -18   6    1.01    3.17
  -6  18  -6    1.90    1.82
   6 -18   5    1.63    2.54
  -6  18  -5    2.88    2.41
   6 -18   4    8.21    2.92
  -6  18  -4    9.66    2.44
   6 -18   3    2.64    2.49
  -6  18  -3    2.95    2.41
   6 -18   2   -1.36    2.20
  -6  18  -2   -4.08    2.17
   6 -18   1    8.22    2.79
  -6  18  -1    4.99    2.36
   6 -18   0   -1.73    2.23
  -6  18   0   -0.22    2.04
  -6  18   1    9.14    2.60
  -6  18   2   -1.87    1.93
  -6  18   3    3.35    2.69
  -6  18   4    6.22    2.53
  -6  18   5    0.03    2.50
  -6  18   6    2.05    2.39
  -6  18   7    7.20    2.65
  -6  18   8   -2.57    2.15
  -6  18   9    3.84    2.53
  -6  18  10    2.76    2.53
   6 -19   9   -3.96    2.41
   6 -19   8    2.86    2.78
  -6  19  -8    1.11    0.59
   6 -19   7    0.90    2.69
  -6  19  -7    2.52    2.13
   6 -19   6   -0.19    2.72
  -6  19  -6    4.44    2.53
   6 -19   5    4.71    2.81
  -6  19  -5    3.36    2.21
   6 -19   4   -1.34    2.37
  -6  19  -4   -2.14    2.29
   6 -19   3   12.10    3.06
  -6  19  -3    8.55    2.79
   6 -19   2    0.81    2.43
  -6  19  -2   -0.80    2.01
   6 -19   1    2.99    2.55
  -6  19  -1   -0.45    2.01
   6 -19   0    5.85    2.72
  -6  19   0    5.16    2.39
  -6  19   1   -0.51    2.52
  -6  19   2    1.18    2.26
  -6  19   3   10.99    3.13
  -6  19   4   -0.70    2.16
  -6  19   5    4.40    2.56
  -6  19   6    3.94    2.53
  -6  19   7   -0.94    2.22
  -6  19   8    1.55    2.53
  -6  19   9    2.15    3.06
   6 -20   7   -3.02    2.54
  -6  20  -7   -1.16    2.02
   6 -20   6    1.37    2.69
  -6  20  -6   -4.42    1.90
   6 -20   5    2.52    2.72
  -6  20  -5    2.50    2.07
   6 -20   4    5.12    2.82
  -6  20  -4    2.90    2.29
   6 -20   3    3.05    2.64
  -6  20  -3    3.76    2.30
   6 -20   2    4.69    2.78
  -6  20  -2    1.91    2.19
   6 -20   1    2.07    3.01
  -6  20  -1    0.93    2.64
   6 -20   0   -2.96    2.27
  -6  20   0   -4.86    1.88
  -6  20   1   -1.70    2.08
  -6  20   2    6.97    2.68
  -6  20   3    1.21    2.30
  -6  20   4    8.16    2.74
  -6  20   5   -1.40    2.28
  -6  20   6   -0.24    2.33
  -6  20   7   -1.62    2.29
   6 -21   6   -1.23    2.68
  -6  21  -6    0.89    2.43
   6 -21   5   -1.87    2.57
  -6  21  -5   -3.66    1.73
   6 -21   4    1.66    3.07
  -6  21  -4    5.74    2.90
   6 -21   3   -0.78    3.07
  -6  21  -3    4.03    2.37
   6 -21   2   -0.82    2.45
  -6  21  -2    2.83    2.70
   6 -21   1    1.86    2.59
  -6  21  -1   -0.74    2.18
  -6  21   0    3.99    2.59
  -6  21   1   -2.80    2.15
  -6  21   2   -1.05    2.18
  -6  21   3    2.13    2.56
  -6  21   4    2.79    2.50
  -6  21   5   -0.86    2.34
  -6  21   6    0.32    2.44
   6 -22   3    2.82    2.82
  -6  22  -3    0.23    2.32
   6 -22   2    1.20    2.69
  -6  22  -2    1.94    2.78
   6 -22   1    1.36    2.69
  -6  22  -1   -0.28    2.59
  -6  22   0    1.27    2.46
  -6  22   1    1.22    2.50
  -6  22   2    1.06    2.49
  -6  22   3    3.07    2.59
   7  15   4    1.88    2.39
   7  15   3    4.47    2.79
   7  15   2    0.05    2.19
   7  15   1    0.86    2.10
   7  15   0    4.31    2.74
   7  15  -1   -1.06    2.09
   7  15  -2    1.28    2.18
   7  15  -3    1.39    2.21
   7  15  -4    0.37    2.24
   7  14   6    4.74    2.79
   7  14   5    2.87    2.39
   7  14   4    2.92    2.74
   7  14   3    7.94    2.58
   7  14   2   -1.46    2.00
   7  14   1    1.70    2.17
   7  14   0    1.18    2.14
   7  14  -1   -0.49    2.00
   7  14  -2    1.23    2.15
   7  14  -3    5.15    2.40
   7  14  -4    4.72    2.44
   7  14  -5    2.92    2.32
  -7 -14   5    3.48    2.72
   7  14  -6    4.24    2.82
  -7 -14   6    2.90    3.13
   7  13   8   -1.39    2.52
   7  13   8    1.97    2.66
   7  13   7    1.36    2.49
   7  13   7    0.97    2.16
   7  13   6    0.30    1.72
   7  13   6    1.59    2.58
   7  13   5    2.30    2.24
   7  13   5    0.80    2.53
   7  13   4    4.69    2.36
   7  13   3   -1.15    1.96
   7  13   2    2.42    2.16
   7  13   1    0.78    2.00
   7  13   0    4.66    2.36
   7  13  -1    3.76    2.22
   7  13  -2    1.91    2.09
   7  13  -3   -0.82    1.89
   7  13  -4    3.35    2.37
   7  13  -5    1.63    2.22
  -7 -13   5   -0.38    2.39
   7  13  -6    2.26    2.15
  -7 -13   6    1.27    2.52
   7  13  -7   -1.41    2.00
  -7 -13   7    9.69    3.41
   7  13  -8    1.32    2.45
  -7 -13   8    0.67    3.16
   7  12   9    2.84    2.61
   7  12   9   -2.50    2.16
   7  12   8    0.95    2.26
   7  12   8    3.30    2.58
   7  12   7    1.89    2.55
   7  12   7    1.53    2.52
   7  12   6    1.57    2.53
   7  12   6   -0.80    1.84
   7  12   5    0.63    1.61
   7  12   5   -0.08    1.94
   7  12   4    1.35    1.98
   7  12   4    3.78    2.56
   7  12   3    1.43    2.03
   7  12   2   -1.35    1.86
   7  12   1    0.85    1.99
   7  12   0   -0.48    1.85
   7  12  -1    2.97    2.09
   7  12  -2   -0.59    1.86
   7  12  -3    4.07    2.15
   7  12  -4    0.01    1.96
  -7 -12   4   -0.89    2.25
   7  12  -5    2.96    2.23
  -7 -12   5    3.91    2.52
   7  12  -6   -1.56    1.91
  -7 -12   6    3.43    2.57
   7  12  -7    2.00    2.17
  -7 -12   7    2.97    2.99
   7  12  -8    0.09    1.98
  -7 -12   8    0.70    2.47
   7  12  -9    0.02    1.95
  -7 -12   9   -0.23    3.10
   7  11  10   -1.59    2.37
   7  11   9    0.88    2.35
   7  11   9    2.67    2.84
   7  11   8   -2.21    2.11
   7  11   8    1.01    2.19
   7  11   7    6.44    2.60
   7  11   7    4.29    2.32
   7  11   6    3.90    2.16
   7  11   6    2.21    2.33
   7  11   5    2.99    1.83
   7  11   5    0.58    1.89
   7  11   4   -1.98    1.73
   7  11   4    0.69    1.94
   7  11   3   -1.96    1.75
   7  11   3    1.98    1.79
   7  11   2    2.51    1.68
   7  11   2    3.54    2.07
   7  11   1   -1.18    1.77
   7  11   0    0.98    1.86
   7  11  -1    6.44    2.17
   7  11  -2   -0.34    2.18
   7  11  -3   -0.41    2.11
   7  11  -4    1.75    1.98
  -7 -11   4   -2.49    1.99
   7  11  -5    5.94    2.36
  -7 -11   5    6.40    2.96
   7  11  -6    3.35    2.21
  -7 -11   6    4.68    2.51
   7  11  -7    4.05    2.21
  -7 -11   7    6.51    2.67
   7  11  -8    3.28    2.39
  -7 -11   8   -3.54    2.71
   7  11  -9    1.93    2.04
  -7 -11   9   -1.43    2.83
   7  11 -10    2.96    2.19
  -7 -11  10    1.83    3.02
   7  10  11   -0.95    2.34
   7  10  10   -0.81    2.26
   7  10   9   -1.80    2.05
   7  10   9    4.77    2.16
   7  10   8    2.82    2.00
   7  10   8    4.18    2.33
   7  10   7    0.21    1.97
   7  10   7    0.53    1.83
   7  10   6    9.91    2.37
   7  10   6    9.03    2.33
   7  10   5   -0.59    1.96
   7  10   5    0.75    1.80
   7  10   4   -0.62    1.22
   7  10   4    1.59    1.84
   7  10   3    0.25    2.30
   7  10   3    0.29    1.42
   7  10   2    0.99    2.20
   7  10   2   -1.23    1.48
   7  10   1    0.96    1.88
   7  10   1    0.43    1.62
   7  10   0    4.66    1.99
   7  10  -1    0.82    1.77
   7  10  -2    0.79    1.87
   7  10  -3    3.55    2.00
  -7 -10   3   -0.20    2.07
   7  10  -4   -1.56    1.67
  -7 -10   4    1.34    2.47
   7  10  -5   -1.69    1.62
  -7 -10   5   -2.78    1.97
   7  10  -6    8.54    2.34
  -7 -10   6   11.19    2.72
   7  10  -7    2.83    2.00
  -7 -10   7   -0.68    2.58
   7  10  -8    8.44    2.63
  -7 -10   8   -1.82    2.57
   7  10  -9    3.87    2.09
  -7 -10   9    0.42    2.84
   7  10 -10    3.50    2.20
  -7 -10  10    0.06    2.45
   7  10 -11    0.21    1.91
  -7 -10  11   -0.83    3.03
   7   9  12   -0.16    2.60
   7   9  11    2.35    2.50
   7   9  10    0.29    2.31
   7   9   9    1.37    2.11
   7   9   9   -0.02    2.23
   7   9   8    3.34    2.16
   7   9   8    4.67    2.27
   7   9   7    1.83    1.79
   7   9   7    1.15    1.95
   7   9   6    5.67    2.12
   7   9   6    5.34    2.34
   7   9   5    1.58    2.15
   7   9   5    3.30    2.14
   7   9   4    1.77    1.82
   7   9   4   -0.34    1.09
   7   9   3    9.49    1.95
   7   9   3    9.29    2.33
   7   9   2    1.72    1.82
   7   9   2    1.91    1.72
   7   9   1    7.90    2.19
   7   9   1   10.75    1.95
   7   9   0   15.83    2.06
   7   9   0   10.86    2.40
   7   9  -1    6.48    2.20
   7   9  -2   -0.89    1.79
   7   9  -3   10.77    2.47
  -7  -9   3    7.90    2.49
   7   9  -4   -2.59    1.69
  -7  -9   4    1.32    2.48
   7   9  -5    2.89    1.95
  -7  -9   5    2.69    2.17
   7   9  -6    4.77    2.09
  -7  -9   6    4.19    2.54
   7   9  -7    4.63    2.03
  -7  -9   7    3.20    2.65
   7   9  -8    1.11    1.82
  -7  -9   8    3.35    2.60
   7   9  -9    0.34    1.77
  -7  -9   9    1.32    2.26
   7   9 -10    2.92    2.10
  -7  -9  10   -2.03    2.67
   7   9 -11   -0.33    1.77
  -7  -9  11    2.25    2.90
   7   9 -12    1.92    1.95
  -7  -9  12    4.11    3.09
   7   8  12   -0.40    2.43
   7   8  11   -3.19    2.20
   7   8  10    0.97    2.35
   7   8   9    0.84    1.95
   7   8   9   -1.59    2.03
   7   8   8    1.43    1.97
   7   8   8    1.00    1.98
   7   8   7   -1.46    1.75
   7   8   7   -0.08    1.94
   7   8   6    1.99    2.06
   7   8   6    1.84    1.95
   7   8   5    1.71    2.15
   7   8   5    2.64    1.82
   7   8   4   12.41    2.59
   7   8   4   14.11    2.43
   7   8   3   11.46    2.21
   7   8   3   15.56    2.48
   7   8   2    4.35    1.86
   7   8   2    0.83    1.57
   7   8   1   17.17    2.57
   7   8   1   22.18    2.34
   7   8   0   -0.14    1.44
   7   8   0   -0.77    1.65
   7   8  -1   16.06    2.46
   7   8  -1   15.49    1.93
   7   8  -2    3.15    1.88
   7   8  -3   14.95    2.58
  -7  -8   3   16.12    3.00
   7   8  -4   15.06    2.56
  -7  -8   4   12.53    2.65
   7   8  -5    1.62    1.92
  -7  -8   5   -0.93    1.96
   7   8  -6    1.27    1.78
  -7  -8   6    0.26    2.34
   7   8  -7    1.11    1.72
  -7  -8   7   -2.04    2.23
   7   8  -8    1.91    1.77
  -7  -8   8    1.55    2.13
   7   8  -9    0.20    1.76
  -7  -8   9   -2.73    2.38
   7   8 -10    3.85    2.11
  -7  -8  10    2.24    2.64
   7   8 -11   -2.77    1.59
  -7  -8  11    1.09    2.59
   7   8 -12   -0.69    1.80
  -7  -8  12    1.00    2.72
   7   7  13   -3.61    2.38
   7   7  12   -0.97    2.33
   7   7  11    1.40    2.38
   7   7  10    1.04    2.27
   7   7   9   -3.35    1.87
   7   7   9    1.14    1.83
   7   7   8    0.90    1.79
   7   7   8    6.85    2.17
   7   7   7   10.59    2.06
   7   7   7    7.53    2.36
   7   7   6   -2.23    1.72
   7   7   6    0.85    1.87
   7   7   5    4.01    2.20
   7   7   5    4.41    1.79
   7   7   4   44.54    3.35
   7   7   4   42.43    3.35
   7   7   3   14.65    2.34
   7   7   2    6.49    1.78
   7   7   2    3.39    1.76
   7   7   1   23.99    2.42
   7   7   1   27.09    3.00
   7   7   0   27.16    2.84
   7   7   0   28.93    2.53
   7   7  -1   27.93    2.91
   7   7  -1   26.32    2.36
   7   7  -2    5.65    1.86
   7   7  -2    5.38    1.32
   7   7  -3   16.44    2.50
  -7  -7   3   18.67    2.68
   7   7  -4   53.47    3.85
  -7  -7   4   48.92    4.33
   7   7  -5    3.08    1.89
  -7  -7   5    3.23    2.33
   7   7  -6    1.76    1.73
  -7  -7   6    0.15    2.26
   7   7  -7    9.65    2.40
  -7  -7   7    4.07    2.13
   7   7  -8    1.37    1.72
  -7  -7   8    0.40    1.88
   7   7  -9    0.59    1.73
  -7  -7   9   -1.44    2.13
   7   7 -10    2.58    1.83
  -7  -7  10   -1.38    2.19
   7   7 -11    5.12    2.04
  -7  -7  11    4.29    2.55
   7   7 -12    0.36    1.75
  -7  -7  12   -2.66    1.89
   7   7 -13   -0.64    1.68
  -7  -7  13    0.24    2.63
   7   6  13    3.40    2.75
   7   6  12    2.73    2.53
   7   6  11    5.24    2.57
   7   6  10    5.61    2.43
   7   6   9    2.44    1.92
   7   6   9    5.94    2.28
   7   6   8    8.09    2.20
   7   6   8    7.56    2.42
   7   6   7    8.36    2.43
   7   6   7   10.80    2.15
   7   6   6   -1.51    1.72
   7   6   6   -0.52    1.80
   7   6   5    3.67    1.91
   7   6   5    1.08    1.68
   7   6   4   46.33    3.66
   7   6   4   57.31    3.86
   7   6   3   23.58    2.44
   7   6   3   24.10    2.73
   7   6   2    0.95    1.28
   7   6   2   -1.34    1.35
   7   6   1    7.75    1.63
   7   6   1    5.05    1.62
   7   6   0    3.92    1.62
   7   6   0    5.89    1.40
   7   6  -1    7.87    1.51
   7   6  -1    9.10    1.86
   7   6  -2    1.68    1.13
   7   6  -2    0.25    1.48
   7   6  -3   25.07    2.72
   7   6  -3   26.17    1.93
  -7  -6   3   21.95    2.74
   7   6  -4   47.84    2.51
   7   6  -4   42.13    3.46
  -7  -6   4   46.39    3.98
   7   6  -5    2.45    1.72
  -7  -6   5    0.19    2.00
   7   6  -6   -0.51    1.59
  -7  -6   6   -0.43    2.04
   7   6  -7    9.25    2.23
  -7  -6   7    9.22    2.49
   7   6  -8    4.00    1.92
  -7  -6   8    5.44    2.34
   7   6  -9    8.95    2.16
  -7  -6   9    5.14    2.30
   7   6 -10    1.85    1.77
  -7  -6  10    4.86    2.37
   7   6 -11    0.87    1.79
  -7  -6  11    1.10    2.29
   7   6 -12    3.02    1.89
  -7  -6  12    0.17    2.39
   7   6 -13    2.49    1.90
  -7  -6  13   -1.15    1.92
   7   5  14    5.19    2.91
   7   5  13    2.68    2.69
   7   5  12    5.76    2.66
   7   5  11    6.32    2.61
   7   5  10    4.84    2.38
   7   5   9   10.94    2.16
   7   5   9   12.46    2.72
   7   5   8    6.90    2.40
   7   5   8    7.98    1.92
   7   5   7   11.83    2.19
   7   5   7   11.74    2.55
   7   5   6    5.78    2.10
   7   5   6    7.72    1.84
   7   5   5   16.12    2.20
   7   5   5   17.66    2.46
   7   5   4    8.82    2.04
   7   5   4    5.46    1.52
   7   5   3   55.62    3.54
   7   5   3   56.44    3.50
   7   5   2   -0.97    0.38
   7   5   2    0.44    1.26
   7   5   1   72.78    4.11
   7   5   1   73.30    4.06
   7   5   0   52.94    3.49
   7   5   0   57.74    3.39
   7   5  -1   72.56    3.91
   7   5  -1   76.42    4.30
   7   5  -2   -0.61    0.94
   7   5  -2    2.48    1.46
  -7  -5   2    0.92    1.37
   7   5  -3   61.29    3.78
   7   5  -3   54.73    3.16
  -7  -5   3   67.59    4.18
   7   5  -4    4.53    1.72
   7   5  -4    5.50    1.04
  -7  -5   4    4.34    1.93
   7   5  -5   15.47    2.32
   7   5  -5   18.58    1.44
  -7  -5   5   16.47    2.54
   7   5  -6    7.69    1.96
  -7  -5   6    7.69    1.95
   7   5  -7   14.49    2.54
  -7  -5   7   10.06    2.15
   7   5  -8    9.83    2.23
  -7  -5   8    9.79    2.30
   7   5  -9    9.01    2.17
  -7  -5   9   10.84    2.41
   7   5 -10    3.22    1.84
  -7  -5  10    7.59    2.32
   7   5 -11    4.46    1.94
  -7  -5  11    4.82    2.36
   7   5 -12    2.81    1.89
  -7  -5  12    5.90    2.56
   7   5 -13    2.60    1.87
  -7  -5  13    2.93    2.41
   7   5 -14   -0.06    2.06
   7   4  14    1.76    2.79
   7   4  13    0.92    2.50
   7   4  12    3.19    2.54
   7   4  11    3.43    2.34
   7   4  10   20.13    3.18
   7   4   9    0.35    1.65
   7   4   9    0.64    1.55
   7   4   8   20.61    2.34
   7   4   8   23.63    3.15
   7   4   7    6.51    2.14
   7   4   7    5.36    1.64
   7   4   6   15.96    2.05
   7   4   6   16.06    2.50
   7   4   5    1.72    1.47
   7   4   5    3.21    1.67
   7   4   4    7.76    1.67
   7   4   4    4.10    1.58
   7   4   3    5.17    1.29
   7   4   3    5.21    1.45
   7   4   2   15.99    1.94
   7   4   2   13.91    1.74
   7   4   1   11.00    1.70
   7   4   1   11.52    1.68
   7   4   0  179.36    8.31
   7   4   0  190.19    8.46
   7   4  -1   10.05    1.55
   7   4  -1   11.54    1.79
   7   4  -2   12.42    1.57
   7   4  -2   12.71    1.86
  -7  -4   2   17.94    2.12
   7   4  -3    1.25    1.29
   7   4  -3    4.99    1.09
  -7  -4   3    5.42    1.72
   7   4  -4    6.51    1.60
   7   4  -4    7.58    1.16
  -7  -4   4    6.94    1.82
   7   4  -5    3.11    0.89
   7   4  -5    1.19    1.44
  -7  -4   5    1.36    1.63
   7   4  -6   15.86    2.32
  -7  -4   6   19.78    2.43
   7   4  -7    7.50    2.01
  -7  -4   7    4.18    1.85
   7   4  -8   20.99    2.65
  -7  -4   8   17.73    2.57
   7   4  -9    0.67    1.92
  -7  -4   9    0.66    1.86
   7   4 -10   16.48    2.76
  -7  -4  10   20.25    2.81
   7   4 -11    2.60    2.01
  -7  -4  11    3.60    2.12
   7   4 -12    2.79    1.78
  -7  -4  12    3.31    2.22
   7   4 -13    1.51    1.85
  -7  -4  13    1.61    2.16
   7   4 -14    4.16    2.30
   7   3  14   -2.25    2.34
   7   3  13    4.49    2.73
   7   3  12    0.91    2.32
   7   3  11    4.07    2.36
   7   3  10    2.93    2.22
   7   3   9    5.16    2.33
   7   3   9    3.62    1.71
   7   3   8   13.29    1.95
   7   3   8   14.27    2.66
   7   3   7   66.32    3.66
   7   3   7   63.46    4.22
   7   3   6    4.93    1.89
   7   3   6    5.51    1.51
   7   3   5   42.72    3.16
   7   3   5   41.63    2.75
   7   3   4    3.81    1.32
   7   3   4    5.00    1.57
   7   3   3   66.20    3.64
   7   3   3   67.20    3.94
   7   3   2   16.83    1.86
   7   3   2   21.30    2.15
   7   3   1   66.16    3.62
   7   3   0  111.58    5.41
   7   3   0  111.15    5.40
   7   3  -1   79.05    3.99
   7   3  -1   66.13    3.73
   7   3  -2   22.92    2.21
   7   3  -2   21.99    1.91
  -7  -3   2   22.17    2.17
   7   3  -3   62.45    3.69
   7   3  -3   65.00    3.39
  -7  -3   3   63.50    3.74
   7   3  -4    5.01    1.42
   7   3  -4    5.65    1.08
  -7  -3   4    5.64    1.52
   7   3  -5   37.41    2.87
   7   3  -5   36.09    2.19
  -7  -3   5   36.93    2.82
   7   3  -6    3.95    1.62
  -7  -3   6    6.28    1.63
   7   3  -7   63.05    4.18
  -7  -3   7   67.52    4.08
   7   3  -8   12.46    2.21
  -7  -3   8   16.52    2.28
   7   3  -9    3.39    1.80
  -7  -3   9    3.49    1.92
   7   3 -10    5.54    2.10
  -7  -3  10    1.55    1.69
   7   3 -11    4.89    1.87
  -7  -3  11    4.73    2.08
   7   3 -12    2.86    1.92
  -7  -3  12    3.02    2.00
   7   3 -13    2.17    2.11
  -7  -3  13    6.49    2.35
   7   3 -14    3.20    1.85
  -7  -3  14   -0.85    2.05
   7   2  15   -2.33    2.45
   7   2  14    0.17    2.58
   7   2  13    2.28    2.54
   7   2  12    2.63    2.41
   7   2  11    2.00    2.25
   7   2  10    2.72    2.22
   7   2   9   -2.66    1.91
   7   2   9    0.17    1.28
   7   2   8   17.14    1.87
   7   2   8   16.53    2.71
   7   2   7   37.40    3.40
   7   2   7   33.29    2.43
   7   2   6   20.16    2.51
   7   2   6   21.95    1.96
   7   2   5    6.57    1.68
   7   2   5    9.26    1.35
   7   2   4   97.21    4.57
   7   2   4   92.20    4.98
   7   2   3   36.32    2.62
   7   2   3   35.56    2.22
   7   2   2    0.56    1.13
   7   2   2    0.32    1.02
   7   2   1   61.65    3.26
   7   2   1   58.26    3.43
   7   2   0    8.60    1.31
   7   2   0   17.40    1.70
   7   2  -1   54.40    3.13
   7   2  -1   55.60    3.14
   7   2  -2    1.10    1.06
   7   2  -2   -0.29    0.94
  -7  -2   2    0.96    1.02
   7   2  -3   36.91    2.61
   7   2  -3   36.80    2.41
  -7  -2   3   38.69    2.54
   7   2  -4  105.58    4.89
   7   2  -4   99.93    5.15
  -7  -2   4   98.57    5.05
   7   2  -5    7.90    1.15
   7   2  -5    9.18    1.68
  -7  -2   5    9.72    1.60
   7   2  -6   18.35    2.37
  -7  -2   6   19.61    2.00
   7   2  -7   33.92    3.04
  -7  -2   7   38.10    2.83
   7   2  -8   15.69    2.27
  -7  -2   8   16.50    2.13
   7   2  -9    1.32    1.83
  -7  -2   9    0.40    1.55
   7   2 -10    0.78    1.55
  -7  -2  10    0.03    1.66
   7   2 -11   -0.93    1.78
  -7  -2  11    0.68    1.71
   7   2 -12    5.72    1.89
  -7  -2  12    4.52    2.03
   7   2 -13   10.01    2.44
  -7  -2  13    3.13    2.16
   7   2 -14    3.50    2.11
  -7  -2  14    0.15    1.99
   7   2 -15    2.06    1.86
   7   1  15    0.17    2.60
   7   1  14    6.16    2.83
   7   1  13    2.75    2.54
   7   1  12    1.15    2.24
   7   1  11    3.29    2.34
   7   1  10    9.37    2.67
   7   1   9   22.11    3.07
   7   1   8   14.11    1.59
   7   1   8   14.72    2.22
   7   1   7   45.17    2.57
   7   1   7   42.64    3.48
   7   1   6    9.87    1.92
   7   1   6   13.59    1.41
   7   1   5   22.82    2.41
   7   1   5   22.48    1.76
   7   1   4  176.81    8.00
   7   1   4  164.13    7.32
   7   1   3   23.11    1.75
   7   1   3   25.11    2.23
   7   1   2    7.16    1.18
   7   1   2    6.26    1.38
   7   1   1   95.24    4.74
   7   1   1   96.04    4.52
   7   1   0   12.38    1.41
   7   1   0   11.06    1.52
   7   1  -1   99.58    4.39
   7   1  -1   78.46    4.26
   7   1  -2    6.22    1.12
   7   1  -2    5.45    1.23
   7   1  -3   27.11    2.11
   7   1  -3   25.73    1.94
  -7  -1   3   23.18    1.95
   7   1  -4  180.21    7.79
   7   1  -4  166.37    7.56
  -7  -1   4  161.32    7.61
   7   1  -5   20.70    1.73
   7   1  -5   21.23    2.18
  -7  -1   5   23.36    1.93
   7   1  -6   13.14    1.90
  -7  -1   6   13.08    1.69
   7   1  -7   38.94    3.10
  -7  -1   7   46.79    2.86
   7   1  -8   12.51    2.07
  -7  -1   8   15.73    1.95
   7   1  -9   21.57    2.61
  -7  -1   9   22.69    2.47
   7   1 -10   11.50    2.16
  -7  -1  10    8.54    2.04
   7   1 -11    2.39    1.91
  -7  -1  11    3.66    1.77
   7   1 -12    0.14    1.83
  -7  -1  12    1.66    1.75
   7   1 -13    1.36    2.02
  -7  -1  13    2.19    1.67
   7   1 -14    1.07    2.02
  -7  -1  14    1.02    1.73
   7   1 -15    2.37    2.10
   7   0  15   -0.22    2.43
   7   0  14   -1.45    2.32
   7   0  13    1.34    2.33
   7   0  12   -1.82    2.04
   7   0  11    4.15    2.30
   7   0  10    0.63    2.13
   7   0   9   17.92    2.47
   7   0   8    6.72    1.13
   7   0   8    7.38    2.08
   7   0   7   -0.11    0.85
   7   0   7   -0.57    1.51
   7   0   6    8.43    1.80
   7   0   6   12.16    1.22
   7   0   5   65.60    3.11
   7   0   5   61.93    3.82
   7   0   4  217.47    9.29
   7   0   4  229.54   10.08
   7   0   3   27.02    1.77
   7   0   3   28.53    2.39
   7   0   2   26.48    2.15
   7   0   2   29.27    1.81
   7   0   1    1.09    0.72
   7   0   1    0.75    0.98
   7   0   0   -0.64    0.88
   7   0   0    0.86    0.76
   7   0  -1    0.07    0.79
   7   0  -1    0.94    0.79
   7   0  -2   28.32    2.04
   7   0  -3   31.87    2.14
   7   0  -3   26.64    2.13
  -7   0   3   29.20    1.92
   7   0  -4  229.40    9.93
   7   0  -4  216.53    9.88
  -7   0   4  230.93    9.88
   7   0  -5   69.71    3.80
   7   0  -5   68.68    3.53
  -7   0   5   65.65    3.45
   7   0  -6   11.19    1.72
  -7   0   6   12.08    1.44
   7   0  -7    1.30    1.37
  -7   0   7   -0.98    1.15
   7   0  -8   10.60    1.93
  -7   0   8    7.58    1.65
   7   0  -9   19.79    2.56
  -7   0   9   22.00    2.30
   7   0 -10    2.27    1.68
  -7   0  10    2.65    1.59
   7   0 -11    4.06    1.73
  -7   0  11    1.26    1.60
   7   0 -12   -0.21    1.77
  -7   0  12   -0.92    1.58
   7   0 -13    0.09    1.66
  -7   0  13    1.30    1.81
   7   0 -14    1.12    1.68
  -7   0  14    2.12    1.95
   7   0 -15    1.58    2.07
   7  -1  15    0.94    2.43
   7  -1  14    3.08    2.53
   7  -1  13    2.24    2.34
   7  -1  12    4.05    2.30
   7  -1  11   11.04    2.63
   7  -1  10    1.30    2.04
   7  -1   9   22.59    2.66
   7  -1   8   10.65    2.14
   7  -1   8    9.59    1.01
   7  -1   7   37.24    3.28
   7  -1   7   41.35    2.06
   7  -1   6    2.03    0.66
   7  -1   6    2.99    1.49
   7  -1   5   92.34    4.88
   7  -1   5   90.84    3.98
   7  -1   4   31.56    1.73
   7  -1   4   29.48    2.41
   7  -1   3  131.68    5.64
   7  -1   3  131.89    6.28
   7  -1   2    1.23    0.67
   7  -1   2    3.10    1.19
   7  -1   1   59.17    3.16
   7  -1   1   51.64    2.70
   7  -1   0   82.75    4.20
   7  -1   0   84.55    3.95
   7  -1  -1   52.15    2.80
   7  -1  -1   51.97    2.95
   7  -1  -2    2.65    0.96
   7  -1  -2    2.79    1.05
   7  -1  -3  131.49    5.98
  -7   1   3  127.84    5.72
   7  -1  -4   28.64    2.18
  -7   1   4   29.43    1.74
   7  -1  -5  101.11    4.94
  -7   1   5   95.46    4.55
   7  -1  -6    2.27    1.21
  -7   1   6    3.69    1.00
   7  -1  -7   42.80    3.04
  -7   1   7   41.67    2.66
   7  -1  -8    7.57    1.79
  -7   1   8    9.07    1.57
   7  -1  -9   32.31    3.10
  -7   1   9   27.13    2.57
   7  -1 -10    0.84    1.56
  -7   1  10    0.38    1.45
   7  -1 -11    8.43    1.95
  -7   1  11    5.65    1.83
   7  -1 -12    1.70    1.62
  -7   1  12    3.38    1.78
   7  -1 -13   -0.37    1.53
  -7   1  13    0.36    1.74
   7  -1 -14   -2.35    1.85
  -7   1  14    0.23    1.83
   7  -1 -15    0.01    1.72
   7  -2  15    1.82    3.01
   7  -2  14    3.42    2.45
   7  -2  13    2.07    2.29
   7  -2  12   -1.93    1.89
   7  -2  11    1.07    2.07
   7  -2  10    9.04    2.39
   7  -2   9   10.55    2.33
   7  -2   8   17.13    2.45
   7  -2   7    3.55    1.69
   7  -2   6   15.96    2.10
   7  -2   6   15.41    0.84
   7  -2   5   10.45    1.72
   7  -2   5   10.69    0.76
   7  -2   4    6.17    1.44
   7  -2   4    4.79    0.65
   7  -2   3   35.76    2.51
   7  -2   3   36.41    1.84
   7  -2   2   37.88    2.50
   7  -2   2   37.64    1.99
   7  -2   1   41.52    2.58
   7  -2   1   38.81    2.13
   7  -2   0  239.90   10.52
   7  -2   0  241.84   10.07
   7  -2  -1   39.21    2.25
   7  -2  -1   38.46    2.48
   7  -2  -2   42.45    2.53
   7  -2  -2   39.11    2.38
   7  -2  -3   32.64    2.23
   7  -2  -3   33.60    2.27
  -7   2   3   36.09    1.74
   7  -2  -4    4.66    1.11
   7  -2  -4    2.57    1.09
  -7   2   4    6.86    0.74
   7  -2  -5   10.44    1.39
   7  -2  -5    8.44    1.51
  -7   2   5   10.44    1.08
   7  -2  -6   14.67    1.88
  -7   2   6   19.03    1.57
   7  -2  -7   -0.19    1.21
   7  -2  -8   18.48    2.25
   7  -2  -9   11.90    2.25
   7  -2 -10   12.59    2.39
   7  -2 -11    5.63    2.04
   7  -2 -12   -0.05    1.50
   7  -2 -13    3.61    2.06
   7  -2 -14    1.08    2.05
   7  -2 -15    2.60    2.22
   7  -3  15    2.51    2.95
   7  -3  14   -0.61    2.22
   7  -3  13   11.60    2.82
   7  -3  12    1.18    2.06
   7  -3  11    5.34    2.27
   7  -3  10    8.50    2.26
   7  -3   9    1.08    1.80
   7  -3   8    4.52    1.48
   7  -3   7   26.94    2.67
   7  -3   6   14.31    1.95
   7  -3   5   74.40    4.14
   7  -3   4    3.12    0.42
   7  -3   4    3.99    1.34
   7  -3   3   38.89    2.58
   7  -3   3   38.05    1.83
   7  -3   2    8.09    1.41
   7  -3   2    7.22    0.82
   7  -3   1  175.83    7.35
   7  -3   1  173.14    7.83
   7  -3   0   39.17    2.12
   7  -3   0   37.50    2.35
   7  -3  -1  164.67    7.14
   7  -3  -1  164.95    7.45
   7  -3  -2    7.33    1.26
   7  -3  -2    6.26    1.11
   7  -3  -3   37.44    2.39
   7  -3  -3   34.46    2.25
  -7   3   3   35.63    1.60
   7  -3  -4    3.69    1.22
   7  -3  -4    3.81    1.09
  -7   3   4    3.20    0.59
   7  -3  -5   71.97    3.82
   7  -3  -5   68.21    3.77
   7  -3  -6   13.45    1.74
   7  -3  -7   25.72    2.46
   7  -3  -8    7.76    1.76
   7  -3  -9    1.73    1.50
   7  -3 -10    9.81    2.03
   7  -3 -11    4.77    2.03
   7  -3 -12   -0.41    1.47
   7  -3 -13    9.78    2.40
   7  -3 -14    0.91    1.77
   7  -3 -15    0.55    1.68
  -7   3  15    2.87    1.98
   7  -4  15    2.89    2.57
   7  -4  14    0.67    2.25
   7  -4  13   10.32    2.72
   7  -4  12   -0.96    1.92
   7  -4  11    3.87    2.11
   7  -4  10    9.55    2.34
   7  -4   9    6.45    2.02
   7  -4   8    9.81    2.02
   7  -4   7   31.14    2.80
   7  -4   6   13.18    1.91
   7  -4   5   69.13    3.92
   7  -4   4    2.17    1.21
   7  -4   3   37.90    2.53
   7  -4   2    8.47    0.83
   7  -4   2    6.44    1.32
   7  -4   1  159.33    6.84
   7  -4   1  166.08    7.39
   7  -4   0   35.98    2.01
   7  -4   0   37.48    2.32
   7  -4  -1  167.51    7.05
   7  -4  -1  171.65    7.25
   7  -4  -1  161.74    7.52
   7  -4  -2    4.72    1.12
   7  -4  -2    6.40    1.07
   7  -4  -3   37.19    2.50
   7  -4  -3   41.09    2.41
   7  -4  -4    3.76    1.10
   7  -4  -4    4.87    1.18
   7  -4  -5   67.62    3.69
   7  -4  -5   68.16    3.77
   7  -4  -6   12.86    1.70
   7  -4  -7   25.42    2.39
   7  -4  -8    3.29    1.50
   7  -4  -9    3.03    1.87
   7  -4 -10    9.10    2.02
   7  -4 -11    4.19    1.83
   7  -4 -12   -0.59    1.50
   7  -4 -13   12.82    2.39
  -7   4  13    8.54    2.35
  -7   4  14   -0.39    1.83
  -7   4  15    3.50    2.38
   7  -5  15   -4.20    2.64
   7  -5  14   -0.52    2.21
   7  -5  13   -1.95    2.39
   7  -5  12   -3.05    2.14
   7  -5  11    2.15    1.95
   7  -5  10   14.50    2.54
   7  -5   9   13.57    2.32
   7  -5   8   14.65    2.45
   7  -5   7    2.55    1.52
   7  -5   6   17.37    2.08
   7  -5   5   10.73    1.67
   7  -5   4    3.24    1.30
  -7   5  -4    4.78    0.51
   7  -5   3   31.31    2.37
  -7   5  -3   35.79    1.72
   7  -5   2   43.65    2.59
  -7   5  -2   36.29    1.96
   7  -5   1   39.44    2.08
   7  -5   1   40.75    2.13
   7  -5   1   39.88    2.41
  -7   5  -1   37.39    2.11
   7  -5   0  245.40   10.38
   7  -5   0  246.48   10.15
   7  -5   0  236.62   10.62
   7  -5  -1   38.50    2.01
   7  -5  -1   38.25    2.37
   7  -5  -1   39.45    2.24
   7  -5  -2   37.35    2.27
   7  -5  -2   37.95    2.47
   7  -5  -3   35.48    2.25
   7  -5  -3   34.00    2.34
   7  -5  -4    5.90    1.26
   7  -5  -4    6.02    1.22
   7  -5  -5    8.69    1.53
   7  -5  -5    9.43    1.51
   7  -5  -6   16.25    1.91
   7  -5  -7    4.11    1.43
   7  -5  -8   17.04    2.23
   7  -5  -9   12.12    2.11
   7  -5 -10   14.01    2.31
   7  -5 -11    2.11    1.93
  -7   5  11    1.80    1.85
  -7   5  12    0.03    1.68
  -7   5  13    2.67    2.30
  -7   5  14    3.44    2.21
  -7   5  15    2.81    2.21
   7  -6  15   -4.07    2.04
   7  -6  14    0.43    2.14
   7  -6  13    5.06    2.25
   7  -6  12    4.75    2.41
   7  -6  11   12.94    2.70
   7  -6  10   -1.02    2.09
   7  -6   9   29.32    2.97
   7  -6   8   12.17    2.10
   7  -6   7   42.52    3.06
   7  -6   6    2.73    1.35
   7  -6   5   96.76    4.69
  -7   6  -5   85.75    3.63
   7  -6   4   27.30    2.26
  -7   6  -4   28.45    1.54
   7  -6   3  130.86    6.20
  -7   6  -3  131.58    5.59
   7  -6   2    4.13    1.18
   7  -6   2    0.39    0.24
  -7   6  -2    1.58    0.68
   7  -6   1   51.01    2.77
   7  -6   1   50.83    3.06
  -7   6  -1   59.22    2.74
   7  -6   0   78.45    3.83
   7  -6   0   82.61    3.55
  -7   6   0   58.65    3.41
   7  -6  -1   53.00    2.78
   7  -6  -1   57.46    3.08
  -7   6   1   50.10    2.80
   7  -6  -2    2.76    0.90
  -7   6   2    2.20    0.92
   7  -6  -3  124.01    6.05
   7  -6  -3  128.31    5.88
  -7   6   3  130.00    5.93
   7  -6  -4   30.48    2.31
   7  -6  -4   29.20    2.21
   7  -6  -5   95.31    4.90
   7  -6  -5   90.80    4.72
   7  -6  -6    1.74    1.21
   7  -6  -7   36.27    2.85
  -7   6   7   42.69    3.08
   7  -6  -8    7.38    1.75
  -7   6   8    8.36    2.29
  -7   6   9   31.52    3.34
  -7   6  10    1.84    1.81
  -7   6  11    6.99    2.14
  -7   6  12    3.04    2.27
  -7   6  13    1.52    2.02
  -7   6  14    0.87    2.30
  -7   6  15   -2.16    2.01
   7  -7  15    2.18    2.80
   7  -7  14    2.87    2.58
   7  -7  13   -0.18    2.34
   7  -7  12    0.87    1.82
   7  -7  11    0.69    2.17
   7  -7  10    2.93    1.91
   7  -7   9   22.40    2.60
   7  -7   8    6.69    2.03
   7  -7   7   -0.15    1.31
  -7   7  -7    0.13    0.37
   7  -7   6   11.42    1.75
  -7   7  -6   11.72    0.85
   7  -7   5   69.93    3.72
   7  -7   5   58.53    3.69
  -7   7  -5   64.05    2.90
   7  -7   4  236.38   10.41
   7  -7   4  231.92   10.17
  -7   7  -4  220.25    9.49
   7  -7   3   25.22    2.20
   7  -7   3   32.42    2.26
  -7   7  -3   27.69    1.75
   7  -7   2   27.59    1.97
   7  -7   2   27.46    2.13
  -7   7  -2   30.99    1.85
   7  -7   1   -0.92    0.87
   7  -7   1    0.77    0.68
  -7   7  -1    1.19    0.80
   7  -7   0    1.38    0.99
   7  -7   0    1.49    0.85
  -7   7   0    0.73    0.74
   7  -7  -1    0.84    0.92
   7  -7  -1    1.20    0.97
  -7   7   1    1.83    0.92
   7  -7  -2   26.35    2.11
  -7   7   2   28.14    2.03
   7  -7  -3   29.99    2.22
  -7   7   3   27.02    2.17
   7  -7  -4  222.45   10.20
  -7   7   4  232.69   10.03
  -7   7   5   63.71    3.71
  -7   7   6   12.75    1.95
  -7   7   7    0.19    1.40
  -7   7   8    9.63    2.34
  -7   7   9   21.02    2.72
  -7   7  10    2.13    1.90
  -7   7  11    6.45    2.16
  -7   7  12    0.46    2.21
  -7   7  13    2.39    2.18
  -7   7  14   -1.54    2.36
  -7   7  15   -3.09    2.29
   7  -8  15    0.76    2.17
   7  -8  15   -0.98    2.05
   7  -8  14   -0.79    1.99
   7  -8  14   -0.96    2.04
   7  -8  13    3.84    2.51
   7  -8  13    0.77    2.00
   7  -8  12    0.20    1.92
   7  -8  12   -0.91    2.08
   7  -8  11    2.82    1.83
   7  -8  10   10.00    2.12
   7  -8  10    8.63    2.35
   7  -8   9   21.63    2.77
   7  -8   9   18.37    2.69
   7  -8   8   13.63    2.27
   7  -8   8   10.89    2.27
   7  -8   7   40.40    2.99
   7  -8   7   38.12    3.39
  -7   8  -7   44.25    2.12
   7  -8   6   12.21    1.93
   7  -8   6   17.38    2.18
  -7   8  -6   14.90    1.21
   7  -8   5   20.58    2.23
   7  -8   5   24.21    2.32
  -7   8  -5   24.96    1.64
   7  -8   4  168.57    7.77
   7  -8   4  177.00    8.01
  -7   8  -4  165.13    7.33
   7  -8   3   27.13    2.10
   7  -8   3   27.60    2.26
  -7   8  -3   23.22    1.85
   7  -8   2    6.13    1.18
   7  -8   2    6.85    1.31
  -7   8  -2    8.75    1.22
   7  -8   0   17.10    1.69
   7  -8   0   12.06    1.58
  -7   8   0   14.97    1.59
   7  -8  -1   91.22    4.87
   7  -8  -1   95.44    4.88
  -7   8   1  109.18    4.82
   7  -8  -2    6.95    1.32
  -7   8   2    8.10    1.36
   7  -8  -3   23.44    2.21
  -7   8   3   24.30    2.20
   7  -8  -4  172.52    7.84
  -7   8   4  159.26    7.62
  -7   8   5   19.93    2.17
  -7   8   6   11.44    1.94
  -7   8   7   38.18    3.28
  -7   8   8   15.29    2.39
  -7   8   9   18.80    2.74
  -7   8  10   11.37    2.41
  -7   8  11   -0.22    1.80
  -7   8  12    1.21    1.88
  -7   8  13    1.02    2.46
  -7   8  14   -0.79    2.04
  -7   8  15   -0.38    2.43
   7  -9  15    1.69    2.24
   7  -9  14    1.87    2.23
   7  -9  13    6.83    2.20
   7  -9  13    9.44    2.88
   7  -9  12    3.68    2.15
   7  -9  12    2.90    2.12
   7  -9  11    0.54    1.86
   7  -9  11    2.34    1.99
   7  -9  10    1.84    1.88
   7  -9  10    3.85    2.02
   7  -9   9    3.09    1.90
   7  -9   9    2.77    1.66
   7  -9   8   16.22    2.48
   7  -9   8   19.23    2.40
   7  -9   7   32.17    3.08
   7  -9   7   33.60    2.66
  -7   9  -7   31.28    1.98
   7  -9   6   15.75    1.99
   7  -9   6   20.41    2.39
  -7   9  -6   23.26    1.62
   7  -9   5    6.60    1.63
   7  -9   5    9.34    1.71
  -7   9  -5    9.58    1.27
   7  -9   4   99.70    5.06
   7  -9   4  105.54    5.36
  -7   9  -4  102.58    4.86
   7  -9   3   40.08    2.69
   7  -9   3   37.71    2.63
  -7   9  -3   37.78    2.43
   7  -9   2    0.56    1.04
   7  -9   2    2.57    1.04
  -7   9  -2   -0.35    1.01
   7  -9   1   57.06    3.25
   7  -9   1   59.13    3.41
   7  -9   0   18.79    1.84
  -7   9   0   16.09    1.68
   7  -9  -1   55.59    3.49
   7  -9  -1   60.36    3.36
  -7   9   1   56.11    3.24
   7  -9  -2    1.06    1.04
  -7   9   2    1.01    1.09
   7  -9  -3   36.36    2.44
  -7   9   3   35.83    2.56
   7  -9  -4   97.81    5.20
  -7   9   4  101.04    5.10
  -7   9   5    7.07    1.61
  -7   9   6   14.40    2.12
  -7   9   7   32.94    3.12
  -7   9   8   18.17    2.55
  -7   9   9    1.41    1.90
  -7   9  10   -0.17    1.85
  -7   9  11    0.13    1.83
  -7   9  12    3.96    2.14
  -7   9  13    4.65    2.32
  -7   9  14   -0.16    2.08
  -7   9  15    0.90    2.20
   7 -10  14   -1.41    2.07
   7 -10  13    2.60    2.18
   7 -10  12    2.55    2.09
   7 -10  12    3.25    2.11
   7 -10  11    6.50    2.21
   7 -10  11    4.56    2.05
   7 -10  10    5.75    1.95
   7 -10  10    2.42    1.99
   7 -10   9    6.36    2.03
   7 -10   9    1.52    1.92
   7 -10   8   14.32    2.23
   7 -10   8    9.31    2.28
  -7  10  -8   13.50    1.52
   7 -10   7   65.74    4.39
   7 -10   7   67.07    4.03
  -7  10  -7   63.88    3.39
   7 -10   6    5.15    1.84
   7 -10   6    2.87    1.56
  -7  10  -6    6.55    1.27
   7 -10   5   34.49    2.76
   7 -10   5   41.01    3.37
  -7  10  -5   37.53    2.49
   7 -10   4    3.71    1.38
   7 -10   4    8.73    1.83
  -7  10  -4    5.46    1.31
   7 -10   3   70.41    3.83
   7 -10   3   71.88    4.19
  -7  10  -3   66.74    3.75
   7 -10   2   17.71    1.74
   7 -10   2   18.93    1.98
  -7  10  -2   11.41    1.57
   7 -10   1   80.04    4.01
   7 -10   1   77.56    4.35
  -7  10  -1   70.77    3.94
   7 -10   0  115.63    5.81
   7 -10   0  108.29    5.46
  -7  10   0  107.46    5.36
   7 -10  -1   68.86    3.92
  -7  10   1   77.74    4.08
   7 -10  -2   22.45    2.12
  -7  10   2   18.66    2.08
   7 -10  -3   65.59    3.83
  -7  10   3   68.26    3.89
  -7  10   4    3.90    1.51
  -7  10   5   36.95    3.08
  -7  10   6    3.77    1.66
  -7  10   7   56.45    3.89
  -7  10   8   16.69    2.79
  -7  10   9    2.43    1.94
  -7  10  10    3.76    2.00
  -7  10  11    4.56    2.12
  -7  10  12    1.66    2.00
  -7  10  13    6.36    2.47
  -7  10  14    2.59    2.34
   7 -11  14    0.03    2.09
   7 -11  13    0.31    2.04
   7 -11  12    5.21    2.30
   7 -11  11    0.25    1.75
   7 -11  11    0.71    1.97
   7 -11  10   19.64    2.53
   7 -11  10   16.37    2.83
   7 -11   9    1.42    1.69
   7 -11   9    1.89    2.01
   7 -11   8   16.52    2.70
   7 -11   8   19.24    2.40
  -7  11  -8   19.22    1.91
   7 -11   7    6.38    1.78
   7 -11   7    2.01    1.89
  -7  11  -7    9.53    1.46
   7 -11   6   16.67    2.47
   7 -11   6   17.20    2.14
  -7  11  -6   18.36    2.00
   7 -11   5    3.80    1.50
   7 -11   5    3.08    1.65
  -7  11  -5    1.00    1.16
   7 -11   4    5.54    1.47
   7 -11   4    6.98    1.76
  -7  11  -4    5.64    1.60
   7 -11   3    4.77    1.34
   7 -11   3    2.91    1.50
  -7  11  -3    5.24    1.52
   7 -11   2   15.80    1.77
   7 -11   2   13.32    1.92
  -7  11  -2   12.40    1.59
   7 -11   1    9.65    1.47
   7 -11   1   10.87    1.91
  -7  11  -1   12.22    1.74
   7 -11   0  171.82    8.69
   7 -11   0  182.21    8.33
  -7  11   0  190.07    8.32
   7 -11  -1   13.95    2.31
   7 -11  -1    9.21    1.51
  -7  11   1   14.11    2.06
   7 -11  -2   13.94    1.79
  -7  11   2   12.69    1.91
   7 -11  -3    4.29    1.43
  -7  11   3    5.00    1.57
  -7  11   4    7.75    1.81
  -7  11   5    1.74    1.63
  -7  11   6   16.30    2.47
  -7  11   7    4.76    1.96
  -7  11   8   23.02    2.91
  -7  11   9    0.21    2.21
  -7  11  10   22.91    3.29
  -7  11  11    2.55    2.14
  -7  11  12    2.03    2.19
  -7  11  13    2.52    2.77
  -7  11  14    1.25    2.83
   7 -12  14   -0.10    2.27
   7 -12  13    0.57    2.17
   7 -12  12    3.74    2.34
   7 -12  11    5.61    2.38
   7 -12  10    1.80    2.06
   7 -12   9    8.14    2.37
   7 -12   9   14.18    2.24
   7 -12   8    8.06    1.90
   7 -12   8    6.19    2.28
  -7  12  -8   10.26    1.67
   7 -12   7   15.87    2.65
   7 -12   7   13.84    2.09
  -7  12  -7   13.61    1.89
   7 -12   6    7.62    1.70
   7 -12   6   10.17    2.21
  -7  12  -6    8.09    1.66
   7 -12   5   17.33    2.04
   7 -12   5   17.52    2.56
  -7  12  -5   15.61    2.05
   7 -12   4    5.07    1.44
   7 -12   4    5.69    1.85
  -7  12  -4    7.68    1.76
   7 -12   3   58.76    3.48
   7 -12   3   61.45    3.98
   7 -12   2   -0.82    1.45
   7 -12   2    1.09    1.21
  -7  12  -2    4.06    1.76
   7 -12   1   76.81    4.58
   7 -12   1   73.65    3.97
  -7  12  -1   69.46    4.34
   7 -12   0   49.71    3.13
   7 -12   0   49.31    3.73
  -7  12   0   57.50    3.48
   7 -12  -1   73.91    4.32
   7 -12  -1   82.90    5.13
  -7  12   1   79.67    4.50
   7 -12  -2   -0.65    1.11
  -7  12   2   -1.66    1.39
  -7  12   3   59.55    3.87
  -7  12   4    8.77    1.94
  -7  12   5   16.05    2.38
  -7  12   6    9.42    2.21
  -7  12   7   15.33    2.61
  -7  12   8    9.20    2.39
  -7  12   9   14.84    2.72
  -7  12  10    3.54    2.18
  -7  12  11    2.19    2.21
  -7  12  12    6.79    2.47
  -7  12  13    1.64    2.33
  -7  12  14   -2.48    2.14
   7 -13  13    2.33    2.38
   7 -13  12   -0.43    2.13
   7 -13  11    1.64    2.27
   7 -13  10    2.24    2.07
   7 -13   9    0.90    2.01
   7 -13   8    4.83    2.19
   7 -13   8    6.46    1.88
  -7  13  -8    8.21    1.69
   7 -13   7   10.80    1.81
   7 -13   7   10.33    2.43
  -7  13  -7    8.20    1.85
   7 -13   6    2.89    1.52
   7 -13   6    1.53    1.98
  -7  13  -6   -1.98    1.27
   7 -13   5    1.52    1.31
   7 -13   5    1.33    1.94
  -7  13  -5    0.35    1.54
   7 -13   4   44.34    3.73
   7 -13   4   48.10    3.07
  -7  13  -4   48.29    3.57
   7 -13   3   25.55    3.07
   7 -13   3   23.26    2.20
  -7  13  -3   24.37    2.75
   7 -13   2    1.44    1.84
   7 -13   2    0.31    1.23
  -7  13  -2    0.49    1.47
   7 -13   1    6.91    2.11
   7 -13   1    6.71    1.38
  -7  13  -1    9.45    1.99
   7 -13   0    3.80    1.32
   7 -13   0    6.30    2.06
  -7  13   0    2.71    1.92
   7 -13  -1    9.04    2.28
   7 -13  -1    7.24    1.52
  -7  13   1    9.75    2.02
  -7  13   2    0.52    1.67
  -7  13   3   25.51    2.84
  -7  13   4   53.49    3.91
  -7  13   5    2.60    1.82
  -7  13   6    0.94    1.84
  -7  13   7   10.72    2.43
  -7  13   8    4.04    2.45
  -7  13   9    4.77    2.51
  -7  13  10    2.65    2.12
  -7  13  11   -0.65    1.98
  -7  13  12   -0.25    2.19
  -7  13  13    1.99    2.81
   7 -14  13    2.16    2.33
   7 -14  12    3.06    2.66
   7 -14  11    0.79    2.15
   7 -14  10    2.60    2.20
   7 -14   9   -0.17    1.96
   7 -14   8    0.73    2.09
  -7  14  -8    3.87    1.43
   7 -14   7    6.63    2.43
   7 -14   6   -2.21    1.92
   7 -14   6   -2.20    1.32
  -7  14  -6   -0.05    1.57
   7 -14   5    1.68    2.07
   7 -14   5    4.45    1.54
  -7  14  -5    4.93    1.89
   7 -14   4   46.45    3.08
   7 -14   4   49.86    4.33
   7 -14   3   16.43    1.96
   7 -14   3   20.02    2.88
  -7  14  -3   19.40    2.74
   7 -14   2    5.76    1.52
   7 -14   2    7.43    2.36
  -7  14  -2    3.49    1.83
   7 -14   1   18.44    2.93
   7 -14   1   26.13    2.42
  -7  14  -1   29.94    3.05
   7 -14   0   25.20    2.49
   7 -14   0   27.44    3.33
  -7  14   0   28.03    3.04
   7 -14  -1   23.53    2.41
   7 -14  -1   23.60    3.27
  -7  14   1   20.34    2.72
  -7  14   2    5.21    1.95
  -7  14   3   20.21    2.82
  -7  14   4   48.65    3.90
  -7  14   5    3.64    2.10
  -7  14   6    0.26    1.96
  -7  14   7   10.98    2.52
  -7  14   8    3.58    2.10
  -7  14   9   -0.36    2.36
  -7  14  10    6.23    2.39
  -7  14  11    4.53    2.51
  -7  14  12    4.62    2.51
  -7  14  13    1.02    2.31
   7 -15  12    3.52    2.45
   7 -15  11    0.83    2.31
   7 -15  10    0.57    2.27
   7 -15   9   -3.66    1.90
   7 -15   8    2.05    2.16
  -7  15  -8    3.75    1.67
   7 -15   7    2.11    2.11
  -7  15  -7    0.70    1.55
   7 -15   6    4.70    2.28
  -7  15  -6    2.73    1.84
   7 -15   5    2.33    1.45
   7 -15   5   -0.93    2.04
  -7  15  -5   -1.05    1.33
   7 -15   4   13.04    1.92
   7 -15   4   14.48    2.85
  -7  15  -4   14.40    2.66
   7 -15   3   15.03    2.91
   7 -15   3   12.71    1.92
  -7  15  -3   16.07    2.56
   7 -15   2    0.33    2.62
   7 -15   2    1.75    1.38
  -7  15  -2    3.70    1.99
   7 -15   1   17.53    3.01
   7 -15   1   14.25    2.01
  -7  15  -1   19.09    2.69
   7 -15   0   -0.86    2.15
   7 -15   0    1.33    1.56
  -7  15   0   -0.50    1.87
   7 -15  -1   20.15    3.22
  -7  15   1   25.01    3.30
  -7  15   2    3.97    2.08
  -7  15   3   12.92    2.54
  -7  15   4   10.20    2.47
  -7  15   5    4.03    2.25
  -7  15   6    3.42    2.18
  -7  15   7    0.48    1.98
  -7  15   8    1.41    2.47
  -7  15   9   -0.06    2.14
  -7  15  10    0.45    2.22
  -7  15  11   -0.92    2.17
  -7  15  12    4.24    2.62
   7 -16  12   -1.01    2.34
   7 -16  11   -2.34    2.27
   7 -16  10    0.76    2.22
   7 -16   9   -1.64    2.52
   7 -16   8    4.51    2.37
   7 -16   7    2.78    2.29
  -7  16  -7    2.85    1.71
   7 -16   6    3.56    2.25
  -7  16  -6    4.81    2.02
   7 -16   5    6.35    2.55
  -7  16  -5    5.33    1.76
   7 -16   4   -0.57    2.28
  -7  16  -4    1.20    1.78
   7 -16   3   12.99    2.85
   7 -16   3    8.43    1.65
  -7  16  -3   11.21    2.73
   7 -16   2    5.32    2.55
   7 -16   2    0.20    1.34
  -7  16  -2    0.52    1.98
   7 -16   1    7.96    2.64
   7 -16   1    9.80    1.89
  -7  16  -1   11.42    2.46
   7 -16   0   14.81    3.35
  -7  16   0   12.61    2.63
   7 -16  -1    5.58    3.05
  -7  16   1   12.40    2.52
  -7  16   2    5.80    2.35
  -7  16   3    3.37    2.25
  -7  16   4    2.36    2.09
  -7  16   5    0.23    1.95
  -7  16   6    6.71    2.34
  -7  16   7    2.37    2.13
  -7  16   8    0.32    2.20
  -7  16   9   -1.40    2.63
  -7  16  10    0.62    2.30
  -7  16  11   -0.51    2.32
   7 -17  11    0.58    2.48
   7 -17  10    0.18    2.44
   7 -17   9   -2.34    2.19
   7 -17   8    1.92    2.40
   7 -17   7   -0.53    2.21
  -7  17  -7   -2.82    1.61
   7 -17   6    6.85    2.65
  -7  17  -6    3.17    1.01
   7 -17   5    0.56    2.34
  -7  17  -5   -0.87    1.61
   7 -17   4    2.40    2.46
  -7  17  -4    1.63    2.06
   7 -17   3    1.81    2.38
  -7  17  -3   -1.61    1.72
   7 -17   2    2.05    2.81
  -7  17  -2   -3.31    1.69
   7 -17   1    2.39    2.85
  -7  17  -1    2.00    2.12
   7 -17   0    2.34    2.44
  -7  17   0    6.14    2.78
   7 -17  -1   -2.42    2.23
  -7  17   1   -2.56    1.96
  -7  17   2    0.36    2.02
  -7  17   3   -0.27    2.02
  -7  17   4   -1.20    1.98
  -7  17   5   -3.03    1.82
  -7  17   6   10.11    2.54
  -7  17   7   -1.34    2.00
  -7  17   8    2.85    2.42
  -7  17   9   -2.54    2.09
  -7  17  10   -0.92    2.67
  -7  17  11    2.05    2.62
   7 -18  10   -1.85    2.43
   7 -18   9   -0.97    2.44
   7 -18   8   -1.11    2.75
   7 -18   7    4.17    2.76
  -7  18  -7    5.89    2.28
   7 -18   6    3.91    2.60
  -7  18  -6    1.77    2.05
   7 -18   5    0.17    2.40
  -7  18  -5   -0.68    1.71
   7 -18   4    2.15    2.47
  -7  18  -4   -1.27    2.04
   7 -18   3    2.55    2.49
  -7  18  -3    3.40    2.41
   7 -18   2    1.90    2.34
  -7  18  -2    5.59    2.24
   7 -18   1    5.62    2.59
  -7  18  -1    2.70    2.27
   7 -18   0    3.29    2.53
  -7  18   0    2.43    2.19
  -7  18   1    6.47    2.41
  -7  18   2    2.04    2.24
  -7  18   3   -1.10    1.95
  -7  18   4    0.32    2.12
  -7  18   5    1.76    2.65
  -7  18   6    3.57    2.35
  -7  18   7    2.98    2.38
  -7  18   8    0.63    2.17
  -7  18   9    0.09    2.33
  -7  18  10   -2.83    2.21
   7 -19   9    2.37    3.15
   7 -19   8    0.99    2.71
   7 -19   7    2.78    3.23
  -7  19  -7    2.26    0.75
   7 -19   6   -1.42    2.51
  -7  19  -6   -0.19    2.03
   7 -19   5   -3.91    2.24
  -7  19  -5    2.31    2.02
   7 -19   4    2.60    2.57
  -7  19  -4    3.02    2.03
   7 -19   3   -1.60    2.31
  -7  19  -3    0.18    2.29
   7 -19   2    4.48    2.55
  -7  19  -2   -3.51    2.18
   7 -19   1    3.40    2.49
  -7  19  -1    4.47    2.36
   7 -19   0   -0.92    2.28
  -7  19   0   -1.29    2.06
  -7  19   1    6.21    2.46
  -7  19   2    2.50    2.66
  -7  19   3    2.83    2.32
  -7  19   4    6.12    2.57
  -7  19   5    0.41    2.24
  -7  19   6    4.45    2.50
  -7  19   7    1.40    2.84
  -7  19   8    3.18    2.94
  -7  19   9    3.14    2.60
   7 -20   8    0.72    2.86
   7 -20   7   -0.24    2.73
  -7  20  -7   -1.27    2.06
   7 -20   6   -2.78    2.56
  -7  20  -6   -3.95    2.01
   7 -20   5   -2.39    2.53
  -7  20  -5    1.43    2.01
   7 -20   4    2.40    2.68
  -7  20  -4    4.14    2.49
   7 -20   3    1.71    2.61
  -7  20  -3    3.32    2.50
   7 -20   2    3.13    2.67
  -7  20  -2   -0.33    2.08
   7 -20   1    1.91    2.60
  -7  20  -1   -1.31    2.04
   7 -20   0    4.60    2.85
  -7  20   0    5.55    2.56
  -7  20   1    2.55    2.42
  -7  20   2    3.66    2.45
  -7  20   3    0.54    2.29
  -7  20   4    5.52    2.58
  -7  20   5    0.45    2.27
  -7  20   6    2.16    2.49
  -7  20   7    0.23    2.47
  -7  20   8   -0.03    2.43
   7 -21   6   -1.46    2.62
  -7  21  -6   -0.27    1.93
   7 -21   5    1.73    2.74
  -7  21  -5    5.40    2.77
   7 -21   4    1.83    3.08
  -7  21  -4    0.73    2.62
   7 -21   3    0.52    2.50
  -7  21  -3    3.72    2.47
   7 -21   2    0.87    2.59
  -7  21  -2    1.54    2.27
   7 -21   1    3.04    3.13
  -7  21  -1   -2.70    2.03
  -7  21   0   -0.45    2.22
  -7  21   1    0.17    2.31
  -7  21   2    0.11    2.40
  -7  21   3    7.13    3.11
  -7  21   4    2.21    2.49
  -7  21   5   -1.72    2.41
  -7  21   6    0.50    2.47
   7 -22   4    2.51    2.88
  -7  22  -4    1.66    2.36
   7 -22   3    4.55    3.05
  -7  22  -3    0.42    2.24
   7 -22   2   -0.62    2.67
  -7  22  -2    0.55    2.25
   7 -22   1    3.43    2.80
  -7  22  -1    2.70    2.51
  -7  22   0    2.53    2.50
  -7  22   1    2.13    2.46
  -7  22   2   -1.14    2.21
  -7  22   3    2.79    2.62
  -7  22   4    2.54    2.57
   8  15   0    1.46    2.26
   8  14   5   -0.90    2.57
   8  14   4    9.03    3.08
   8  14   3    3.73    2.39
   8  14   2   -1.15    2.13
   8  14   1    3.75    2.63
   8  14   0    0.97    2.18
   8  14  -1    2.00    2.21
   8  14  -2    1.07    2.07
   8  14  -3   -1.55    2.02
   8  14  -4    8.00    2.67
   8  14  -5    0.00    2.55
   8  13   6    1.10    2.13
   8  13   6   -1.46    0.73
   8  13   5    3.04    2.22
   8  13   4    1.96    2.24
   8  13   3    4.02    2.31
   8  13   2   -1.09    1.92
   8  13   1    1.09    2.09
   8  13   0    1.24    2.09
   8  13  -1   -2.23    1.83
   8  13  -2    1.00    2.05
   8  13  -3    6.74    2.51
   8  13  -4    0.49    2.13
   8  13  -5    1.17    2.19
   8  13  -6    3.32    2.75
  -8 -13   6    1.54    2.60
  -8 -13   7    0.12    3.14
   8  12   8    2.49    2.62
   8  12   8   -1.42    2.14
   8  12   7    3.15    2.24
   8  12   7    0.72    2.17
   8  12   6   -0.07    2.40
   8  12   6    0.42    2.02
   8  12   5   -0.02    1.76
   8  12   5    1.92    2.53
   8  12   4    0.81    2.08
   8  12   3    1.20    2.01
   8  12   2   -1.11    1.83
   8  12   1    1.44    1.98
   8  12   0    9.47    2.51
   8  12  -1    2.20    2.04
   8  12  -2    0.17    1.99
   8  12  -3    2.84    2.11
   8  12  -4    7.76    2.40
   8  12  -5   -2.89    2.23
  -8 -12   5    3.58    2.92
   8  12  -6   -2.78    1.84
  -8 -12   6    2.78    2.93
   8  12  -7    3.43    2.29
  -8 -12   7    4.58    3.20
   8  12  -8    2.99    2.65
  -8 -12   8    3.05    3.02
   8  11   9   -1.13    2.25
   8  11   9    0.11    2.32
   8  11   8    3.98    2.81
   8  11   8    4.75    2.27
   8  11   7    2.94    2.54
   8  11   7    2.33    2.50
   8  11   6    5.12    2.25
   8  11   6    4.57    2.53
   8  11   5   -1.54    2.25
   8  11   5   -0.05    0.87
   8  11   4   -1.93    1.83
   8  11   4    0.89    1.96
   8  11   3    0.54    1.78
   8  11   3    2.20    1.97
   8  11   2    1.61    1.95
   8  11   1    2.30    2.02
   8  11   0   14.54    2.67
   8  11  -1    0.92    1.93
   8  11  -2    0.43    1.83
   8  11  -3    3.04    2.13
   8  11  -4    0.27    1.89
   8  11  -5    0.76    1.92
  -8 -11   5   -3.12    2.09
   8  11  -6    7.33    2.46
  -8 -11   6    6.57    3.14
   8  11  -7    4.42    2.20
  -8 -11   7    3.98    3.02
   8  11  -8    1.63    2.14
  -8 -11   8   -0.99    2.78
   8  11  -9   -0.79    1.85
  -8 -11   9   -3.22    2.79
   8  10  10    0.68    2.57
   8  10   9   -1.30    2.15
   8  10   9    1.49    2.31
   8  10   8    2.86    2.30
   8  10   8    6.65    2.54
   8  10   7    9.21    2.42
   8  10   7    8.66    2.48
   8  10   6    2.66    2.01
   8  10   6    0.35    1.90
   8  10   5    6.37    2.11
   8  10   5    6.45    2.50
   8  10   4    0.61    1.89
   8  10   4    2.03    1.90
   8  10   3    2.77    1.94
   8  10   3    1.57    1.87
   8  10   2    0.40    1.84
   8  10   2    0.57    1.64
   8  10   1   11.21    2.41
   8  10   0    9.72    2.33
   8  10  -1   12.47    2.58
   8  10  -2    0.36    1.81
   8  10  -3    2.25    2.08
   8  10  -4    4.72    2.17
  -8 -10   4    2.15    2.22
   8  10  -5    6.32    2.18
  -8 -10   5    3.61    2.69
   8  10  -6    2.14    2.03
  -8 -10   6    3.59    2.33
   8  10  -7    9.87    2.78
  -8 -10   7   13.08    3.32
   8  10  -8    5.83    2.37
  -8 -10   8    5.72    3.03
   8  10  -9    4.01    2.21
  -8 -10   9    2.62    2.93
   8  10 -10    0.20    2.06
  -8 -10  10   -1.28    2.34
   8   9  11   -3.19    2.32
   8   9  10   -3.12    2.12
   8   9   9    1.09    2.36
   8   9   9    3.59    2.33
   8   9   8    1.66    2.25
   8   9   8   -2.30    2.02
   8   9   7    7.24    2.37
   8   9   7    8.46    2.45
   8   9   6    5.73    2.09
   8   9   6    6.78    2.40
   8   9   5    6.85    2.08
   8   9   5    7.09    2.37
   8   9   4   -1.18    0.75
   8   9   4    1.26    2.08
   8   9   3    1.57    1.80
   8   9   3   -0.14    1.77
   8   9   2    0.79    1.72
   8   9   2    1.16    1.76
   8   9   1    8.97    2.06
   8   9   1   10.24    2.35
   8   9   0    0.56    1.76
   8   9  -1    7.59    2.26
   8   9  -2   -0.56    1.76
   8   9  -3    1.98    1.90
   8   9  -4   -0.74    1.65
  -8  -9   4    0.88    2.02
   8   9  -5    6.29    2.34
  -8  -9   5    3.69    2.20
   8   9  -6    5.74    2.09
  -8  -9   6    4.18    2.57
   8   9  -7    8.87    2.43
  -8  -9   7    9.20    2.59
   8   9  -8    2.69    2.06
  -8  -9   8   -0.17    2.20
   8   9  -9    2.16    2.11
  -8  -9   9    3.30    2.89
   8   9 -10    1.56    2.29
  -8  -9  10   -1.20    2.19
   8   9 -11    1.13    1.93
  -8  -9  11   -1.95    2.28
   8   8  12   -0.62    2.60
   8   8  11    3.76    2.74
   8   8  10    0.14    2.32
   8   8   9    0.90    2.70
   8   8   9    0.70    1.95
   8   8   8   -0.58    2.03
   8   8   8    0.25    1.96
   8   8   7    1.77    2.05
   8   8   7    0.80    1.93
   8   8   6    5.94    1.98
   8   8   6   10.80    2.34
   8   8   5    8.55    2.16
   8   8   5    6.32    2.05
   8   8   4    4.61    1.85
   8   8   4   10.64    2.46
   8   8   3    5.40    1.97
   8   8   3    4.15    1.98
   8   8   2    4.70    1.96
   8   8   2    1.97    1.89
   8   8   1    4.63    2.00
   8   8   1    6.76    1.84
   8   8   0   17.53    2.64
   8   8   0   18.22    2.18
   8   8  -1    2.95    1.72
   8   8  -1    5.17    2.02
   8   8  -2    3.45    2.02
   8   8  -3    8.96    2.30
   8   8  -4    5.79    2.06
  -8  -8   4   11.22    2.78
   8   8  -5    3.43    1.96
  -8  -8   5    6.91    2.62
   8   8  -6    8.81    2.29
  -8  -8   6    9.71    2.73
   8   8  -7    3.89    2.20
  -8  -8   7    3.25    2.51
   8   8  -8   -0.97    1.65
  -8  -8   8   -1.32    2.34
   8   8  -9    1.28    1.93
  -8  -8   9    2.79    2.70
   8   8 -10    2.71    2.36
  -8  -8  10   -1.15    2.66
   8   8 -11   -1.47    1.72
  -8  -8  11    0.09    2.70
   8   8 -12    1.59    2.05
   8   7  12   -1.78    2.50
   8   7  11    1.41    2.54
   8   7  10    1.87    2.86
   8   7   9    0.32    1.76
   8   7   9    1.31    2.31
   8   7   8   -4.51    1.80
   8   7   8    1.03    1.92
   8   7   7   -1.39    1.84
   8   7   7    1.95    1.97
   8   7   6   -1.66    1.84
   8   7   6    2.01    1.92
   8   7   5    0.32    1.78
   8   7   5    1.32    2.04
   8   7   4   16.91    2.67
   8   7   4   14.98    2.40
   8   7   3   14.99    2.39
   8   7   2    0.87    1.72
   8   7   2    2.71    1.81
   8   7   1   17.95    2.23
   8   7   1   13.71    2.33
   8   7   0    0.77    1.37
   8   7   0   -0.02    1.66
   8   7  -1   18.53    2.22
   8   7  -1   21.60    2.68
   8   7  -2    1.87    1.85
   8   7  -2    2.07    1.34
   8   7  -3   18.12    2.72
  -8  -7   3   17.02    2.92
   8   7  -4   11.63    2.36
  -8  -7   4   14.67    2.88
   8   7  -5    0.82    1.76
  -8  -7   5   -0.58    2.18
   8   7  -6    0.77    1.71
  -8  -7   6    1.61    1.93
   8   7  -7    5.40    2.02
  -8  -7   7    2.66    2.29
   8   7  -8   -0.87    1.64
  -8  -7   8   -0.02    2.34
   8   7  -9   -0.21    1.73
  -8  -7   9   -1.14    2.27
   8   7 -10    2.02    1.86
  -8  -7  10    4.34    2.66
   8   7 -11    4.50    2.42
  -8  -7  11   -0.56    2.44
   8   7 -12   -0.06    1.66
   8   6  13   -0.92    2.64
   8   6  12    1.64    2.63
   8   6  11    7.64    2.92
   8   6  10    4.38    2.51
   8   6   9    4.22    1.85
   8   6   9    5.34    2.48
   8   6   8    2.25    2.16
   8   6   8    3.28    1.81
   8   6   7    2.57    1.89
   8   6   7    3.74    2.16
   8   6   6    4.21    2.03
   8   6   6    5.46    1.99
   8   6   5   26.08    3.01
   8   6   5   26.08    2.71
   8   6   4    1.71    1.69
   8   6   4    1.10    1.56
   8   6   3   69.10    4.35
   8   6   3   76.95    4.47
   8   6   2    0.31    1.50
   8   6   2    1.64    1.44
   8   6   1   16.41    2.17
   8   6   1   15.31    2.26
   8   6   0   53.08    4.00
   8   6   0   59.85    3.70
   8   6  -1   14.70    2.31
   8   6  -1   16.23    2.08
   8   6  -2    2.79    1.76
   8   6  -2   -1.41    1.26
   8   6  -3   76.39    4.61
   8   6  -3   69.00    3.88
  -8  -6   3   76.91    4.70
   8   6  -4    2.77    1.78
  -8  -6   4   -1.85    1.65
   8   6  -5   24.40    2.96
  -8  -6   5   26.34    3.19
   8   6  -6    0.45    1.80
  -8  -6   6    3.92    2.29
   8   6  -7    6.48    2.02
  -8  -6   7    2.47    1.98
   8   6  -8    4.46    1.91
  -8  -6   8    3.75    2.32
   8   6  -9    5.90    2.08
  -8  -6   9    6.66    2.49
   8   6 -10    1.05    1.80
  -8  -6  10   -1.57    2.10
   8   6 -11    5.63    2.40
  -8  -6  11    7.10    2.62
   8   6 -12    4.18    2.11
  -8  -6  12    4.07    2.69
   8   6 -13    3.01    2.05
   8   5  13    0.96    2.62
   8   5  12   -0.39    2.48
   8   5  11    7.10    2.81
   8   5  10   10.45    2.76
   8   5   9    2.72    2.28
   8   5   9    2.80    1.86
   8   5   8    1.75    1.61
   8   5   8    2.14    2.09
   8   5   7   12.68    2.20
   8   5   7   18.15    2.83
   8   5   6    6.17    2.15
   8   5   6    5.05    1.80
   8   5   5   19.40    2.46
   8   5   5   20.71    2.64
   8   5   4   40.81    3.26
   8   5   4   39.80    3.25
   8   5   3   27.47    2.78
   8   5   3   25.21    2.57
   8   5   2   16.06    2.10
   8   5   1   23.24    2.40
   8   5   1   19.66    2.27
   8   5   0   11.35    1.84
   8   5   0   13.19    2.17
   8   5  -1   21.24    2.27
   8   5  -1   22.66    2.56
   8   5  -2   14.92    1.83
   8   5  -2   13.00    2.11
   8   5  -3   29.26    2.23
   8   5  -3   26.05    2.75
  -8  -5   3   22.59    2.78
   8   5  -4   42.64    2.62
   8   5  -4   43.32    3.40
  -8  -5   4   43.72    3.66
   8   5  -5   16.11    2.46
   8   5  -5   21.07    1.61
  -8  -5   5   21.79    2.76
   8   5  -6    5.19    1.87
  -8  -5   6    5.27    1.93
   8   5  -7   16.74    2.64
  -8  -5   7   15.41    2.44
   8   5  -8   -0.77    1.63
  -8  -5   8    4.25    2.15
   8   5  -9    1.87    2.03
  -8  -5   9    2.90    2.12
   8   5 -10    6.57    2.12
  -8  -5  10    9.60    2.53
   8   5 -11    7.28    2.20
  -8  -5  11    6.90    2.21
   8   5 -12    1.30    2.16
  -8  -5  12   -1.20    2.21
   8   5 -13    0.43    1.75
   8   4  14   -1.10    2.62
   8   4  13    0.81    2.57
   8   4  12    2.47    2.59
   8   4  11    0.65    2.32
   8   4  10   11.10    2.83
   8   4   9   15.24    2.89
   8   4   8    6.70    1.72
   8   4   8    5.59    2.41
   8   4   7   26.96    2.62
   8   4   7   29.04    3.31
   8   4   6    5.16    1.70
   8   4   6    6.38    2.04
   8   4   5    7.32    1.81
   8   4   5    6.81    1.93
   8   4   4   23.06    2.60
   8   4   4   26.43    2.49
   8   4   3   19.87    2.28
   8   4   3   20.54    2.13
   8   4   2   31.87    2.56
   8   4   2   33.87    2.63
   8   4   1   39.88    3.00
   8   4   1   49.38    3.09
   8   4   0    0.08    1.29
   8   4   0    0.16    1.28
   8   4  -1   46.58    3.13
   8   4  -1   47.70    3.25
   8   4  -2   27.94    2.63
   8   4  -2   29.95    2.39
   8   4  -3   21.81    1.96
   8   4  -3   20.72    2.45
  -8  -4   3   19.74    2.43
   8   4  -4   28.50    2.83
   8   4  -4   28.70    2.23
  -8  -4   4   31.80    2.97
   8   4  -5    9.02    1.96
   8   4  -5    9.30    1.31
  -8  -4   5    5.43    1.90
   8   4  -6    5.32    1.86
  -8  -4   6    7.37    2.05
   8   4  -7   29.71    3.13
  -8  -4   7   29.58    3.06
   8   4  -8    3.44    1.93
  -8  -4   8    7.46    2.08
   8   4  -9   21.25    2.98
  -8  -4   9   19.59    2.77
   8   4 -10    9.35    2.20
  -8  -4  10    7.33    2.25
   8   4 -11    2.85    1.89
  -8  -4  11   -1.74    1.93
   8   4 -12    2.11    1.83
  -8  -4  12    1.33    2.20
   8   4 -13    5.57    2.17
   8   4 -14   -1.14    1.78
   8   3  14   -2.33    2.47
   8   3  13    2.15    2.64
   8   3  12    1.82    2.43
   8   3  11    2.01    2.35
   8   3  10   14.28    2.96
   8   3   9    4.56    2.38
   8   3   8    1.69    1.64
   8   3   8    0.99    1.49
   8   3   7    9.80    2.35
   8   3   7   11.33    1.87
   8   3   6    7.31    2.08
   8   3   6    4.19    1.48
   8   3   5    5.97    1.62
   8   3   5    6.29    1.87
   8   3   4    6.77    1.78
   8   3   4    6.57    1.55
   8   3   3   32.45    2.39
   8   3   3   36.54    2.76
   8   3   2    7.79    1.59
   8   3   2    5.57    1.49
   8   3   1    3.45    0.93
   8   3   1    8.73    1.46
   8   3   0   22.60    2.23
   8   3   0   17.92    2.05
   8   3  -1   11.01    1.69
   8   3  -1   16.08    2.01
   8   3  -2    3.96    1.44
   8   3  -2    4.90    1.38
   8   3  -3   37.57    2.85
   8   3  -3   36.10    2.55
  -8  -3   3   39.76    2.87
   8   3  -4    6.98    1.32
   8   3  -4    3.73    1.56
  -8  -3   4    6.67    1.68
   8   3  -5    8.05    1.29
   8   3  -5    7.92    1.85
  -8  -3   5    6.89    1.75
   8   3  -6    6.93    1.90
  -8  -3   6    8.17    1.89
   8   3  -7    4.60    1.82
  -8  -3   7   10.21    2.10
   8   3  -8    3.25    2.02
  -8  -3   8    4.41    1.86
   8   3  -9    9.53    2.15
  -8  -3   9   11.72    2.28
   8   3 -10    9.91    2.21
  -8  -3  10   11.37    2.51
   8   3 -11    3.81    1.85
  -8  -3  11    5.08    2.09
   8   3 -12    3.39    2.21
  -8  -3  12    2.17    2.06
   8   3 -13   -1.50    1.67
   8   3 -14    0.77    1.81
   8   2  14    2.15    2.68
   8   2  13    2.16    2.58
   8   2  12    2.13    2.38
   8   2  11    7.07    2.56
   8   2  10   17.56    3.05
   8   2   9    0.88    1.66
   8   2   8    4.07    2.10
   8   2   8    0.92    1.29
   8   2   7   12.08    1.69
   8   2   7   10.37    2.03
   8   2   6   20.00    2.67
   8   2   6   23.20    2.09
   8   2   5   12.08    1.62
   8   2   5   10.06    2.03
   8   2   4   57.51    3.63
   8   2   4   53.66    3.10
   8   2   3   34.97    2.46
   8   2   3   38.13    2.79
   8   2   2   27.81    2.23
   8   2   2   29.15    2.39
   8   2   1    9.51    1.60
   8   2   1   14.43    1.79
   8   2   0   40.52    2.78
   8   2  -1   11.49    1.67
   8   2  -1    8.54    1.51
   8   2  -2   25.95    2.24
   8   2  -2   24.95    2.29
   8   2  -3   38.25    2.57
   8   2  -3   38.38    2.78
  -8  -2   3   40.04    2.69
   8   2  -4   57.07    3.25
   8   2  -4   49.83    3.39
  -8  -2   4   56.28    3.28
   8   2  -5   10.35    1.47
   8   2  -5    8.46    1.80
  -8  -2   5   13.32    1.87
   8   2  -6   15.87    2.27
   8   2  -6   19.07    1.90
  -8  -2   6   23.39    2.29
   8   2  -7   12.99    2.22
  -8  -2   7   16.38    2.07
   8   2  -8    2.32    1.65
  -8  -2   8    1.95    1.61
   8   2  -9    3.72    1.86
  -8  -2   9    2.35    1.76
   8   2 -10   15.21    2.44
  -8  -2  10   16.70    2.40
   8   2 -11    5.82    1.99
  -8  -2  11    2.42    1.81
   8   2 -12   -0.22    1.58
  -8  -2  12   -1.43    1.75
   8   2 -13   -0.16    1.64
   8   2 -14    1.82    2.11
   8   1  14    0.97    2.53
   8   1  13    0.64    2.43
   8   1  12   10.55    2.88
   8   1  11   19.19    3.15
   8   1  10    1.93    2.22
   8   1   9   27.73    3.35
   8   1   8   31.77    2.28
   8   1   8   30.57    3.31
   8   1   7   12.38    1.50
   8   1   7   12.36    2.36
   8   1   6   10.72    2.14
   8   1   6   12.84    1.54
   8   1   5   45.65    2.56
   8   1   5   43.83    3.29
   8   1   4   12.87    1.93
   8   1   4   13.98    1.53
   8   1   3  186.55    8.11
   8   1   3  185.79    8.62
   8   1   2    6.80    1.27
   8   1   2    9.01    1.54
   8   1   1   23.64    1.87
   8   1   1   28.09    2.30
   8   1   0  149.25    6.79
   8   1   0  135.87    6.48
   8   1  -1   12.43    1.58
   8   1  -1   23.71    1.97
   8   1  -2    4.85    1.34
   8   1  -2    4.33    1.30
   8   1  -3  176.52    8.39
   8   1  -3  185.27    8.42
  -8  -1   3  195.14    8.44
   8   1  -4   14.82    1.70
   8   1  -4   12.57    1.80
  -8  -1   4   13.14    1.59
   8   1  -5   42.69    2.67
   8   1  -5   43.96    3.03
  -8  -1   5   43.46    2.71
   8   1  -6   10.70    1.88
   8   1  -6   12.43    1.62
  -8  -1   6   14.12    1.74
   8   1  -7   13.83    2.13
  -8  -1   7   11.22    1.73
   8   1  -8   32.27    3.12
  -8  -1   8   32.13    2.69
   8   1  -9   27.91    2.99
  -8  -1   9   27.98    2.68
   8   1 -10    2.43    1.73
  -8  -1  10    4.86    1.73
   8   1 -11   19.73    2.72
  -8  -1  11   16.07    2.44
   8   1 -12   11.86    2.35
  -8  -1  12    5.95    2.03
   8   1 -13    3.06    1.91
   8   1 -14    1.26    1.68
   8   0  15   -1.57    2.44
   8   0  14   -0.11    2.37
   8   0  13    3.34    2.47
   8   0  12    7.51    2.62
   8   0  11    0.95    2.08
   8   0  10   12.65    2.69
   8   0   9    4.86    2.26
   8   0   8   40.25    2.32
   8   0   8   32.98    3.24
   8   0   7    7.82    1.19
   8   0   7    8.98    2.13
   8   0   6   29.77    1.88
   8   0   6   26.44    2.78
   8   0   5   18.56    2.12
   8   0   5   22.11    1.64
   8   0   4  115.00    5.15
   8   0   4  113.71    5.82
   8   0   3   28.86    2.59
   8   0   3   32.81    2.01
   8   0   2   59.27    3.18
   8   0   2   68.12    3.69
   8   0   1   67.62    3.76
   8   0   1   66.47    3.45
   8   0   0   55.63    3.06
   8   0   0   58.18    3.31
   8   0  -1   66.34    3.60
   8   0  -1   65.16    3.50
   8   0  -2   62.93    3.48
   8   0  -3   33.20    2.46
   8   0  -3   31.43    2.28
  -8   0   3   34.57    2.15
   8   0  -4  108.21    5.38
   8   0  -4  108.09    5.31
  -8   0   4  107.22    5.11
   8   0  -5   18.38    2.13
   8   0  -5   21.98    2.02
  -8   0   5   20.11    1.72
   8   0  -6   31.98    2.35
   8   0  -6   27.66    2.66
  -8   0   6   29.44    2.18
   8   0  -7    9.59    1.83
  -8   0   7    5.85    1.44
   8   0  -8   40.02    3.37
  -8   0   8   36.82    2.81
   8   0  -9    6.35    2.12
  -8   0   9    7.97    1.72
   8   0 -10   13.56    2.39
  -8   0  10   18.61    2.37
   8   0 -11    2.07    1.72
  -8   0  11   -0.52    1.53
   8   0 -12    7.68    2.30
  -8   0  12    6.32    2.10
   8   0 -13    4.98    1.96
   8   0 -14   -0.28    1.58
   8   0 -15   -1.53    2.00
   8  -1  15   -0.16    2.56
   8  -1  14    3.85    2.57
   8  -1  13   -1.45    2.11
   8  -1  12    2.00    2.23
   8  -1  11    0.94    2.05
   8  -1  10    6.12    2.36
   8  -1   9   21.85    3.02
   8  -1   8   11.17    2.00
   8  -1   7   39.45    2.06
   8  -1   7   38.43    3.00
   8  -1   6   11.51    2.03
   8  -1   6   12.35    1.12
   8  -1   5   19.56    2.07
   8  -1   5   17.83    1.38
   8  -1   4  163.29    6.97
   8  -1   4  167.03    7.81
   8  -1   3   28.55    2.48
   8  -1   3   26.84    1.71
   8  -1   2    6.56    1.02
   8  -1   2    6.68    1.46
   8  -1   1  103.86    4.76
   8  -1   1  102.12    5.14
   8  -1   0   12.36    1.59
   8  -1   0   10.63    1.29
   8  -1  -1   98.56    5.07
   8  -1  -1  108.04    4.97
   8  -1  -2    8.08    1.46
   8  -1  -2    6.94    1.28
   8  -1  -3   18.20    1.82
   8  -1  -3   22.52    2.05
  -8   1   3   26.15    1.60
   8  -1  -4  175.42    7.79
  -8   1   4  166.34    7.48
   8  -1  -5   18.60    2.08
  -8   1   5   19.25    1.54
   8  -1  -6   14.21    1.96
   8  -1  -6   10.46    1.47
  -8   1   6   14.40    1.46
   8  -1  -7   42.05    3.11
  -8   1   7   42.10    2.66
   8  -1  -8   10.48    2.06
  -8   1   8   14.83    1.85
   8  -1  -9   23.25    2.81
  -8   1   9   18.93    2.14
   8  -1 -10    5.78    1.93
  -8   1  10   11.66    1.91
   8  -1 -11    4.06    1.74
  -8   1  11    2.55    1.56
   8  -1 -12   -1.44    1.76
  -8   1  12   -0.17    1.59
   8  -1 -13    1.91    1.77
   8  -1 -14    2.60    1.88
   8  -1 -15    2.22    2.23
   8  -2  15    0.07    2.54
   8  -2  14    0.40    2.48
   8  -2  13    2.14    2.37
   8  -2  12    0.27    2.08
   8  -2  11    1.84    2.08
   8  -2  10   -1.92    1.93
   8  -2   9   11.49    2.50
   8  -2   8    0.85    1.80
   8  -2   7   34.43    3.13
   8  -2   7   32.69    1.51
   8  -2   6   52.97    3.60
   8  -2   6   54.35    2.41
   8  -2   5    2.90    0.63
   8  -2   5    1.41    1.39
   8  -2   4   37.81    2.72
   8  -2   4   33.07    1.82
   8  -2   3    4.21    0.84
   8  -2   3    3.56    1.39
   8  -2   2   12.18    1.20
   8  -2   2   12.63    1.69
   8  -2   1   31.01    1.88
   8  -2   1   28.71    2.12
   8  -2   0   10.67    1.29
   8  -2   0   11.61    1.57
   8  -2  -1   33.02    2.18
   8  -2  -1   32.74    2.34
   8  -2  -2   12.34    1.53
   8  -2  -2   12.02    1.42
   8  -2  -3    1.02    1.03
   8  -2  -3    3.04    1.10
   8  -2  -4   34.58    2.37
   8  -2  -4   28.15    2.32
  -8   2   4   32.54    1.76
   8  -2  -5    1.69    1.16
   8  -2  -5    1.51    1.04
  -8   2   5    3.92    0.82
   8  -2  -6   50.26    3.21
   8  -2  -6   50.00    3.34
  -8   2   6   57.54    2.89
   8  -2  -7   36.94    3.02
  -8   2   7   34.47    2.31
   8  -2  -8   -1.08    1.43
  -8   2   8   -0.19    1.12
   8  -2  -9   10.41    2.06
  -8   2   9   11.63    1.71
   8  -2 -10    1.52    1.63
  -8   2  10    0.14    1.38
   8  -2 -11    1.66    1.60
  -8   2  11   -0.65    1.38
   8  -2 -12    3.53    1.96
  -8   2  12    1.46    1.59
   8  -2 -13    5.74    2.25
   8  -2 -14    2.00    2.12
   8  -2 -15    0.18    2.25
   8  -3  15    4.38    2.81
   8  -3  14   -0.58    2.74
   8  -3  13   13.58    3.00
   8  -3  12    4.48    2.28
   8  -3  11    6.52    2.35
   8  -3  10   -1.47    1.86
   8  -3   9   21.77    2.89
   8  -3   8   43.60    3.56
   8  -3   7   86.57    4.98
   8  -3   6    0.93    1.46
   8  -3   5  148.91    7.00
   8  -3   5  143.21    5.88
   8  -3   4   51.94    2.44
   8  -3   4   58.94    3.42
   8  -3   3   67.19    3.88
   8  -3   3   70.75    3.16
   8  -3   2   19.63    1.34
   8  -3   2   15.99    1.90
   8  -3   1  153.30    6.53
   8  -3   1  149.14    7.03
   8  -3   0  247.68   10.37
   8  -3   0  246.05   10.87
   8  -3  -1  156.44    7.34
   8  -3  -1  161.57    7.03
   8  -3  -2   21.56    1.76
   8  -3  -2   23.27    2.06
   8  -3  -3   65.18    3.60
   8  -3  -3   69.67    3.83
   8  -3  -4   55.22    3.15
   8  -3  -4   54.86    3.12
  -8   3   4   49.38    2.40
   8  -3  -5  156.01    7.14
   8  -3  -5  147.56    7.00
  -8   3   5  149.36    6.60
   8  -3  -6   -0.82    1.09
   8  -3  -6    0.44    1.08
  -8   3   6    0.97    0.76
   8  -3  -7   89.57    4.87
   8  -3  -8   44.25    3.28
   8  -3  -9   21.13    2.60
   8  -3 -10    2.81    1.70
   8  -3 -11   13.92    2.55
   8  -3 -12    1.89    1.66
   8  -3 -13   16.63    2.84
   8  -3 -14    1.94    1.84
   8  -3 -15   -0.14    1.86
   8  -4  15   -7.12    2.60
   8  -4  14   13.55    3.04
   8  -4  13    0.96    2.20
   8  -4  12    7.17    2.48
   8  -4  11    1.29    1.99
   8  -4  10   -0.61    1.90
   8  -4   9    3.99    2.07
   8  -4   8   72.30    4.54
   8  -4   7   25.98    2.69
   8  -4   6   64.99    3.99
   8  -4   5   26.44    2.18
   8  -4   4   67.46    3.75
   8  -4   3    5.41    1.22
   8  -4   3    3.38    0.65
   8  -4   2   10.34    1.59
   8  -4   2   11.69    1.04
   8  -4   1   -0.10    0.65
   8  -4   1    0.98    0.85
   8  -4   0  623.94   26.45
   8  -4   0  640.14   25.59
   8  -4  -1    0.28    0.31
   8  -4  -1   -0.45    0.92
   8  -4  -1    0.39    0.79
   8  -4  -2   12.02    1.60
   8  -4  -2   13.62    1.45
   8  -4  -3    3.48    1.08
   8  -4  -3    4.75    1.25
   8  -4  -4   65.60    3.68
   8  -4  -4   69.32    3.82
  -8   4   4   68.68    3.02
   8  -4  -5   29.55    2.30
   8  -4  -5   26.40    2.38
   8  -4  -6   70.12    4.01
   8  -4  -6   73.53    4.13
   8  -4  -7   25.77    2.57
   8  -4  -8   64.80    4.03
   8  -4  -9    1.69    1.64
   8  -4 -10    3.60    2.01
   8  -4 -11    0.37    1.57
   8  -4 -12    8.44    2.38
   8  -4 -13    4.17    2.28
   8  -4 -14    8.22    2.32
  -8   4  14    9.19    2.49
  -8   4  15   -0.87    1.87
   8  -5  15    0.38    2.44
   8  -5  14    0.15    2.77
   8  -5  13   17.01    3.08
   8  -5  12    6.40    2.35
   8  -5  11    8.60    2.39
   8  -5  10    0.80    1.88
   8  -5   9   19.85    2.70
   8  -5   8   43.85    3.50
   8  -5   7   90.64    5.06
   8  -5   6    2.68    1.50
   8  -5   5  149.67    7.19
   8  -5   4   60.59    3.38
  -8   5  -4   51.03    2.34
   8  -5   3   64.48    3.66
  -8   5  -3   69.53    3.05
   8  -5   2   18.87    1.33
   8  -5   2   20.37    1.98
   8  -5   1  170.00    7.60
   8  -5   1  160.57    7.04
   8  -5   0  243.85   10.62
   8  -5   0  264.43   10.81
   8  -5   0  251.00   11.15
   8  -5  -1  150.30    6.48
   8  -5  -1  150.65    6.68
   8  -5  -1  152.47    7.02
   8  -5  -2   17.34    1.84
   8  -5  -2   20.45    1.74
   8  -5  -3   71.66    3.86
   8  -5  -3   65.45    3.57
   8  -5  -4   48.71    3.11
   8  -5  -4   53.44    3.07
   8  -5  -5  145.16    6.96
   8  -5  -5  154.46    7.17
   8  -5  -6    0.88    1.21
   8  -5  -7   90.61    4.90
   8  -5  -8   43.68    3.27
   8  -5  -9   21.16    2.60
   8  -5 -10    0.13    1.66
   8  -5 -11    8.14    2.39
   8  -5 -12    3.84    1.85
  -8   5  13   17.50    3.14
  -8   5  14    3.86    2.59
  -8   5  15    0.59    2.41
   8  -6  15   -0.16    2.35
   8  -6  14   -0.10    2.19
   8  -6  13    3.62    2.31
   8  -6  12    0.77    1.96
   8  -6  11    1.65    2.32
   8  -6  10   -1.69    1.80
   8  -6   9    9.95    2.26
   8  -6   8    1.88    1.71
   8  -6   7   35.57    3.06
   8  -6   6   54.74    3.52
   8  -6   5    2.93    1.39
   8  -6   4   33.15    2.54
  -8   6  -4   31.68    1.66
   8  -6   3    4.91    1.38
  -8   6  -3    3.45    0.72
   8  -6   2   11.54    1.64
   8  -6   2   10.62    1.29
  -8   6  -2   12.13    1.15
   8  -6   1   39.54    2.49
   8  -6   1   31.20    1.96
  -8   6  -1   30.69    1.91
   8  -6   0   14.56    1.43
   8  -6   0   13.50    1.14
   8  -6   0   12.79    1.61
   8  -6  -1   29.23    1.96
   8  -6  -1   29.32    1.76
   8  -6  -1   28.24    2.21
   8  -6  -2   13.86    1.69
   8  -6  -2   11.64    1.41
   8  -6  -3    2.58    1.11
   8  -6  -3    2.35    1.18
   8  -6  -4   32.79    2.32
   8  -6  -4   31.04    2.36
   8  -6  -5    1.39    1.24
   8  -6  -5    3.76    1.30
   8  -6  -6   52.82    3.35
   8  -6  -7   34.06    2.95
   8  -6  -8   -0.27    1.47
   8  -6  -9   11.01    2.15
   8  -6 -10   -1.30    1.51
  -8   6  10    0.47    1.87
  -8   6  11    4.11    2.03
  -8   6  12    0.36    2.16
  -8   6  13    5.11    2.22
  -8   6  14    4.73    2.69
  -8   6  15    2.05    2.23
   8  -7  15   -2.09    2.64
   8  -7  14    2.53    2.71
   8  -7  13    4.09    2.62
   8  -7  12    3.12    2.40
   8  -7  11   -1.75    1.77
   8  -7  10    9.49    2.26
   8  -7   9   20.83    2.89
   8  -7   8    9.89    2.06
   8  -7   7   44.95    3.30
   8  -7   6   12.71    1.97
   8  -7   5   23.55    2.29
  -8   7  -5   21.88    1.24
   8  -7   4  166.71    7.80
   8  -7   4  166.87    7.87
  -8   7  -4  167.73    7.05
   8  -7   3   24.19    2.23
   8  -7   3   25.60    2.11
  -8   7  -3   29.26    1.75
   8  -7   2    8.02    1.47
   8  -7   2    5.33    1.00
  -8   7  -2    6.35    1.01
   8  -7   1   89.02    4.91
   8  -7   1  102.68    4.70
  -8   7  -1  103.62    4.59
   8  -7   0   12.51    1.60
   8  -7   0   12.42    1.26
  -8   7   0   11.15    1.33
   8  -7  -1  101.29    4.85
   8  -7  -1  104.86    5.12
  -8   7   1  100.76    4.83
   8  -7  -2    4.96    1.18
  -8   7   2    8.35    1.34
   8  -7  -3   28.09    2.24
  -8   7   3   22.82    2.17
   8  -7  -4  170.78    8.06
  -8   7   4  173.76    7.91
   8  -7  -5   24.03    2.38
  -8   7   5   20.39    2.19
  -8   7   6   13.00    2.03
  -8   7   7   41.47    3.24
  -8   7   8   13.04    2.33
  -8   7   9   22.17    2.84
  -8   7  10   12.55    2.51
  -8   7  11    1.90    1.93
  -8   7  12    1.13    1.96
  -8   7  13    3.80    2.19
  -8   7  14    3.05    2.25
  -8   7  15    0.59    2.64
   8  -8  15    3.81    2.42
   8  -8  15   -2.08    2.57
   8  -8  14   -2.85    2.42
   8  -8  13    3.02    2.18
   8  -8  12    3.34    2.03
   8  -8  11    3.24    1.89
   8  -8  10   19.03    2.70
   8  -8   9    8.56    2.39
   8  -8   8   36.79    3.19
   8  -8   7    6.29    1.79
   8  -8   7    6.77    1.76
   8  -8   6   22.86    2.46
   8  -8   6   25.69    2.59
  -8   8  -6   29.20    1.50
   8  -8   5   17.16    2.03
   8  -8   5   19.55    2.13
  -8   8  -5   18.33    1.34
   8  -8   4  109.17    5.43
   8  -8   4  109.05    5.48
  -8   8  -4  107.63    4.89
   8  -8   3   33.05    2.35
   8  -8   3   34.32    2.54
  -8   8  -3   34.57    2.10
   8  -8   2   58.35    3.50
  -8   8  -2   64.87    3.20
   8  -8   1   62.54    3.66
   8  -8   1   68.14    3.58
  -8   8  -1   71.43    3.47
   8  -8   0   55.98    3.00
   8  -8   0   58.11    3.27
  -8   8   0   49.35    2.88
   8  -8  -1   73.45    3.87
   8  -8  -1   65.36    3.66
  -8   8   1   67.69    3.59
   8  -8  -2   68.03    3.88
  -8   8   2   70.03    3.73
   8  -8  -3   34.54    2.54
  -8   8   3   32.71    2.46
   8  -8  -4  112.46    5.60
  -8   8   4  106.25    5.47
   8  -8  -5   20.81    2.26
  -8   8   5   17.14    2.13
  -8   8   6   29.94    2.82
  -8   8   7    8.15    1.98
  -8   8   8   38.92    3.58
  -8   8   9    6.35    2.15
  -8   8  10   21.54    2.93
  -8   8  11    0.84    1.86
  -8   8  12    2.43    2.44
  -8   8  14    0.77    2.21
  -8   8  15    2.78    2.46
   8  -9  14   -1.01    2.43
   8  -9  14    0.01    1.99
   8  -9  13    0.26    2.07
   8  -9  13    2.33    2.03
   8  -9  12    7.72    2.41
   8  -9  12   12.30    2.66
   8  -9  11   21.60    2.78
   8  -9  11   13.27    2.60
   8  -9  10    2.65    1.76
   8  -9  10    1.85    1.97
   8  -9   9   24.32    3.01
   8  -9   9   25.19    2.78
   8  -9   8   30.71    2.86
   8  -9   8   29.98    3.15
   8  -9   7   14.08    2.25
   8  -9   7   11.43    1.98
  -8   9  -7   12.80    1.10
   8  -9   6   13.70    2.27
   8  -9   6    9.69    1.84
  -8   9  -6   15.13    1.29
   8  -9   5   45.66    2.99
   8  -9   5   43.69    3.10
  -8   9  -5   41.58    2.46
   8  -9   4   11.01    1.71
   8  -9   4   11.92    1.78
  -8   9  -4   11.18    1.39
   8  -9   3  184.31    8.41
   8  -9   3  176.29    8.50
  -8   9  -3  189.24    8.03
   8  -9   2    6.36    1.54
   8  -9   2    7.80    1.48
  -8   9  -2    5.22    1.20
   8  -9   1   21.15    2.02
   8  -9   0  144.22    6.73
   8  -9   0  143.90    6.78
  -8   9   0  138.63    6.53
   8  -9  -1   25.92    2.29
   8  -9  -1   24.55    2.22
  -8   9   1   23.34    2.05
   8  -9  -2    6.26    1.43
  -8   9   2    6.44    1.35
   8  -9  -3  181.88    8.42
  -8   9   3  178.39    8.21
   8  -9  -4   14.69    1.99
  -8   9   4   14.71    1.97
  -8   9   5   46.05    3.24
  -8   9   6   11.65    2.07
  -8   9   7   11.00    2.14
  -8   9   8   31.50    3.28
  -8   9   9   31.04    3.57
  -8   9  10    4.24    2.06
  -8   9  11   20.56    3.02
  -8   9  12    9.19    2.48
  -8   9  13    1.43    2.16
  -8   9  14   -0.96    2.17
   8 -10  14   -1.71    1.94
   8 -10  13   -0.50    2.00
   8 -10  13   -1.91    1.76
   8 -10  12   -2.21    2.01
   8 -10  12   -1.64    1.87
   8 -10  11    9.17    2.33
   8 -10  11    4.07    2.19
   8 -10  10   15.82    2.52
   8 -10  10   14.30    2.60
   8 -10   9    1.91    1.95
   8 -10   9    4.69    2.08
   8 -10   8   -1.05    1.52
   8 -10   8    4.18    1.99
   8 -10   7   13.23    2.28
   8 -10   7   12.97    2.31
  -8  10  -7   16.12    1.50
   8 -10   6   18.25    2.14
   8 -10   6   14.15    2.32
  -8  10  -6   23.87    1.77
   8 -10   5   10.20    2.16
   8 -10   5    9.64    1.71
  -8  10  -5    9.87    1.42
   8 -10   4   57.63    3.55
   8 -10   4   54.12    3.52
  -8  10  -4   54.33    3.19
   8 -10   3   40.15    2.81
   8 -10   3   41.25    2.74
  -8  10  -3   38.77    2.62
   8 -10   2   25.04    2.32
   8 -10   2   28.12    2.52
  -8  10  -2   26.22    2.23
   8 -10   1   11.70    1.61
   8 -10   1    9.29    1.48
  -8  10  -1    9.28    1.44
   8 -10   0   29.89    2.56
   8 -10   0   39.38    2.63
  -8  10   0   39.20    2.51
   8 -10  -1   13.62    1.74
   8 -10  -1   11.98    1.86
  -8  10   1   10.63    1.63
   8 -10  -2   25.59    2.58
   8 -10  -2   26.88    2.38
  -8  10   2   24.60    2.27
   8 -10  -3   32.48    2.60
  -8  10   3   33.28    2.58
   8 -10  -4   57.35    3.61
  -8  10   4   52.37    3.45
  -8  10   5   11.04    1.97
  -8  10   6   14.72    2.28
  -8  10   7   10.39    2.24
  -8  10   8    2.49    1.88
  -8  10   9    2.19    2.04
  -8  10  10   11.97    2.52
  -8  10  11    5.46    2.24
  -8  10  12   -1.55    1.89
  -8  10  13   -1.72    2.02
  -8  10  14   -0.16    2.51
   8 -11  14   -0.19    2.17
   8 -11  13   -1.61    2.02
   8 -11  12   -2.74    1.89
   8 -11  12   -1.27    1.94
   8 -11  11    2.27    2.11
   8 -11  11    2.56    2.05
   8 -11  10   12.93    2.43
   8 -11  10   14.69    2.68
   8 -11   9    5.56    2.21
   8 -11   9    9.89    2.24
   8 -11   8    3.92    1.97
   8 -11   8    2.62    2.06
   8 -11   7   10.35    2.13
   8 -11   7    9.72    2.25
  -8  11  -7   10.66    1.45
   8 -11   6    6.27    1.94
   8 -11   6   10.13    2.01
  -8  11  -6    6.03    1.40
   8 -11   5    2.72    1.69
   8 -11   5    7.86    1.81
  -8  11  -5    6.76    1.47
   8 -11   4    3.70    1.57
   8 -11   4    8.08    1.72
  -8  11  -4    7.26    1.63
   8 -11   3   34.17    2.67
   8 -11   3   37.15    2.87
  -8  11  -3   34.05    2.64
   8 -11   2    6.00    1.56
   8 -11   2    4.63    1.48
  -8  11  -2    5.14    1.33
   8 -11   1   10.16    1.61
   8 -11   1   13.52    1.90
  -8  11  -1   13.59    1.95
   8 -11   0   20.37    2.23
   8 -11   0   16.38    2.06
  -8  11   0   24.17    2.37
   8 -11  -1    5.36    1.48
   8 -11  -1    9.62    1.62
  -8  11   1   10.36    1.68
   8 -11  -2    5.63    1.46
   8 -11  -2    5.39    1.59
  -8  11   2    5.87    1.54
   8 -11  -3   34.84    2.78
  -8  11   3   37.78    2.90
   8 -11  -4    8.91    1.83
  -8  11   4    4.67    1.66
  -8  11   5    6.84    1.87
  -8  11   6    5.32    1.86
  -8  11   7   13.91    2.38
  -8  11   8    3.62    1.99
  -8  11   9    7.03    2.24
  -8  11  10    9.47    2.40
  -8  11  11    5.03    2.20
  -8  11  12   -0.96    1.99
  -8  11  13    0.46    2.17
  -8  11  14    3.51    2.41
   8 -12  14   -3.23    2.17
   8 -12  13    5.49    2.57
   8 -12  12   -1.02    1.99
   8 -12  11    2.57    2.19
   8 -12  10    8.71    2.82
   8 -12  10   13.58    2.53
   8 -12   9   10.86    2.54
   8 -12   9   14.65    2.31
   8 -12   8    5.91    1.88
   8 -12   8    3.68    2.10
   8 -12   7   26.18    3.15
   8 -12   7   30.92    2.91
  -8  12  -7   28.02    2.39
   8 -12   6    8.37    1.92
   8 -12   6    5.92    2.07
  -8  12  -6    6.36    1.56
   8 -12   5    7.56    2.03
   8 -12   5    7.50    1.60
  -8  12  -5    6.47    1.71
   8 -12   4   27.91    2.48
   8 -12   4   27.05    2.85
  -8  12  -4   22.12    2.39
   8 -12   3   17.32    2.58
   8 -12   3   26.42    2.41
  -8  12  -3   22.37    2.41
   8 -12   2   28.81    2.26
   8 -12   2   31.82    2.77
  -8  12  -2   17.73    2.07
   8 -12   1   52.94    3.61
   8 -12   1   48.48    3.16
  -8  12  -1   50.48    3.29
   8 -12   0   -0.03    1.43
   8 -12   0   -0.17    1.11
  -8  12   0    2.57    1.44
   8 -12  -1   51.07    3.23
   8 -12  -1   50.25    3.59
  -8  12   1   47.51    3.37
   8 -12  -2   32.32    2.76
  -8  12   2   30.24    2.80
   8 -12  -3   22.19    2.45
  -8  12   3   22.35    2.56
  -8  12   4   24.04    2.67
  -8  12   5    6.71    1.98
  -8  12   6    7.54    2.15
  -8  12   7   21.99    2.92
  -8  12   8    5.55    2.25
  -8  12   9   16.23    2.79
  -8  12  10   12.41    2.67
  -8  12  11    7.07    2.45
  -8  12  12    0.44    2.18
  -8  12  13    5.34    2.98
  -8  12  14   -2.38    2.28
   8 -13  13    0.61    2.25
   8 -13  12    0.13    2.16
   8 -13  11    7.21    2.57
   8 -13  10   11.61    2.67
   8 -13   9    2.78    2.06
   8 -13   9    1.50    1.70
   8 -13   8    1.30    1.63
   8 -13   8    1.25    2.00
   8 -13   7   10.78    2.57
   8 -13   7   20.63    2.39
  -8  13  -7   18.26    2.18
   8 -13   6    3.22    2.12
   8 -13   6    2.34    1.63
  -8  13  -6    2.32    1.50
   8 -13   5   20.43    2.26
   8 -13   5   18.26    2.70
  -8  13  -5   16.56    2.21
   8 -13   4   41.18    3.05
   8 -13   4   42.46    3.53
  -8  13  -4   41.10    3.43
   8 -13   3   26.22    2.40
   8 -13   3   27.31    2.85
  -8  13  -3   13.83    2.09
   8 -13   2   17.19    2.54
   8 -13   2   16.10    1.96
  -8  13  -2   21.35    2.38
   8 -13   1   21.85    2.24
   8 -13   1   24.09    2.85
  -8  13  -1   24.67    2.70
   8 -13   0    8.42    2.16
   8 -13   0    8.88    1.60
  -8  13   0    9.74    1.92
   8 -13  -1   26.56    3.10
   8 -13  -1   23.82    2.49
  -8  13   1   21.64    2.55
   8 -13  -2   16.35    2.10
  -8  13   2   16.99    2.36
  -8  13   3   25.05    2.84
  -8  13   4   42.78    3.63
  -8  13   5   18.81    2.67
  -8  13   6    3.42    2.04
  -8  13   7   13.41    2.54
  -8  13   8    1.07    1.98
  -8  13   9   -0.54    1.91
  -8  13  10   11.39    2.69
  -8  13  11    4.80    2.37
  -8  13  12   -0.01    2.26
  -8  13  13    3.48    2.48
   8 -14  13   -1.16    2.23
   8 -14  12    2.21    2.35
   8 -14  11    5.42    2.45
   8 -14  10   -0.05    2.15
   8 -14   9    4.48    2.56
   8 -14   8    2.71    2.16
   8 -14   7    2.67    2.14
   8 -14   7    3.94    1.79
  -8  14  -7    6.29    1.74
   8 -14   6    3.40    1.55
   8 -14   6    3.62    2.17
  -8  14  -6    1.96    1.58
   8 -14   5   26.69    3.16
   8 -14   5   26.54    2.53
  -8  14  -5   21.78    2.60
   8 -14   4   -0.64    1.37
   8 -14   4    1.66    2.33
  -8  14  -4    0.18    1.74
   8 -14   3   79.10    4.89
   8 -14   3   80.08    4.25
  -8  14  -3   58.58    4.28
   8 -14   2    0.27    1.95
   8 -14   2    0.24    1.21
  -8  14  -2    1.28    1.94
   8 -14   1   18.42    2.21
   8 -14   1   13.23    2.68
  -8  14  -1   14.65    2.38
   8 -14   0   58.81    4.30
   8 -14   0   51.67    3.44
  -8  14   0   53.04    3.81
   8 -14  -1   15.10    2.86
   8 -14  -1   14.57    2.23
  -8  14   1   18.50    2.48
   8 -14  -2    1.15    1.73
  -8  14   2   -0.24    1.81
  -8  14   3   81.15    4.99
  -8  14   4    3.06    2.00
  -8  14   5   25.28    3.06
  -8  14   6    3.89    2.13
  -8  14   7    4.07    2.17
  -8  14   8    5.67    2.27
  -8  14   9    3.05    2.13
  -8  14  10   -3.27    1.90
  -8  14  11   11.58    2.79
  -8  14  12    1.86    2.83
  -8  14  13   -1.36    2.34
   8 -15  12   -1.30    2.22
   8 -15  11    0.92    2.17
   8 -15  10    1.78    2.71
   8 -15   9   -3.20    1.89
   8 -15   8    2.52    2.15
   8 -15   7    0.92    2.07
  -8  15  -7    1.06    1.39
   8 -15   6    2.48    2.18
   8 -15   6    3.58    1.64
  -8  15  -6    0.67    1.64
   8 -15   5    0.04    2.04
   8 -15   5    2.50    1.58
  -8  15  -5    1.23    1.79
   8 -15   4   16.65    2.17
   8 -15   4   14.39    2.70
   8 -15   3   17.53    2.18
   8 -15   3   12.29    2.73
  -8  15  -3   19.35    2.84
   8 -15   2    4.23    2.30
   8 -15   2    2.47    1.53
  -8  15  -2    3.46    1.92
   8 -15   1   21.95    2.45
   8 -15   1   19.36    3.05
  -8  15  -1   14.17    2.52
   8 -15   0   -0.60    2.04
   8 -15   0    1.17    1.58
  -8  15   0    2.15    1.98
   8 -15  -1   16.09    2.24
   8 -15  -1   19.94    3.47
  -8  15   1   15.71    2.59
  -8  15   2    5.02    2.05
  -8  15   3   14.24    2.86
  -8  15   4   14.39    2.61
  -8  15   5    1.98    2.01
  -8  15   6    1.03    2.10
  -8  15   7    0.17    2.01
  -8  15   8    3.23    2.16
  -8  15   9   -0.57    2.04
  -8  15  10    7.37    2.94
  -8  15  11   -1.37    2.14
  -8  15  12    2.58    2.50
   8 -16  12    0.92    2.45
   8 -16  11   -0.09    2.31
   8 -16  10   -0.19    2.24
   8 -16   9    1.34    2.31
   8 -16   8   -1.75    2.12
   8 -16   7    2.16    2.22
  -8  16  -7    0.76    1.57
   8 -16   6    8.03    2.49
  -8  16  -6   10.26    2.20
   8 -16   5    8.32    2.82
  -8  16  -5    7.61    2.19
   8 -16   4    9.11    1.79
   8 -16   4   11.35    3.02
  -8  16  -4    6.09    2.28
   8 -16   3    8.73    1.90
   8 -16   3    2.40    2.79
  -8  16  -3    2.87    2.31
   8 -16   2    2.20    2.84
   8 -16   2    1.94    1.49
  -8  16  -2    8.05    2.56
   8 -16   1    5.40    1.73
   8 -16   1    6.07    2.48
  -8  16  -1    5.71    2.18
   8 -16   0   19.67    2.53
   8 -16   0   18.01    3.21
  -8  16   0   20.38    2.92
   8 -16  -1    4.03    2.95
  -8  16   1    7.72    2.38
  -8  16   2    2.66    2.39
  -8  16   3    4.79    2.29
  -8  16   4    4.91    2.22
  -8  16   5    7.21    2.31
  -8  16   6    8.77    2.47
  -8  16   7    1.00    2.12
  -8  16   8   -1.59    1.99
  -8  16   9    4.97    2.45
  -8  16  10    0.87    2.34
  -8  16  11    0.93    2.73
  -8  16  12    0.06    2.40
   8 -17  11   -0.40    2.36
   8 -17  10    2.56    2.49
   8 -17   9    0.03    2.28
   8 -17   8   -1.04    2.20
   8 -17   7    9.40    3.07
  -8  17  -7    8.46    2.24
   8 -17   6    3.93    2.40
  -8  17  -6    1.62    1.93
   8 -17   5    2.81    2.34
  -8  17  -5    0.68    0.45
   8 -17   4    0.20    2.34
  -8  17  -4   -1.63    1.91
   8 -17   3    0.54    1.31
   8 -17   3    1.03    2.33
  -8  17  -3   -2.06    2.02
   8 -17   2    5.31    2.83
   8 -17   2    1.74    1.48
  -8  17  -2   -1.07    1.85
   8 -17   1    7.48    2.70
   8 -17   1   10.83    2.02
  -8  17  -1   11.47    2.59
   8 -17   0    2.88    2.85
  -8  17   0   -1.37    1.95
   8 -17  -1   11.64    2.94
  -8  17   1    7.87    2.74
  -8  17   2    1.07    2.08
  -8  17   3   -2.90    2.17
  -8  17   4    1.14    2.02
  -8  17   5    7.41    2.74
  -8  17   6   -0.15    2.41
  -8  17   7    9.26    2.60
  -8  17   8    1.28    2.26
  -8  17   9    1.71    2.31
  -8  17  10    1.85    2.42
  -8  17  11   -0.55    2.85
   8 -18  10   -0.84    2.44
   8 -18   9    4.35    2.63
   8 -18   8    1.50    2.47
   8 -18   7    8.80    3.19
  -8  18  -7   12.73    2.63
   8 -18   6   -0.01    2.35
  -8  18  -6    0.79    1.79
   8 -18   5    8.81    2.88
  -8  18  -5    8.85    2.43
   8 -18   4   -1.71    2.28
  -8  18  -4   -0.11    2.05
   8 -18   3   -0.71    2.28
  -8  18  -3   -1.24    1.84
   8 -18   2    1.25    2.37
  -8  18  -2    5.94    2.56
   8 -18   1   13.57    3.07
  -8  18  -1   19.33    3.26
   8 -18   0   10.74    2.96
  -8  18   0    9.69    2.50
   8 -18  -1   14.01    3.26
  -8  18   1   15.18    2.83
  -8  18   2    0.84    2.00
  -8  18   3    1.80    2.21
  -8  18   4    0.77    2.08
  -8  18   5    5.01    2.35
  -8  18   6    0.63    2.17
  -8  18   7    9.77    2.74
  -8  18   8   -2.31    2.11
  -8  18   9   -1.13    2.23
  -8  18  10    0.24    2.35
   8 -19   9    0.84    2.65
   8 -19   8    3.04    2.70
   8 -19   7   -0.28    2.48
  -8  19  -7    2.73    2.09
   8 -19   6    2.05    2.77
  -8  19  -6    2.10    0.92
   8 -19   5   -1.14    2.45
  -8  19  -5    1.51    1.87
   8 -19   4   -2.27    2.33
  -8  19  -4   -1.31    2.18
   8 -19   3    1.48    2.49
  -8  19  -3   -2.39    2.36
   8 -19   2   -0.26    2.69
  -8  19  -2    0.86    2.46
   8 -19   1    1.47    2.57
  -8  19  -1   -2.75    1.89
   8 -19   0   25.66    3.99
  -8  19   0   13.43    2.86
  -8  19   1    1.13    2.19
  -8  19   2   -1.26    2.07
  -8  19   3    3.60    2.28
  -8  19   4   -0.12    2.18
  -8  19   5    0.37    2.30
  -8  19   6    4.39    2.46
  -8  19   7   -0.71    2.22
  -8  19   8    1.46    2.34
  -8  19   9    1.22    2.90
   8 -20   8    1.02    3.29
   8 -20   7    3.31    2.84
   8 -20   6   -1.93    2.58
  -8  20  -6   -0.01    2.20
   8 -20   5   -1.08    2.58
  -8  20  -5   -1.18    1.89
   8 -20   4    5.18    2.90
  -8  20  -4   -1.65    2.23
   8 -20   3    2.69    2.98
  -8  20  -3    1.23    2.03
   8 -20   2    1.22    2.55
  -8  20  -2    0.61    2.09
   8 -20   1    2.36    3.06
  -8  20  -1    4.25    2.41
   8 -20   0    7.16    2.84
  -8  20   0    0.12    2.14
  -8  20   1    5.03    2.49
  -8  20   2    1.34    2.32
  -8  20   3    1.52    2.41
  -8  20   4   -0.10    2.33
  -8  20   5    0.89    2.38
  -8  20   6    0.08    2.37
  -8  20   7    3.71    2.93
  -8  20   8    1.30    2.93
   8 -21   6   -0.16    2.76
  -8  21  -6    0.09    2.29
   8 -21   5    0.70    2.70
  -8  21  -5   -2.79    2.23
   8 -21   4    0.82    2.63
  -8  21  -4    2.17    2.15
   8 -21   3    6.61    2.94
  -8  21  -3    4.67    2.61
   8 -21   2   -2.99    2.34
  -8  21  -2    0.37    2.18
   8 -21   1   -3.01    2.38
  -8  21  -1   -0.69    2.24
   8 -21   0    1.80    2.73
  -8  21   0    0.89    2.27
  -8  21   1    2.43    2.53
  -8  21   2   -0.81    2.33
  -8  21   3    4.29    2.61
  -8  21   4    1.71    2.42
  -8  21   5    1.91    2.54
  -8  21   6    2.40    2.67
   8 -22   5    1.29    2.97
  -8  22  -5    0.99    2.21
   8 -22   4    5.15    3.12
  -8  22  -4    3.14    2.35
   8 -22   3    1.82    2.78
  -8  22  -3   -0.04    2.53
   8 -22   2   -0.88    2.61
  -8  22  -2    0.31    2.61
   8 -22   1   -1.22    2.46
  -8  22  -1    0.13    2.32
  -8  22   0    1.01    2.88
  -8  22   1    3.36    2.54
  -8  22   2   -1.91    2.30
  -8  22   3    4.42    2.59
  -8  22   4    1.06    2.52
  -8  22   5   -1.71    2.35
   8 -23   1   -1.34    2.63
  -8  23  -1    2.31    2.45
  -8  23   0   -2.03    2.69
  -8  23   1    4.42    3.11
   9  14   2    3.30    2.38
   9  14   1    0.51    2.21
   9  14   0    5.75    2.48
   9  14  -1   -0.69    2.08
   9  14  -2    3.53    2.45
   9  13   5    4.02    2.86
   9  13   4    5.86    2.75
   9  13   3    0.48    2.15
   9  13   2   -3.78    1.82
   9  13   1    1.09    2.15
   9  13   0    3.54    2.24
   9  13  -1    2.83    2.14
   9  13  -2    3.45    2.71
   9  13  -3    0.95    2.21
   9  13  -4    4.49    2.45
   9  13  -5    2.67    2.63
   9  12   7    1.80    2.18
   9  12   7    1.06    2.67
   9  12   6    0.05    2.26
   9  12   6   -1.52    2.38
   9  12   5    0.88    2.10
   9  12   4    4.57    2.63
   9  12   3   -1.17    1.94
   9  12   2    0.48    2.02
   9  12   1   -1.66    1.81
   9  12   0    1.25    2.05
   9  12  -1   -1.54    1.89
   9  12  -2   -2.03    1.83
   9  12  -3   -1.68    1.88
   9  12  -4   -1.73    1.86
   9  12  -5    3.94    2.30
   9  12  -6   -2.24    1.93
  -9 -12   6    1.15    2.92
   9  12  -7    2.82    2.26
  -9 -12   7   -1.31    2.40
   9  11   8    3.64    2.56
   9  11   8   -1.47    2.67
   9  11   7   -0.50    2.30
   9  11   7    2.60    2.27
   9  11   6    4.77    2.29
   9  11   6    7.35    2.68
   9  11   5    2.29    2.05
   9  11   5   -0.60    1.24
   9  11   4    1.78    2.50
   9  11   4    1.77    2.11
   9  11   3   -0.14    1.84
   9  11   2    4.12    2.20
   9  11   1    6.78    2.64
   9  11   0   -1.60    1.78
   9  11  -1    1.80    1.99
   9  11  -2    1.16    2.06
   9  11  -3    2.25    2.13
   9  11  -4    0.31    1.91
   9  11  -5   -0.46    1.95
   9  11  -6    4.82    2.35
  -9 -11   6    4.47    2.56
   9  11  -7    2.67    2.16
  -9 -11   7    7.22    3.16
   9  11  -8    2.89    2.64
  -9 -11   8    2.33    2.56
   9  10   9   -1.32    2.23
   9  10   8    1.91    2.34
   9  10   8    2.02    2.36
   9  10   7    9.05    2.84
   9  10   7   12.94    3.22
   9  10   6    6.53    2.55
   9  10   6    8.00    2.70
   9  10   5    4.03    1.99
   9  10   5    6.55    2.55
   9  10   4   -1.89    1.83
   9  10   4    1.37    1.92
   9  10   3   -0.27    1.78
   9  10   3    3.00    1.78
   9  10   2    1.81    1.93
   9  10   1    7.79    2.21
   9  10   0    1.64    2.32
   9  10  -1   10.13    2.70
   9  10  -2    1.11    1.97
   9  10  -3    1.37    1.95
   9  10  -4    1.55    1.98
   9  10  -5    2.25    2.10
  -9 -10   5    4.46    2.80
   9  10  -6    4.72    2.11
  -9 -10   6    9.27    3.05
   9  10  -7   11.97    2.71
  -9 -10   7   13.56    3.46
   9  10  -8   -0.54    1.90
  -9 -10   8    1.36    2.31
   9  10  -9    1.25    2.45
  -9 -10   9   -2.39    2.66
   9   9  10   -3.68    2.18
   9   9   9    0.33    2.23
   9   9   8    8.59    2.70
   9   9   8    8.74    2.55
   9   9   7    2.20    2.28
   9   9   7   -0.12    2.47
   9   9   6   16.95    2.91
   9   9   6    9.14    2.76
   9   9   5    2.78    1.83
   9   9   5    1.17    1.86
   9   9   4    0.27    0.73
   9   9   4    9.69    2.23
   9   9   3   -1.09    1.65
   9   9   3   -0.66    1.48
   9   9   2    1.61    1.75
   9   9   2    2.20    1.85
   9   9   1    6.60    2.16
   9   9   1    4.78    1.83
   9   9   0   24.80    3.06
   9   9  -1    7.95    2.56
   9   9  -2    0.39    1.87
   9   9  -3   -1.63    1.71
   9   9  -4    8.34    2.29
   9   9  -5   -0.72    1.74
  -9  -9   5    0.34    2.40
   9   9  -6    6.94    2.29
  -9  -9   6   10.53    2.64
   9   9  -7   -0.75    1.91
  -9  -9   7    1.96    2.74
   9   9  -8   11.89    3.00
  -9  -9   8   14.10    3.33
   9   9  -9   -0.46    1.88
  -9  -9   9   -0.28    2.59
   9   9 -10   -0.45    1.89
   9   8  11    2.70    2.62
   9   8  10    4.83    2.58
   9   8   9    1.53    2.39
   9   8   8   -2.96    1.96
   9   8   8    3.69    2.16
   9   8   7    9.49    2.53
   9   8   7    8.75    2.15
   9   8   6    1.12    2.00
   9   8   6    7.52    2.32
   9   8   5    2.46    1.88
   9   8   5    6.41    1.98
   9   8   4   -3.16    1.48
   9   8   4   -0.52    1.87
   9   8   3    0.62    1.90
   9   8   3    0.86    1.73
   9   8   2    0.97    1.77
   9   8   2   -1.36    1.67
   9   8   1    8.60    2.01
   9   8   1   10.80    2.34
   9   8   0    1.00    1.59
   9   8   0    2.23    1.83
   9   8  -1   10.45    2.34
   9   8  -2   -2.49    1.66
   9   8  -3    2.23    1.98
   9   8  -4    0.01    1.73
  -9  -8   4    1.96    2.24
   9   8  -5    7.87    2.23
  -9  -8   5    9.09    2.63
   9   8  -6    4.49    1.98
  -9  -8   6    7.35    2.72
   9   8  -7    5.64    2.19
  -9  -8   7    9.85    2.75
   9   8  -8   -1.13    1.78
  -9  -8   8    0.87    2.54
   9   8  -9    1.80    2.36
  -9  -8   9    2.83    2.58
   9   8 -10   -1.00    1.89
  -9  -8  10    3.26    2.82
   9   8 -11    2.90    2.00
   9   7  12   -1.73    2.61
   9   7  11   -2.49    2.29
   9   7  10    0.41    2.35
   9   7   9   -1.19    2.02
   9   7   8    3.17    1.96
   9   7   8   -1.42    2.04
   9   7   7    1.90    2.51
   9   7   7    2.41    1.94
   9   7   6   12.16    2.14
   9   7   6    7.70    2.26
   9   7   5    2.65    1.93
   9   7   5    5.28    1.86
   9   7   4   -0.20    1.94
   9   7   4   -0.61    1.62
   9   7   3   10.02    2.16
   9   7   2    3.47    1.87
   9   7   2    2.73    1.62
   9   7   1    6.80    2.37
   9   7   1    7.29    1.99
   9   7   0   10.21    2.29
   9   7   0   14.17    2.21
   9   7  -1   15.87    2.57
   9   7  -1    7.02    1.87
   9   7  -2    4.07    1.99
   9   7  -3    7.82    2.19
   9   7  -4    1.13    1.84
  -9  -7   4    0.37    1.85
   9   7  -5    4.76    2.00
  -9  -7   5    6.11    2.18
   9   7  -6    7.80    2.20
  -9  -7   6    6.05    2.49
   9   7  -7    4.07    2.01
  -9  -7   7    4.93    2.43
   9   7  -8    2.28    1.93
  -9  -7   8    0.91    2.22
   9   7  -9    2.65    2.37
  -9  -7   9    2.99    2.52
   9   7 -10    4.14    2.15
  -9  -7  10    1.81    2.60
   9   7 -11    0.15    1.90
   9   7 -12   -2.37    2.00
   9   6  12    1.19    2.53
   9   6  11    6.61    2.83
   9   6  10    6.74    2.62
   9   6   9    4.39    2.40
   9   6   8    0.88    2.09
   9   6   8    3.10    1.87
   9   6   7    8.44    2.08
   9   6   7    7.56    2.70
   9   6   6    2.01    1.95
   9   6   6   -0.44    1.73
   9   6   5    7.11    2.14
   9   6   5   12.21    2.38
   9   6   4   16.58    2.78
   9   6   4   15.34    2.50
   9   6   3    8.68    2.21
   9   6   3    9.85    2.36
   9   6   2   28.68    2.96
   9   6   2   26.22    2.85
   9   6   1   16.55    2.34
   9   6   1   16.86    2.45
   9   6   0   26.64    2.67
   9   6   0   26.50    2.92
   9   6  -1   15.36    2.46
   9   6  -1   12.98    2.13
   9   6  -2   19.86    2.88
   9   6  -2   21.86    2.33
   9   6  -3    6.70    2.01
   9   6  -4    8.93    2.21
  -9  -6   4   13.53    2.70
   9   6  -5    9.86    2.19
  -9  -6   5    9.93    2.57
   9   6  -6    0.41    1.75
  -9  -6   6   -0.43    2.06
   9   6  -7    7.80    2.17
  -9  -6   7    5.28    2.02
   9   6  -8    3.14    1.93
  -9  -6   8    1.81    2.22
   9   6  -9    2.93    1.98
  -9  -6   9    1.56    2.32
   9   6 -10    7.35    2.50
  -9  -6  10    7.22    2.73
   9   6 -11    1.89    1.90
   9   6 -12   -0.70    1.71
   9   5  13    3.22    2.80
   9   5  12    0.53    2.49
   9   5  11    1.77    2.42
   9   5  10   14.69    3.10
   9   5   9    0.44    2.12
   9   5   8    8.55    2.12
   9   5   8   11.30    2.53
   9   5   7    7.95    2.40
   9   5   7    7.64    2.02
   9   5   6   21.52    2.96
   9   5   6   18.90    2.49
   9   5   5    2.62    1.95
   9   5   5    3.34    1.59
   9   5   4   37.77    3.38
   9   5   4   37.49    2.98
   9   5   3   24.36    2.71
   9   5   3   27.62    2.87
   9   5   2   53.84    3.65
   9   5   1    8.04    1.91
   9   5   1    9.70    1.80
   9   5   0    8.21    1.95
   9   5   0   11.22    2.03
   9   5  -1   10.75    1.92
   9   5  -1   11.19    2.11
   9   5  -2   58.90    3.80
   9   5  -2   47.80    3.40
   9   5  -3   26.37    2.43
   9   5  -3   31.63    3.27
   9   5  -4   46.90    2.89
   9   5  -4   33.86    3.45
  -9  -5   4   45.53    3.71
   9   5  -5   -0.44    1.97
  -9  -5   5    6.55    2.18
   9   5  -6   21.63    2.78
  -9  -5   6   18.45    2.74
   9   5  -7    7.53    2.18
  -9  -5   7    6.61    2.24
   9   5  -8    5.44    2.02
  -9  -5   8    4.00    2.43
   9   5  -9    2.91    1.87
  -9  -5   9    1.71    2.10
   9   5 -10   17.29    2.82
  -9  -5  10   16.67    3.00
   9   5 -11    0.60    1.80
   9   5 -12    3.39    2.03
   9   5 -13   -0.53    2.18
   9   4  13    1.37    2.53
   9   4  12    2.17    2.57
   9   4  11    4.32    2.59
   9   4  10    1.74    2.26
   9   4   9   16.87    2.98
   9   4   8    2.67    1.66
   9   4   8    0.75    2.09
   9   4   7    1.25    1.63
   9   4   7   -0.66    2.00
   9   4   6   50.39    4.01
   9   4   6   49.36    3.45
   9   4   5   15.87    2.54
   9   4   5   20.96    2.35
   9   4   4    6.05    1.93
   9   4   4    6.38    1.77
   9   4   3   77.52    4.47
   9   4   3   73.99    4.70
   9   4   2   36.15    2.91
   9   4   2   36.48    3.13
   9   4   1   17.14    2.17
   9   4   1   12.49    1.94
   9   4   0   -0.09    1.50
   9   4   0    2.72    1.53
   9   4  -1   14.89    2.16
   9   4  -1   13.50    1.99
   9   4  -2   35.13    3.09
   9   4  -2   33.85    2.68
   9   4  -3   73.94    4.43
   9   4  -3   71.34    4.05
   9   4  -4    5.93    1.87
  -9  -4   4   11.04    2.17
   9   4  -5   24.32    2.12
   9   4  -5   24.46    2.82
  -9  -4   5   19.15    2.58
   9   4  -6   48.10    3.79
  -9  -4   6   49.34    3.97
   9   4  -7   -0.47    1.68
  -9  -4   7    0.35    1.84
   9   4  -8   -1.94    1.83
  -9  -4   8    2.67    2.02
   9   4  -9   14.24    2.53
  -9  -4   9   15.89    2.61
   9   4 -10    1.47    1.82
  -9  -4  10    1.77    2.05
   9   4 -11   14.65    2.91
   9   4 -12    4.74    1.95
   9   4 -13    0.08    1.82
   9   3  13    0.18    2.49
   9   3  12   -1.64    2.34
   9   3  11    5.73    2.68
   9   3  10   14.53    2.93
   9   3   9    2.40    2.18
   9   3   8    2.18    2.13
   9   3   8    3.74    1.61
   9   3   7   17.10    2.15
   9   3   7   16.36    2.75
   9   3   6   13.92    2.02
   9   3   6   16.39    2.61
   9   3   5   11.77    2.27
   9   3   5   14.44    1.95
   9   3   4   64.26    4.09
   9   3   4   59.32    3.66
   9   3   3   12.66    1.91
   9   3   3   13.68    2.30
   9   3   2    7.72    1.55
   9   3   2   10.61    1.81
   9   3   1   12.47    1.70
   9   3   1   23.70    2.37
   9   3   0    2.05    1.34
   9   3   0    0.08    1.42
   9   3  -1   21.42    2.34
   9   3  -1   21.69    2.32
   9   3  -2    9.89    1.81
   9   3  -2    6.51    1.69
   9   3  -3   15.17    1.91
   9   3  -3   14.25    2.05
   9   3  -4   61.78    3.66
   9   3  -4   65.34    4.08
  -9  -3   4   60.96    3.93
   9   3  -5   21.71    2.03
   9   3  -5   17.75    2.50
  -9  -3   5   12.75    2.10
   9   3  -6   18.79    2.59
   9   3  -6   16.06    1.81
  -9  -3   6   16.91    2.34
   9   3  -7   18.05    2.64
  -9  -3   7   20.31    2.71
   9   3  -8    2.83    1.76
  -9  -3   8    0.74    1.77
   9   3  -9    3.55    1.90
  -9  -3   9    4.14    1.89
   9   3 -10   11.94    2.43
  -9  -3  10   13.54    2.45
   9   3 -11    2.76    2.20
   9   3 -12    3.02    2.42
   9   3 -13    2.45    2.36
   9   2  14    1.33    2.84
   9   2  13    0.44    2.50
   9   2  12    1.31    2.40
   9   2  11   12.65    2.95
   9   2  10   -0.74    1.55
   9   2   9   11.48    2.67
   9   2   8    7.15    1.73
   9   2   8    7.09    1.98
   9   2   7    6.92    1.55
   9   2   7    4.46    2.11
   9   2   6   57.31    4.02
   9   2   6   49.70    3.20
   9   2   5    8.44    1.63
   9   2   5    9.42    2.13
   9   2   4   21.98    2.54
   9   2   4   20.35    2.05
   9   2   3   67.67    4.18
   9   2   3   72.48    3.88
   9   2   2   21.85    2.33
   9   2   2   20.36    2.12
   9   2   1   18.31    2.04
   9   2   1   16.13    2.19
   9   2   0    8.20    1.71
   9   2  -1   16.67    1.95
   9   2  -1   16.44    2.06
   9   2  -2   21.05    2.23
   9   2  -2   21.11    2.26
   9   2  -3   66.95    4.00
   9   2  -3   66.61    3.83
   9   2  -4   24.67    2.53
   9   2  -4   26.36    2.38
  -9  -2   4   20.93    2.29
   9   2  -5   11.53    1.71
   9   2  -5   14.06    2.11
  -9  -2   5   10.12    1.88
   9   2  -6   46.30    2.99
   9   2  -6   48.28    3.60
  -9  -2   6   52.82    3.39
   9   2  -7    5.73    1.89
  -9  -2   7    6.37    1.77
   9   2  -8    8.08    2.10
  -9  -2   8    8.12    2.04
   9   2  -9    6.71    2.01
  -9  -2   9   10.92    2.05
   9   2 -10   -0.10    1.66
   9   2 -11    8.74    2.23
   9   2 -12    1.64    1.82
   9   2 -13   -0.19    1.74
   9   2 -14    1.13    2.25
   9   1  14    5.78    2.89
   9   1  13   -0.40    2.44
   9   1  12    3.78    2.53
   9   1  11    3.30    2.42
   9   1  10   35.01    3.88
   9   1   9   13.29    2.68
   9   1   8   -0.96    1.93
   9   1   7   36.09    2.47
   9   1   7   35.26    3.54
   9   1   6   21.33    2.82
   9   1   6   27.91    2.18
   9   1   5    7.36    1.35
   9   1   5    6.28    1.89
   9   1   4   69.85    3.71
   9   1   4   75.57    4.38
   9   1   3   31.23    2.80
   9   1   3   30.79    2.29
   9   1   2  161.63    7.27
   9   1   2  159.86    7.66
   9   1   1   29.78    2.40
   9   1   1   27.69    2.52
   9   1   0    0.10    0.97
   9   1   0    0.67    1.35
   9   1  -1   25.83    2.27
   9   1  -2  149.88    7.11
   9   1  -2  146.61    6.98
   9   1  -3   31.05    2.77
   9   1  -3   35.65    2.62
   9   1  -4   67.05    3.88
   9   1  -4   65.80    4.05
  -9  -1   4   72.49    3.89
   9   1  -5    8.21    1.52
   9   1  -5   10.30    1.86
  -9  -1   5    7.82    1.53
   9   1  -6   28.24    2.41
   9   1  -6   24.67    2.64
  -9  -1   6   26.19    2.38
   9   1  -7   33.18    3.22
  -9  -1   7   43.30    2.98
   9   1  -8    4.81    1.81
  -9  -1   8    3.57    1.71
   9   1  -9    7.43    2.11
  -9  -1   9    9.54    2.09
   9   1 -10   35.83    3.61
  -9  -1  10   39.42    3.35
   9   1 -11    2.94    1.82
   9   1 -12    3.34    2.18
   9   1 -13    4.19    2.05
   9   1 -14    2.23    1.95
   9   0  14    2.85    2.70
   9   0  13    3.80    2.61
   9   0  12   -0.32    2.24
   9   0  11    8.55    2.61
   9   0  10   56.94    4.57
   9   0   9   11.14    2.23
   9   0   8    5.43    2.19
   9   0   7   57.28    2.99
   9   0   7   52.70    4.06
   9   0   6   21.71    1.74
   9   0   6   19.35    2.61
   9   0   5   21.97    1.75
   9   0   5   19.97    2.49
   9   0   4   31.22    2.83
   9   0   4   29.23    2.07
   9   0   3  135.65    6.71
   9   0   3  136.07    6.10
   9   0   2  197.98    8.95
   9   0   2  188.10    8.40
   9   0   1   66.76    3.57
   9   0   1   67.01    4.02
   9   0   0   79.37    4.32
   9   0   0   80.88    4.09
   9   0  -1   56.27    3.47
   9   0  -1   62.49    3.50
   9   0  -3  140.81    6.82
   9   0  -3  146.27    6.85
   9   0  -4   29.98    2.48
   9   0  -4   30.86    2.70
  -9   0   4   30.11    2.16
   9   0  -5   22.21    2.19
   9   0  -5   22.63    2.40
  -9   0   5   23.52    1.98
   9   0  -6   25.51    2.34
   9   0  -6   22.62    2.54
  -9   0   6   23.67    2.12
   9   0  -7   60.15    3.97
  -9   0   7   58.30    3.47
   9   0  -8    9.06    2.03
  -9   0   8    5.64    1.68
   9   0  -9   13.86    2.38
  -9   0   9   15.84    2.13
   9   0 -10   55.86    4.24
  -9   0  10   62.62    3.89
   9   0 -11   13.13    2.45
   9   0 -12   -0.78    1.92
   9   0 -13   -0.26    1.69
   9   0 -14   -0.63    2.06
   9  -1  14    0.22    2.44
   9  -1  13    1.78    2.39
   9  -1  12    5.92    2.55
   9  -1  11   13.98    2.88
   9  -1  10    2.52    2.24
   9  -1   9   26.75    3.30
   9  -1   8   31.08    3.36
   9  -1   7    7.69    2.19
   9  -1   7   12.72    1.24
   9  -1   6   13.00    1.26
   9  -1   6   12.11    2.15
   9  -1   5   43.80    3.21
   9  -1   5   38.89    2.22
   9  -1   4   12.70    2.02
   9  -1   4   14.18    1.35
   9  -1   3  180.75    8.36
   9  -1   3  175.46    7.64
   9  -1   2    5.90    1.50
   9  -1   2    5.78    1.09
   9  -1   1   21.70    1.75
   9  -1   1   27.39    2.39
   9  -1   0  136.73    6.55
   9  -1   0  134.23    6.18
   9  -1  -1   25.82    2.36
   9  -1  -1   26.89    2.22
   9  -1  -2    6.55    1.48
   9  -1  -2    5.45    1.34
   9  -1  -3  155.33    7.75
   9  -1  -3  183.43    7.78
   9  -1  -4   13.33    1.80
  -9   1   4   13.99    1.34
   9  -1  -5   31.62    2.57
   9  -1  -5   44.22    2.98
  -9   1   5   44.45    2.48
   9  -1  -6   11.93    1.68
   9  -1  -6   12.75    2.00
  -9   1   6   13.19    1.50
   9  -1  -7   12.37    2.06
  -9   1   7   12.91    1.69
   9  -1  -8   29.57    3.07
  -9   1   8   31.82    2.47
   9  -1  -9   26.79    3.03
  -9   1   9   33.41    2.71
   9  -1 -10    1.75    1.73
  -9   1  10    1.99    1.64
   9  -1 -11   17.72    2.80
   9  -1 -12    6.49    2.08
   9  -1 -13    1.18    1.77
   9  -1 -14   -0.18    1.71
   9  -2  15    0.20    2.66
   9  -2  14    1.97    2.56
   9  -2  13    5.41    2.54
   9  -2  12    6.36    2.51
   9  -2  11    2.98    2.22
   9  -2  10    0.07    2.10
   9  -2   9    1.39    2.08
   9  -2   8   16.49    2.64
   9  -2   7   33.74    3.23
   9  -2   6   15.34    2.32
   9  -2   6   17.16    1.22
   9  -2   5    9.54    0.97
   9  -2   5    9.43    1.87
   9  -2   4  104.19    4.55
   9  -2   4   99.70    5.27
   9  -2   3   36.02    2.09
   9  -2   3   34.74    2.74
   9  -2   2    1.15    0.90
   9  -2   2    2.28    1.05
   9  -2   1   57.30    3.03
   9  -2   1   56.66    3.49
   9  -2   0   17.62    1.98
   9  -2   0   16.84    1.61
   9  -2  -1   60.63    3.53
   9  -2  -1   57.01    3.18
   9  -2  -2    0.60    0.99
   9  -2  -2    1.25    1.10
   9  -2  -3   34.80    2.55
   9  -2  -3   40.37    2.67
   9  -2  -4  104.31    5.20
   9  -2  -4   99.81    5.11
  -9   2   4   99.25    4.52
   9  -2  -5    5.15    1.44
   9  -2  -5    9.96    1.55
  -9   2   5    7.17    1.00
   9  -2  -6   19.44    2.24
   9  -2  -6   19.14    2.09
  -9   2   6   16.75    1.56
   9  -2  -7   37.31    2.92
  -9   2   7   29.38    2.21
   9  -2  -8   20.39    2.53
  -9   2   8   21.34    2.03
   9  -2  -9   -0.46    1.62
  -9   2   9    1.05    1.34
   9  -2 -10   -0.21    1.57
  -9   2  10    3.59    1.53
   9  -2 -11    2.71    2.07
   9  -2 -12    4.24    2.19
   9  -2 -13    2.74    2.18
   9  -2 -14    1.81    2.25
   9  -2 -15   -0.25    2.15
   9  -3  15   -2.63    2.42
   9  -3  14   11.59    3.08
   9  -3  13    1.91    2.40
   9  -3  12    1.05    2.23
   9  -3  11    3.31    2.23
   9  -3  10    0.04    2.01
   9  -3   9   -0.27    1.44
   9  -3   8   36.68    3.50
   9  -3   7    5.70    1.94
   9  -3   6  136.95    6.95
   9  -3   5   32.31    2.95
   9  -3   5   36.58    1.77
   9  -3   4    5.82    1.63
   9  -3   4    4.51    0.76
   9  -3   3    3.32    0.75
   9  -3   3    3.58    1.20
   9  -3   2    4.96    0.90
   9  -3   2    6.56    1.55
   9  -3   1    5.23    1.00
   9  -3   1    5.89    1.47
   9  -3   0  223.28    9.60
   9  -3   0  227.63   10.14
   9  -3  -1    6.33    1.18
   9  -3  -1    6.00    1.47
   9  -3  -2    4.25    1.14
   9  -3  -2    6.68    1.44
   9  -3  -3    2.01    1.11
   9  -3  -3    4.36    1.25
   9  -3  -4    1.62    1.23
   9  -3  -4    4.64    1.33
  -9   3   4    4.39    0.56
   9  -3  -5   35.41    2.72
   9  -3  -5   40.61    2.75
  -9   3   5   37.26    1.99
   9  -3  -6  132.95    6.51
   9  -3  -6  128.03    6.45
  -9   3   6  131.08    5.92
   9  -3  -7    2.60    1.58
  -9   3   7    6.38    1.17
   9  -3  -8   37.52    3.36
  -9   3   8   40.60    2.64
   9  -3  -9    1.20    1.65
  -9   3   9   -0.54    1.23
   9  -3 -10   -1.18    1.84
  -9   3  10    0.02    1.36
   9  -3 -11    2.30    1.73
   9  -3 -12    4.56    2.22
   9  -3 -13    2.28    1.78
   9  -3 -14    6.61    2.58
   9  -3 -15    3.58    2.41
   9  -4  15   -0.26    2.53
   9  -4  14    4.00    2.65
   9  -4  13   14.78    3.47
   9  -4  12   -0.60    2.15
   9  -4  11    4.12    2.24
   9  -4  10    1.46    2.07
   9  -4   9   13.63    2.58
   9  -4   8   11.68    2.35
   9  -4   7  140.98    7.22
   9  -4   6   72.67    4.41
   9  -4   5   59.15    3.73
  -9   4  -5   56.64    2.39
   9  -4   4   19.66    2.08
   9  -4   4   21.13    1.24
   9  -4   3   26.95    2.42
   9  -4   3   21.80    1.45
   9  -4   2   33.66    1.94
   9  -4   2   31.84    2.59
   9  -4   1  192.89    8.68
   9  -4   1  184.90    8.04
   9  -4   0   56.17    3.40
   9  -4   0   56.31    3.01
   9  -4  -1  176.49    7.53
   9  -4  -1  166.86    7.19
   9  -4  -1  170.22    7.87
   9  -4  -2   37.28    2.66
   9  -4  -2   35.08    2.34
   9  -4  -3   28.41    2.44
   9  -4  -3   25.06    2.21
   9  -4  -4   21.86    2.11
   9  -4  -4   21.84    2.23
   9  -4  -5   56.00    3.55
   9  -4  -5   62.04    3.57
  -9   4   5   58.15    2.75
   9  -4  -6   74.71    4.17
   9  -4  -6   71.93    4.09
  -9   4   6   65.71    3.37
   9  -4  -7  131.11    6.58
   9  -4  -8   11.76    2.10
   9  -4  -9   12.06    2.51
   9  -4 -10    1.27    1.64
   9  -4 -11    3.29    1.77
   9  -4 -12    2.66    2.15
   9  -4 -13   10.93    2.46
   9  -4 -14    5.79    2.20
   9  -4 -15    3.46    2.47
  -9   4  15    3.75    2.60
   9  -5  15    7.53    3.30
   9  -5  14    6.66    2.75
   9  -5  13    9.82    2.73
   9  -5  12   -1.71    1.93
   9  -5  11   -0.32    1.94
   9  -5  10   -2.71    1.88
   9  -5   9    9.83    2.41
   9  -5   8   13.83    2.44
   9  -5   7  128.22    6.68
   9  -5   6   73.30    4.40
   9  -5   5   59.22    3.77
   9  -5   4   16.96    2.15
  -9   5  -4   19.23    1.15
   9  -5   3   27.32    2.49
   9  -5   3   25.44    1.55
   9  -5   2   34.83    2.00
   9  -5   2   35.15    2.65
   9  -5   1  176.01    7.47
   9  -5   1  171.29    8.06
   9  -5   0   53.54    2.83
   9  -5   0   54.69    2.61
   9  -5   0   52.61    3.30
   9  -5  -1  176.22    7.78
   9  -5  -1  175.60    7.51
   9  -5  -1  180.25    8.18
   9  -5  -2   32.53    2.27
   9  -5  -2   35.93    2.62
   9  -5  -3   21.18    2.26
   9  -5  -3   23.87    2.09
   9  -5  -4   18.99    2.16
   9  -5  -4   18.64    1.97
   9  -5  -5   59.74    3.66
   9  -5  -5   58.51    3.53
   9  -5  -6   74.61    4.28
   9  -5  -6   68.96    4.14
   9  -5  -7  134.19    6.70
   9  -5  -8    9.45    2.01
   9  -5  -9   14.08    2.28
   9  -5 -10    3.10    2.08
   9  -5 -11    2.36    1.80
   9  -5 -12    0.52    1.69
   9  -5 -13   11.19    2.74
  -9   5  14    5.03    2.72
  -9   5  15    7.86    2.94
   9  -6  15    1.30    3.03
   9  -6  14   10.89    2.95
   9  -6  13   -3.15    1.98
   9  -6  12    4.83    2.33
   9  -6  11    4.91    2.22
   9  -6  10    1.71    2.00
   9  -6   9   -1.49    1.79
   9  -6   8   36.73    3.37
   9  -6   7    7.08    1.95
   9  -6   6  128.53    6.55
   9  -6   5   33.02    2.84
   9  -6   4    4.32    1.56
  -9   6  -4    3.99    0.70
   9  -6   3    1.47    1.34
  -9   6  -3    2.00    0.71
   9  -6   2    7.60    1.58
  -9   6  -2    5.45    0.93
   9  -6   1    6.00    1.43
   9  -6   1    7.55    0.97
   9  -6   1    3.42    1.06
   9  -6   0  224.72    9.90
   9  -6   0  230.49    9.39
   9  -6   0  205.22    9.41
   9  -6  -1    5.75    0.85
   9  -6  -1    4.18    1.13
   9  -6  -1    4.01    1.23
   9  -6  -2    6.50    1.29
   9  -6  -2    7.60    1.51
   9  -6  -3    2.76    1.28
   9  -6  -3    1.44    1.11
   9  -6  -4    3.53    1.27
   9  -6  -4    4.13    1.33
   9  -6  -5   38.89    2.86
   9  -6  -5   35.95    2.72
   9  -6  -6  131.19    6.55
   9  -6  -6  123.54    6.30
   9  -6  -7    4.81    1.74
   9  -6  -8   36.14    3.29
   9  -6  -9    1.96    1.66
   9  -6 -10    0.68    1.70
   9  -6 -11    4.71    1.93
   9  -6 -12    4.74    1.98
  -9   6  12    2.89    2.04
  -9   6  13    1.09    1.97
  -9   6  14    7.39    2.48
  -9   6  15    1.72    2.25
   9  -7  15   -2.97    2.73
   9  -7  14   -1.03    2.66
   9  -7  13    3.74    2.35
   9  -7  12    2.52    2.12
   9  -7  11    1.37    1.94
   9  -7  10    2.39    2.00
   9  -7   9   -1.69    1.69
   9  -7   8   18.96    2.57
   9  -7   7   32.98    3.11
   9  -7   6   17.74    2.30
   9  -7   5    8.69    1.80
  -9   7  -5    9.41    0.76
   9  -7   4   97.79    5.23
  -9   7  -4  101.49    4.42
   9  -7   3   40.21    2.86
  -9   7  -3   38.24    2.15
   9  -7   2    0.72    0.91
   9  -7   2    1.69    1.24
  -9   7  -2    0.88    0.81
   9  -7   1   59.47    3.55
   9  -7   1   58.86    3.12
  -9   7  -1   60.12    3.08
   9  -7   0   16.80    1.94
   9  -7   0   19.05    1.54
   9  -7  -1   59.69    3.49
   9  -7  -1   56.76    3.00
  -9   7   1   56.40    3.13
   9  -7  -2    2.54    1.06
   9  -7  -2    0.97    1.16
   9  -7  -3   37.67    2.81
   9  -7  -3   37.64    2.60
   9  -7  -4  103.28    5.10
   9  -7  -4   96.44    5.21
   9  -7  -5    8.03    1.61
   9  -7  -5    7.09    1.61
   9  -7  -6   18.93    2.37
   9  -7  -6   14.07    2.05
   9  -7  -7   34.85    3.06
   9  -7  -8   15.69    2.31
   9  -7  -9    0.41    1.64
  -9   7   9   -2.06    2.06
  -9   7  10    2.21    1.94
  -9   7  11    0.56    1.87
  -9   7  12    5.62    2.31
  -9   7  13    6.45    2.38
  -9   7  14   -3.74    2.34
  -9   7  15   -0.01    2.16
   9  -8  14    1.14    2.65
   9  -8  13    1.01    2.16
   9  -8  12    7.99    2.40
   9  -8  11   17.09    2.66
   9  -8  10    2.49    2.27
   9  -8   9   26.78    3.01
   9  -8   8   32.25    3.15
   9  -8   7   10.03    2.27
   9  -8   6   13.44    2.31
  -9   8  -6   12.59    0.76
   9  -8   5   46.41    3.25
   9  -8   5   45.28    3.12
  -9   8  -5   40.58    2.18
   9  -8   4   14.11    1.88
   9  -8   4   13.87    1.92
  -9   8  -4   11.45    1.28
   9  -8   3  183.16    8.39
   9  -8   3  186.71    8.49
  -9   8  -3  177.94    7.78
   9  -8   2    3.81    1.41
   9  -8   2    7.39    1.31
  -9   8  -2    4.84    1.01
   9  -8   1   24.60    2.26
   9  -8   1   22.95    1.76
  -9   8  -1   22.55    1.87
   9  -8   0  142.21    6.67
   9  -8   0  139.30    6.35
  -9   8   0  132.49    6.26
   9  -8  -1   27.79    2.40
   9  -8  -1   22.39    1.90
  -9   8   1   24.97    2.09
   9  -8  -2    4.72    1.47
  -9   8   2    5.91    1.45
   9  -8  -3  167.35    8.28
  -9   8   3  191.18    8.22
   9  -8  -4   14.45    1.95
  -9   8   4   14.71    1.94
   9  -8  -5   46.45    3.27
  -9   8   5   45.63    3.21
  -9   8   6   12.75    2.07
  -9   8   7   13.43    2.25
  -9   8   8   29.38    3.15
  -9   8   9   26.48    3.23
  -9   8  10    4.96    2.22
  -9   8  11   14.13    2.67
  -9   8  12    8.49    2.80
  -9   8  13    6.00    2.39
  -9   8  14   -3.77    1.93
   9  -9  14    3.19    2.62
   9  -9  14    1.54    2.22
   9  -9  13    7.30    2.76
   9  -9  13    4.25    2.33
   9  -9  12    0.60    1.93
   9  -9  12   -2.19    1.86
   9  -9  11   13.71    2.47
   9  -9  11   11.80    2.62
   9  -9  10   58.81    4.17
   9  -9  10   54.50    4.35
   9  -9   9   11.63    2.32
   9  -9   9   16.85    2.67
   9  -9   8    9.42    2.09
   9  -9   8    7.06    2.08
   9  -9   7   56.20    3.89
   9  -9   7   60.91    4.05
   9  -9   6   20.15    2.49
   9  -9   6   22.55    2.55
  -9   9  -6   26.65    1.56
   9  -9   5   18.90    2.40
   9  -9   5   21.52    2.27
  -9   9  -5   17.47    1.57
   9  -9   4   32.26    2.47
   9  -9   4   34.67    2.82
  -9   9  -4   27.64    2.09
   9  -9   3  144.56    7.05
   9  -9   3  151.41    7.12
  -9   9  -3  148.44    6.61
   9  -9   2  179.61    8.34
  -9   9  -2  179.44    7.84
   9  -9   1   66.12    3.49
   9  -9   1   62.00    3.63
  -9   9  -1   58.07    3.24
   9  -9   0   85.47    4.31
   9  -9   0   84.52    4.52
  -9   9   0   80.29    4.21
   9  -9  -1   60.01    3.51
   9  -9  -1   61.84    3.66
  -9   9   1   61.46    3.50
   9  -9  -2  182.69    8.63
  -9   9   2  187.02    8.36
   9  -9  -3  152.51    7.12
  -9   9   3  139.05    6.88
   9  -9  -4   34.72    2.50
  -9   9   4   26.09    2.57
   9  -9  -5   24.51    2.57
  -9   9   5   20.88    2.46
  -9   9   6   22.64    2.65
  -9   9   7   61.46    4.16
  -9   9   8    9.28    2.25
  -9   9   9   11.42    2.48
  -9   9  10   54.28    4.31
  -9   9  11    9.65    2.51
  -9   9  12   -1.81    1.93
  -9   9  13    3.18    2.40
  -9   9  14   -2.11    1.99
   9 -10  14    1.50    2.57
   9 -10  14    4.07    2.44
   9 -10  13    2.80    2.43
   9 -10  13    0.75    2.09
   9 -10  12    0.69    2.24
   9 -10  12    0.66    1.96
   9 -10  11    1.17    1.95
   9 -10  11    5.09    1.98
   9 -10  10   33.91    3.58
   9 -10  10   36.63    3.52
   9 -10   9    8.48    2.32
   9 -10   9    9.64    2.49
   9 -10   8    3.05    1.81
   9 -10   8    0.96    1.84
   9 -10   7   38.78    3.48
   9 -10   7   38.50    3.46
   9 -10   6   29.97    2.96
   9 -10   6   24.82    2.78
  -9  10  -6   31.38    1.98
   9 -10   5   11.09    2.09
   9 -10   5    7.41    1.80
  -9  10  -5    8.21    1.33
   9 -10   4   61.93    3.85
   9 -10   4   66.97    3.95
  -9  10  -4   66.07    3.54
   9 -10   3   30.61    2.53
   9 -10   3   30.64    2.45
  -9  10  -3   31.42    2.25
   9 -10   2  157.56    7.45
   9 -10   2  149.51    7.34
  -9  10  -2  161.85    7.11
   9 -10   1   28.74    2.49
   9 -10   1   26.12    2.11
   9 -10   0    0.16    1.30
   9 -10   0   -0.70    1.09
  -9  10   0   -0.55    1.20
   9 -10  -1   24.99    2.43
   9 -10  -1   29.35    2.52
  -9  10   1   24.48    2.26
   9 -10  -2  161.48    7.24
   9 -10  -2  140.65    7.18
  -9  10   2  148.32    7.01
   9 -10  -3   31.94    2.75
  -9  10   3   28.48    2.60
   9 -10  -4   73.83    4.26
  -9  10   4   66.27    4.12
   9 -10  -5    8.65    1.92
  -9  10   5   10.47    1.98
  -9  10   6   25.91    2.82
  -9  10   7   49.23    4.20
  -9  10   8    5.54    2.16
  -9  10   9   11.79    2.50
  -9  10  10   37.23    3.78
  -9  10  11    2.22    2.12
  -9  10  12    4.26    2.32
  -9  10  13    1.23    2.18
  -9  10  14    1.64    2.72
   9 -11  14    3.10    2.42
   9 -11  13    2.58    2.17
   9 -11  12    2.08    2.22
   9 -11  12    1.16    2.05
   9 -11  11   11.66    2.59
   9 -11  11    8.89    2.79
   9 -11  10    1.31    1.73
   9 -11  10    5.68    2.17
   9 -11   9    9.83    2.44
   9 -11   9    7.17    2.01
   9 -11   8    9.32    2.36
   9 -11   8   11.99    2.36
   9 -11   7    6.41    2.03
   9 -11   7    6.75    2.09
   9 -11   6   50.52    3.77
   9 -11   6   52.30    3.74
  -9  11  -6   46.30    2.86
   9 -11   5    9.38    2.02
   9 -11   5   12.99    1.96
  -9  11  -5    7.62    1.48
   9 -11   4   26.00    2.61
   9 -11   4   27.55    2.74
  -9  11  -4   28.20    2.45
   9 -11   3   67.43    4.05
   9 -11   3   66.96    4.17
  -9  11  -3   81.45    4.11
   9 -11   2   19.67    2.16
   9 -11   2   19.14    2.15
  -9  11  -2   21.23    2.14
   9 -11   1   13.95    1.84
  -9  11  -1   13.06    1.71
   9 -11   0    8.80    1.86
   9 -11   0   10.80    1.71
  -9  11   0   11.69    1.69
   9 -11  -1   15.31    1.96
   9 -11  -1   16.77    2.20
  -9  11   1   14.67    2.11
   9 -11  -2   19.40    2.36
   9 -11  -2   19.77    2.17
  -9  11   2   18.93    2.21
   9 -11  -3   67.93    3.95
  -9  11   3   65.89    3.99
   9 -11  -4   19.65    2.41
  -9  11   4   23.20    2.47
  -9  11   5   10.48    2.03
  -9  11   6   44.55    3.53
  -9  11   7    7.62    2.14
  -9  11   8    6.43    2.25
  -9  11   9    8.19    2.33
  -9  11  10   -0.20    1.87
  -9  11  11    7.42    2.44
  -9  11  12   -0.63    2.07
  -9  11  13   -0.06    2.14
  -9  11  14   -0.15    2.25
   9 -12  13    3.92    2.72
   9 -12  12    0.83    2.16
   9 -12  11   -1.25    1.96
   9 -12  11    0.61    2.01
   9 -12  10    8.84    2.43
   9 -12  10   11.02    2.40
   9 -12   9    0.77    1.86
   9 -12   9    1.57    2.03
   9 -12   8    0.61    1.98
   9 -12   8    2.27    1.63
   9 -12   7   25.95    2.83
   9 -12   7   18.76    2.83
   9 -12   6   16.76    2.40
   9 -12   6   14.17    2.43
  -9  12  -6   15.48    1.88
   9 -12   5   14.33    2.28
   9 -12   5   18.80    2.23
  -9  12  -5   14.48    2.01
   9 -12   4   65.08    3.97
   9 -12   4   63.32    4.32
  -9  12  -4   55.75    3.63
   9 -12   3   20.25    2.35
   9 -12   3   15.25    2.14
  -9  12  -3   15.52    2.12
   9 -12   2   10.65    1.76
   9 -12   2   11.40    2.09
  -9  12  -2    6.47    1.58
   9 -12   1   22.67    2.51
   9 -12   1   22.86    2.31
  -9  12  -1   20.21    2.29
   9 -12   0    0.05    0.50
   9 -12   0    2.41    1.29
  -9  12   0    4.37    1.50
   9 -12  -1   19.91    2.27
   9 -12  -1   25.34    2.83
  -9  12   1   21.80    2.50
   9 -12  -2    9.33    2.19
   9 -12  -2    7.33    1.68
  -9  12   2    6.83    1.77
   9 -12  -3   13.39    2.02
  -9  12   3   13.94    2.16
   9 -12  -4   58.09    3.97
  -9  12   4   59.98    4.00
  -9  12   5   17.64    2.47
  -9  12   6   14.30    2.43
  -9  12   7   22.81    2.91
  -9  12   8    2.43    1.93
  -9  12   9    0.20    1.88
  -9  12  10   14.52    2.76
  -9  12  11    1.01    2.10
  -9  12  12   -0.20    2.13
  -9  12  13    7.76    2.84
   9 -13  13    0.39    2.38
   9 -13  12    0.11    2.60
   9 -13  11    7.10    2.58
   9 -13  10   -2.32    1.90
   9 -13  10    1.64    1.86
   9 -13   9   14.98    2.44
   9 -13   9   16.09    2.80
   9 -13   8    0.35    1.98
   9 -13   8    3.09    1.82
   9 -13   7   -0.06    1.74
   9 -13   7    4.93    2.13
   9 -13   6   47.97    3.26
   9 -13   6   44.17    3.87
  -9  13  -6   39.01    3.08
   9 -13   5   23.14    2.90
   9 -13   5   24.79    2.66
  -9  13  -5   20.89    2.52
   9 -13   4   11.26    2.21
   9 -13   4    9.19    1.96
  -9  13  -4    9.87    1.98
   9 -13   3   75.09    4.65
   9 -13   3   73.77    4.39
  -9  13  -3   73.56    4.48
   9 -13   2   35.60    3.05
   9 -13   2   40.22    3.25
   9 -13   1   15.13    2.62
   9 -13   1   13.14    1.99
  -9  13  -1   17.88    2.22
   9 -13   0    1.53    1.32
   9 -13   0    0.73    1.63
  -9  13   0    2.07    1.87
   9 -13  -1   14.03    2.03
  -9  13   1   18.77    2.60
   9 -13  -2   34.23    3.05
   9 -13  -2   37.21    3.60
  -9  13   2   35.53    3.19
   9 -13  -3   72.38    4.46
  -9  13   3   73.78    4.50
  -9  13   4    9.34    2.14
  -9  13   5   22.28    2.88
  -9  13   6   42.75    3.84
  -9  13   7    0.94    1.96
  -9  13   8   -2.69    1.75
  -9  13   9   10.48    2.58
  -9  13  10   -2.30    1.97
  -9  13  11    9.20    2.73
  -9  13  12   -3.46    2.55
  -9  13  13   -2.62    2.19
   9 -14  13    1.37    2.32
   9 -14  12    2.18    2.34
   9 -14  11    1.95    2.77
   9 -14  10   15.01    2.93
   9 -14   9   -0.35    1.96
   9 -14   8    5.13    1.91
   9 -14   8    4.62    2.15
   9 -14   7   10.90    2.51
   9 -14   7    5.23    1.87
   9 -14   6   17.28    2.84
   9 -14   6   22.39    2.50
  -9  14  -6   16.74    2.38
   9 -14   5    2.72    1.69
   9 -14   5    4.78    2.15
  -9  14  -5    0.57    1.83
   9 -14   4   37.67    3.60
   9 -14   4   41.14    2.98
  -9  14  -4   39.57    3.42
   9 -14   3   29.76    3.38
   9 -14   3   28.66    2.69
  -9  14  -3   25.77    2.71
   9 -14   2   59.67    4.35
   9 -14   2   63.34    3.96
  -9  14  -2   61.04    4.02
   9 -14   1    9.81    2.61
   9 -14   1   11.73    1.89
  -9  14  -1   10.76    2.37
   9 -14   0   11.65    2.72
   9 -14   0   14.51    2.06
  -9  14   0   12.37    2.46
   9 -14  -1    6.81    1.76
   9 -14  -1   12.86    2.77
  -9  14   1    9.59    2.13
   9 -14  -2   59.42    3.82
  -9  14   2   52.10    3.92
   9 -14  -3   29.55    2.98
  -9  14   3   30.42    3.12
  -9  14   4   42.11    3.72
  -9  14   5    3.43    2.04
  -9  14   6   24.61    3.36
  -9  14   7   10.80    2.49
  -9  14   8    8.46    2.44
  -9  14   9    1.48    2.49
  -9  14  10   13.47    2.84
  -9  14  11   -0.50    2.60
  -9  14  12    4.29    2.55
  -9  14  13    2.59    2.61
   9 -15  12   -1.81    2.59
   9 -15  11    1.19    2.27
   9 -15  10    5.13    2.36
   9 -15   9    4.18    2.28
   9 -15   8   -0.89    2.46
   9 -15   7    9.37    1.87
   9 -15   7    4.92    2.34
   9 -15   6    0.77    1.63
   9 -15   6    0.18    2.03
  -9  15  -6    0.64    1.64
   9 -15   5    9.10    1.91
   9 -15   5    9.71    2.51
  -9  15  -5    6.68    2.07
   9 -15   4   10.82    2.04
   9 -15   4   10.62    2.53
  -9  15  -4   10.06    2.41
   9 -15   3    8.38    2.41
   9 -15   3    8.82    1.92
  -9  15  -3    2.77    1.15
   9 -15   2   23.89    3.19
   9 -15   2   23.16    2.45
  -9  15  -2   17.67    2.64
   9 -15   1   18.52    2.93
   9 -15   1   15.76    2.27
  -9  15  -1   15.97    2.61
   9 -15   0   29.66    3.46
   9 -15   0   27.46    2.93
  -9  15   0   37.16    3.50
   9 -15  -1   16.73    2.27
   9 -15  -1   19.54    3.42
  -9  15   1   18.04    2.57
   9 -15  -2   20.92    2.77
  -9  15   2   27.20    3.06
  -9  15   3    7.90    2.31
  -9  15   4   10.73    2.51
  -9  15   5   10.10    2.40
  -9  15   6   -0.10    1.91
  -9  15   7    3.43    2.19
  -9  15   8   -0.87    1.92
  -9  15   9    4.57    2.39
  -9  15  10    5.48    2.47
  -9  15  11    0.20    2.36
  -9  15  12    1.39    2.46
   9 -16  11    0.91    2.80
   9 -16  10   -1.56    2.12
   9 -16   9    2.13    2.32
   9 -16   8   -1.86    2.09
   9 -16   7    3.45    2.27
   9 -16   6    3.08    2.22
  -9  16  -6    7.76    2.12
   9 -16   5    2.02    2.10
   9 -16   5    2.85    1.56
  -9  16  -5    4.18    1.95
   9 -16   4   -1.81    2.03
   9 -16   4    0.80    1.56
  -9  16  -4    1.59    1.39
   9 -16   3    8.97    2.67
   9 -16   3   12.16    2.05
  -9  16  -3    7.80    2.53
   9 -16   2    3.99    1.78
   9 -16   2    7.03    2.92
  -9  16  -2    3.74    1.98
   9 -16   1    6.00    1.94
   9 -16   1   12.19    3.13
  -9  16  -1    8.86    2.31
   9 -16   0   11.70    2.03
   9 -16   0    9.84    3.11
  -9  16   0   12.83    2.47
   9 -16  -1    7.84    1.90
   9 -16  -1    6.75    2.93
  -9  16   1    5.71    2.23
  -9  16   2    0.82    2.05
  -9  16   3   12.38    2.58
  -9  16   4    0.49    2.05
  -9  16   5    4.55    2.27
  -9  16   6    8.92    2.44
  -9  16   7    1.13    2.11
  -9  16   8    0.31    2.16
  -9  16   9    0.79    2.19
  -9  16  10   -0.24    2.19
  -9  16  11   -0.62    2.27
  -9  16  12    2.02    3.03
   9 -17  11   -1.64    2.31
   9 -17  10    1.06    2.36
   9 -17   9    0.64    2.28
   9 -17   8    0.79    2.30
   9 -17   7    6.23    2.58
   9 -17   6    3.40    2.31
  -9  17  -6    5.65    2.00
   9 -17   5    3.59    2.33
  -9  17  -5    8.07    2.25
   9 -17   4    1.16    1.44
   9 -17   4    2.32    2.30
  -9  17  -4   -0.75    1.35
   9 -17   3    0.33    2.29
   9 -17   3    0.78    1.51
  -9  17  -3   -0.94    2.05
   9 -17   2    2.12    1.66
   9 -17   2   -1.36    2.58
  -9  17  -2    2.30    1.94
   9 -17   1   11.81    2.82
   9 -17   1   14.99    2.26
  -9  17  -1   15.03    2.97
   9 -17   0    2.83    2.89
   9 -17   0    1.48    1.72
  -9  17   0    3.79    2.15
   9 -17  -1   14.11    3.35
  -9  17   1    7.55    2.43
  -9  17   2    1.01    1.88
  -9  17   3    0.56    1.96
  -9  17   4   -0.67    1.90
  -9  17   5    4.87    2.55
  -9  17   6    5.12    2.42
  -9  17   7    8.77    2.53
  -9  17   8    0.15    2.54
  -9  17   9    2.30    2.37
  -9  17  10    3.02    2.86
  -9  17  11   -2.83    2.35
   9 -18  10    0.97    2.48
   9 -18   9   -1.76    2.22
   9 -18   8    9.57    2.92
   9 -18   7   -0.19    2.31
   9 -18   6   11.13    2.83
  -9  18  -6   11.89    2.54
   9 -18   5   -0.56    2.29
  -9  18  -5   -0.45    1.27
   9 -18   4   10.37    2.95
  -9  18  -4    6.38    2.45
   9 -18   3   -0.06    2.30
  -9  18  -3    3.19    2.27
   9 -18   2    0.54    2.31
   9 -18   2    1.23    1.52
  -9  18  -2   -0.13    1.94
   9 -18   1    6.44    1.94
   9 -18   1    3.57    2.49
  -9  18  -1    2.57    2.12
   9 -18   0   27.40    3.81
  -9  18   0   27.57    3.61
   9 -18  -1    6.98    2.76
  -9  18   1    5.76    2.34
  -9  18   2   -1.20    1.93
  -9  18   3    1.56    2.44
  -9  18   4   10.42    2.57
  -9  18   5   -0.25    1.99
  -9  18   6    9.07    2.64
  -9  18   7   -0.77    2.62
  -9  18   8    9.79    2.89
  -9  18   9   -2.95    2.20
  -9  18  10    0.26    2.85
   9 -19   9   -3.78    2.25
   9 -19   8    3.12    2.70
   9 -19   7   12.58    3.22
   9 -19   6    1.59    2.59
  -9  19  -6    3.23    2.24
   9 -19   5   -1.32    2.36
  -9  19  -5    4.68    2.01
   9 -19   4    1.18    2.56
  -9  19  -4    2.02    2.36
   9 -19   3    3.74    2.56
  -9  19  -3   -4.02    2.12
   9 -19   2    2.14    2.49
  -9  19  -2    4.84    2.24
   9 -19   1   13.21    3.15
  -9  19  -1   12.97    3.14
   9 -19   0    6.13    2.85
  -9  19   0    4.77    2.36
   9 -19  -1    6.82    2.80
  -9  19   1    9.93    3.02
  -9  19   2    2.51    2.22
  -9  19   3    0.87    2.23
  -9  19   4    1.51    2.23
  -9  19   5    3.32    2.36
  -9  19   6    1.50    2.26
  -9  19   7   12.62    3.29
  -9  19   8    3.41    2.45
  -9  19   9    1.32    2.57
   9 -20   8    1.07    3.24
   9 -20   7    1.54    2.78
   9 -20   6    5.45    2.96
  -9  20  -6    3.34    1.56
   9 -20   5   -2.64    2.51
  -9  20  -5    1.84    2.30
   9 -20   4   -2.38    2.53
  -9  20  -4    0.70    1.93
   9 -20   3    0.22    2.52
  -9  20  -3    0.74    2.43
   9 -20   2   -2.31    2.31
  -9  20  -2    5.16    2.67
   9 -20   1    1.21    2.54
  -9  20  -1    2.10    2.20
   9 -20   0   -3.62    2.24
  -9  20   0    3.71    2.67
  -9  20   1    5.46    2.57
  -9  20   2    5.88    2.92
  -9  20   3   -2.04    2.13
  -9  20   4    0.69    2.34
  -9  20   5   -2.04    2.68
  -9  20   6    4.60    2.55
  -9  20   7    2.54    2.41
  -9  20   8   -1.59    2.24
   9 -21   7   -1.86    2.71
   9 -21   6    1.56    2.90
  -9  21  -6    0.23    1.57
   9 -21   5    3.64    2.89
  -9  21  -5    0.77    2.35
   9 -21   4   -1.83    2.60
  -9  21  -4    0.19    1.99
   9 -21   3   -1.27    2.97
  -9  21  -3    2.07    2.26
   9 -21   2    0.02    3.04
  -9  21  -2    5.33    2.73
   9 -21   1   -1.34    2.57
  -9  21  -1    4.02    2.66
   9 -21   0    0.24    2.53
  -9  21   0    2.57    2.44
  -9  21   1   -0.02    2.72
  -9  21   2   -3.24    2.52
  -9  21   3    0.77    2.44
  -9  21   4    1.48    2.49
  -9  21   5    3.25    2.56
  -9  21   6    3.39    2.61
  -9  21   7   -3.36    2.22
   9 -22   5    0.77    2.80
  -9  22  -5    0.88    2.44
   9 -22   4    4.72    2.96
  -9  22  -4    9.42    2.75
   9 -22   3   -0.98    2.54
  -9  22  -3    0.29    2.59
   9 -22   2    3.08    3.40
  -9  22  -2    2.22    2.38
   9 -22   1   -0.39    3.11
  -9  22  -1    1.65    2.75
   9 -22   0    0.13    2.69
  -9  22   0    0.79    2.29
  -9  22   1    3.37    2.50
  -9  22   2    1.47    2.86
  -9  22   3    1.27    2.47
  -9  22   4    8.28    2.97
  -9  22   5    4.21    2.71
   9 -23   2   -3.68    3.09
  -9  23  -2   -0.28    2.34
   9 -23   1    2.31    2.88
  -9  23  -1   -0.98    2.23
  -9  23   0    5.72    2.60
  -9  23   1    3.07    2.57
  -9  23   2   -1.51    2.41
  10  13   2   -2.95    1.98
  10  13   1    6.20    2.86
  10  13   0    3.46    2.76
  10  13  -1    3.52    2.43
  10  13  -2    0.46    2.18
  10  12   5   -0.49    2.41
  10  12   4    2.08    2.55
  10  12   3    1.59    2.23
  10  12   2   -1.96    2.40
  10  12   1   -2.31    1.89
  10  12   0    5.90    2.38
  10  12  -1   -1.52    1.96
  10  12  -2   -3.12    1.81
  10  12  -3    1.37    2.21
  10  12  -4    0.16    2.12
  10  12  -5    1.20    2.29
  10  11   7    5.39    2.40
  10  11   7    2.13    2.37
  10  11   6    0.12    2.50
  10  11   6   -2.46    2.23
  10  11   5    1.20    1.82
  10  11   5   -0.64    1.90
  10  11   4    1.45    2.08
  10  11   3   -3.24    2.14
  10  11   2    2.06    2.11
  10  11   1    0.38    2.01
  10  11   0   -0.08    1.95
  10  11  -1    1.93    2.20
  10  11  -2    2.14    2.08
  10  11  -3    0.11    2.29
  10  11  -4   -0.40    2.00
  10  11  -5    1.06    2.15
  10  11  -6    2.55    2.17
  10  11  -7    2.17    2.18
 -10 -11   7    3.26    2.87
  10  10   8   -0.70    1.79
  10  10   8   -2.43    2.21
  10  10   7   -0.52    2.12
  10  10   7    6.47    2.28
  10  10   6   15.78    3.13
  10  10   6   10.67    2.72
  10  10   5    2.02    2.31
  10  10   5    1.76    1.98
  10  10   4   -0.26    2.12
  10  10   4    1.59    2.32
  10  10   3   -0.43    1.86
  10  10   2    2.42    2.07
  10  10   1    1.08    1.90
  10  10   0    5.40    2.21
  10  10  -1   -1.21    2.24
  10  10  -2    3.31    2.19
  10  10  -3    5.42    2.45
  10  10  -4   -2.10    1.82
  10  10  -5    2.93    2.07
  10  10  -6   14.42    2.97
 -10 -10   6   13.15    3.27
  10  10  -7   -1.00    1.89
 -10 -10   7    3.92    2.77
  10  10  -8   -0.65    1.91
 -10 -10   8    2.26    2.96
  10   9   9   -2.55    2.31
  10   9   8   -0.13    2.26
  10   9   8    4.22    2.29
  10   9   7   11.96    2.80
  10   9   7   12.93    3.24
  10   9   6    2.82    2.16
  10   9   6    3.76    2.01
  10   9   5    2.29    2.30
  10   9   5    2.16    1.86
  10   9   4   -0.53    1.12
  10   9   4    3.65    2.25
  10   9   3    0.91    2.21
  10   9   3    1.63    1.73
  10   9   2    1.48    1.84
  10   9   2    3.69    2.34
  10   9   1    8.07    2.30
  10   9   0    1.57    2.28
  10   9  -1   10.35    2.80
  10   9  -2    3.43    2.36
  10   9  -3   -0.14    1.82
  10   9  -4    0.64    1.92
  10   9  -5    6.92    2.24
  10   9  -6    1.88    1.91
 -10  -9   6    4.95    2.77
  10   9  -7    7.61    2.45
 -10  -9   7   11.82    2.88
  10   9  -8   -3.46    1.71
 -10  -9   8    0.62    2.64
  10   9  -9    2.38    2.21
  10   8  10   -0.92    2.39
  10   8   9   -1.10    2.71
  10   8   8    4.93    2.21
  10   8   8    2.22    2.41
  10   8   7    9.64    2.68
  10   8   7   10.80    2.52
  10   8   6    4.18    2.13
  10   8   6    1.11    1.83
  10   8   5    5.15    2.29
  10   8   5    8.74    2.61
  10   8   4   -0.41    1.85
  10   8   4    3.13    1.84
  10   8   3    2.86    2.06
  10   8   3    2.63    1.86
  10   8   2   -0.49    1.71
  10   8   2    2.42    1.86
  10   8   1   16.01    2.55
  10   8   1   15.78    2.63
  10   8   0    8.60    2.28
  10   8  -1   14.27    2.62
  10   8  -2    2.24    2.02
  10   8  -3   -0.64    1.71
  10   8  -4    1.36    1.90
  10   8  -5    7.68    2.27
 -10  -8   5    7.64    2.67
  10   8  -6    2.89    1.93
 -10  -8   6    2.41    2.40
  10   8  -7   10.65    2.65
 -10  -8   7    8.07    2.87
  10   8  -8    6.19    2.34
 -10  -8   8    2.20    2.57
  10   8  -9   -1.66    1.83
  10   8 -10   -0.65    1.88
  10   7  11   -1.67    2.46
  10   7  10   -0.65    2.39
  10   7   9    4.69    2.60
  10   7   8   -0.78    1.84
  10   7   8    1.32    2.26
  10   7   7    1.96    1.95
  10   7   7   -2.92    2.34
  10   7   6   11.92    2.50
  10   7   6   11.35    2.55
  10   7   5    0.04    1.78
  10   7   5   -0.47    1.84
  10   7   4    0.42    1.97
  10   7   4   -0.83    1.70
  10   7   3   -0.23    0.77
  10   7   3    3.12    1.81
  10   7   2   -0.24    2.00
  10   7   2   -2.08    1.74
  10   7   1    0.67    1.77
  10   7   1    0.97    1.76
  10   7   0    6.11    1.92
  10   7   0    9.09    2.50
  10   7  -1   -0.73    1.69
  10   7  -2   -1.92    1.61
  10   7  -3    2.56    1.90
  10   7  -4   -0.44    1.63
  10   7  -5    1.83    1.74
 -10  -7   5    2.28    1.87
  10   7  -6   12.11    2.54
 -10  -7   6   11.02    2.73
  10   7  -7   -1.70    1.69
 -10  -7   7    0.27    2.33
  10   7  -8    2.62    2.10
 -10  -7   8    3.40    2.52
  10   7  -9   -0.63    1.94
  10   7 -10    3.13    2.08
  10   7 -11    0.84    2.01
  10   6  11   -1.75    2.32
  10   6  10    4.16    2.64
  10   6   9    0.98    2.27
  10   6   8    0.72    2.20
  10   6   7    4.45    2.28
  10   6   7    7.28    2.02
  10   6   6    0.64    1.93
  10   6   6   -0.47    1.67
  10   6   5    3.21    1.85
  10   6   5    4.08    2.02
  10   6   4    3.09    1.89
  10   6   4    6.24    1.89
  10   6   3   16.15    2.61
  10   6   3   12.24    2.24
  10   6   2   11.97    2.17
  10   6   2   16.59    2.42
  10   6   1    8.62    2.42
  10   6   1    9.06    2.15
  10   6   0   -1.66    1.67
  10   6   0   -0.13    1.67
  10   6  -1   11.49    2.12
  10   6  -1   13.10    2.44
  10   6  -2   14.10    2.16
  10   6  -2   15.40    2.48
  10   6  -3   17.06    2.70
  10   6  -4    4.78    2.02
  10   6  -5    3.95    1.91
 -10  -6   5    3.32    2.18
  10   6  -6    1.21    1.78
 -10  -6   6    0.57    2.14
  10   6  -7    4.74    2.09
 -10  -6   7    7.07    2.36
  10   6  -8    1.73    1.95
 -10  -6   8    0.38    2.18
  10   6  -9    3.28    2.39
  10   6 -10    5.78    2.44
  10   6 -11   -0.72    2.10
  10   5  12    2.37    2.72
  10   5  11    2.65    2.58
  10   5  10   -3.85    2.15
  10   5   9    8.34    2.68
  10   5   8    3.72    2.30
  10   5   7    3.19    2.10
  10   5   7    3.41    1.91
  10   5   6    3.82    2.15
  10   5   6    6.29    1.90
  10   5   5   11.86    2.21
  10   5   5   10.87    2.42
  10   5   4    0.66    1.56
  10   5   4    3.17    2.25
  10   5   3   37.36    3.41
  10   5   3   41.16    3.59
  10   5   2   -0.34    0.52
  10   5   2   -0.15    1.57
  10   5   1    6.05    1.81
  10   5   1    7.41    2.01
  10   5   0   37.51    3.25
  10   5   0   32.58    3.22
  10   5  -1    3.11    1.82
  10   5  -1    5.60    1.99
  10   5  -2   -1.72    1.38
  10   5  -2    0.07    1.66
  10   5  -3   33.73    2.89
  10   5  -3   35.10    3.40
  10   5  -4   -0.05    1.70
  10   5  -5   15.32    2.60
 -10  -5   5   15.86    2.70
  10   5  -6    5.09    2.02
 -10  -5   6    8.70    2.32
  10   5  -7   -1.96    1.56
 -10  -5   7   -1.34    1.88
  10   5  -8    3.65    2.05
 -10  -5   8    1.21    2.10
  10   5  -9   13.59    2.69
  10   5 -10    3.03    2.08
  10   5 -11    4.64    2.17
  10   5 -12    3.90    2.49
  10   4  12    2.94    2.65
  10   4  11    4.47    2.61
  10   4  10    8.22    2.75
  10   4   9    8.64    2.69
  10   4   8    4.72    2.27
  10   4   7   11.36    2.54
  10   4   7    7.40    2.01
  10   4   6    3.66    2.11
  10   4   6   -0.11    1.51
  10   4   5   21.42    2.46
  10   4   5   18.78    3.00
  10   4   4   36.74    3.65
  10   4   4   37.98    3.21
  10   4   3   29.51    2.85
  10   4   3   25.76    2.83
  10   4   2   10.77    1.99
  10   4   2   13.34    2.19
  10   4   1   35.37    3.35
  10   4   1   46.97    3.57
  10   4   0    0.50    1.76
  10   4   0    2.38    1.74
  10   4  -1   37.35    3.32
  10   4  -1   43.39    3.27
  10   4  -2   11.92    1.99
  10   4  -2   12.44    2.23
  10   4  -3   25.49    2.50
  10   4  -3   24.12    2.80
  10   4  -4   39.00    3.54
  10   4  -4   38.12    2.89
 -10  -4   4   41.39    3.43
  10   4  -5   13.78    2.49
  10   4  -5   19.88    2.05
 -10  -4   5   21.49    2.73
  10   4  -6    0.99    1.83
 -10  -4   6    4.89    1.97
  10   4  -7    9.71    2.58
 -10  -4   7    8.73    2.41
  10   4  -8    1.47    2.05
 -10  -4   8    1.36    1.92
  10   4  -9   12.16    2.72
  10   4 -10   11.31    2.72
  10   4 -11    5.92    2.50
  10   4 -12    0.20    2.13
  10   3  13    2.51    2.78
  10   3  12    0.18    2.45
  10   3  11    2.74    2.52
  10   3  10   12.63    3.00
  10   3   9    1.77    2.21
  10   3   8    8.53    2.47
  10   3   7   12.16    2.65
  10   3   7   14.39    2.08
  10   3   6    7.15    1.94
  10   3   6    8.68    2.37
  10   3   5    1.38    1.54
  10   3   5    1.02    1.94
  10   3   4   13.16    2.00
  10   3   4   10.80    2.24
  10   3   3   14.98    2.57
  10   3   3   11.10    2.01
  10   3   2   69.74    4.25
  10   3   2   66.21    4.18
  10   3   1    0.92    1.39
  10   3   1    4.18    1.51
  10   3   0    0.05    1.71
  10   3   0    1.94    1.43
  10   3  -1    1.82    1.48
  10   3  -1   -1.03    1.47
  10   3  -2   60.37    3.93
  10   3  -2   61.66    3.89
  10   3  -3    9.35    2.01
  10   3  -3    8.45    1.85
  10   3  -4   14.28    2.27
  10   3  -4   13.82    2.01
 -10  -3   4   11.00    2.18
  10   3  -5   -2.33    1.51
  10   3  -5    2.75    1.37
 -10  -3   5   -1.22    1.75
  10   3  -6   10.62    1.65
  10   3  -6    6.67    2.04
 -10  -3   6    7.94    2.03
  10   3  -7   13.79    2.42
 -10  -3   7   15.32    2.36
  10   3  -8    2.01    1.81
 -10  -3   8    3.81    1.92
  10   3  -9    1.72    1.76
  10   3 -10   10.87    2.48
  10   3 -11    4.91    2.17
  10   3 -12    3.37    2.07
  10   3 -13   -0.08    1.92
  10   2  13    1.22    2.63
  10   2  12   -3.95    2.17
  10   2  11    4.60    2.65
  10   2  10    3.12    2.35
  10   2   9    1.98    2.17
  10   2   8    1.98    2.18
  10   2   7   -1.49    1.99
  10   2   7    0.78    1.36
  10   2   6   -2.63    1.15
  10   2   6    3.00    1.60
  10   2   5   13.77    1.92
  10   2   5   17.16    2.56
  10   2   4   12.00    1.80
  10   2   4   10.67    2.19
  10   2   3   32.37    3.11
  10   2   3   38.67    2.85
  10   2   2    2.98    1.29
  10   2   2    2.22    1.62
  10   2   1   -0.26    1.38
  10   2   1    1.61    1.25
  10   2   0    2.24    1.33
  10   2   0    0.41    0.43
  10   2  -1   -1.68    1.43
  10   2  -1    1.15    1.33
  10   2  -2    1.39    1.41
  10   2  -2    4.01    1.61
  10   2  -3   31.59    2.99
  10   2  -3   35.08    2.79
  10   2  -4   11.60    1.85
  10   2  -4   10.69    2.10
 -10  -2   4    9.46    1.83
  10   2  -5   16.53    2.06
  10   2  -5   14.20    2.31
 -10  -2   5   10.99    2.07
  10   2  -6    1.67    1.23
  10   2  -6    0.00    1.51
 -10  -2   6    2.51    1.73
  10   2  -7   -0.62    1.66
 -10  -2   7    0.43    1.78
  10   2  -8    2.36    1.79
 -10  -2   8    1.26    1.66
  10   2  -9    1.91    1.78
  10   2 -10    3.07    1.91
  10   2 -11    5.71    2.13
  10   2 -12    2.44    1.99
  10   2 -13    2.12    2.23
  10   1  14    6.86    3.03
  10   1  13   -0.31    2.38
  10   1  12    0.66    2.41
  10   1  11   -1.45    2.08
  10   1  10   10.37    2.74
  10   1   9    4.05    2.30
  10   1   8    4.52    2.34
  10   1   7    3.90    1.33
  10   1   7    1.38    1.59
  10   1   6   15.89    2.28
  10   1   6   15.38    1.82
  10   1   5   12.35    2.32
  10   1   5   13.43    1.68
  10   1   4   67.81    4.32
  10   1   4   67.11    3.73
  10   1   3   40.86    3.21
  10   1   3   41.47    2.79
  10   1   2    3.39    1.34
  10   1   2    5.60    1.70
  10   1   1    7.70    1.50
  10   1   1    8.82    1.77
  10   1   0    2.53    1.36
  10   1   0    0.82    1.15
  10   1  -1    9.35    1.69
  10   1  -2    3.86    1.64
  10   1  -2    7.39    1.63
  10   1  -3   37.61    2.95
  10   1  -3   37.94    2.99
  10   1  -4   76.04    4.25
  10   1  -4   68.72    4.30
 -10  -1   4   69.68    3.92
  10   1  -5   13.81    2.02
  10   1  -5   10.75    2.05
 -10  -1   5   12.44    1.90
  10   1  -6   20.23    2.25
  10   1  -6   21.12    2.60
 -10  -1   6   22.23    2.37
  10   1  -7    5.11    1.94
  10   1  -7    4.69    1.48
 -10  -1   7    6.66    1.84
  10   1  -8    3.11    1.87
 -10  -1   8    4.99    1.75
  10   1  -9    7.27    2.10
  10   1 -10    5.86    2.07
  10   1 -11    3.05    2.29
  10   1 -12   -0.29    1.73
  10   1 -13    2.66    2.25
  10   1 -14    2.48    2.02
  10   0  14    2.59    2.80
  10   0  13    1.70    2.60
  10   0  12   -1.19    2.29
  10   0  11   12.49    2.92
  10   0  10   -2.89    1.94
  10   0   9   26.29    3.38
  10   0   8    9.81    2.15
  10   0   7   -0.36    1.02
  10   0   7    1.17    2.02
  10   0   6    9.30    2.27
  10   0   6    9.58    1.39
  10   0   5   34.04    3.25
  10   0   5   32.15    2.27
  10   0   4    3.81    1.11
  10   0   4    2.99    1.78
  10   0   3  160.42    7.84
  10   0   3  160.76    7.21
  10   0   2    8.22    1.45
  10   0   2    8.16    1.83
  10   0   1   10.65    1.64
  10   0   1   11.93    1.89
  10   0   0   23.85    2.22
  10   0   0   28.85    2.59
  10   0  -1   10.23    1.73
  10   0  -1   10.82    1.65
  10   0  -2    5.59    1.48
  10   0  -3  169.23    7.85
  10   0  -3  157.02    7.68
  10   0  -4    2.66    1.46
  10   0  -4    7.07    1.69
 -10   0   4    1.49    1.10
  10   0  -5   27.33    2.83
  10   0  -5   38.14    3.04
 -10   0   5   31.72    2.40
  10   0  -6    8.91    1.97
  10   0  -6   11.30    1.77
 -10   0   6   12.13    1.74
  10   0  -7    2.35    1.66
  10   0  -7    2.77    1.45
 -10   0   7    1.19    1.33
  10   0  -8   12.54    2.38
 -10   0   8   12.48    1.92
  10   0  -9   23.03    2.87
  10   0 -10    0.79    1.67
  10   0 -11    8.04    2.18
  10   0 -12    0.41    1.75
  10   0 -13    0.71    1.79
  10   0 -14    2.40    2.42
  10  -1  14    5.24    2.92
  10  -1  13   -1.07    2.35
  10  -1  12    1.10    2.38
  10  -1  11    3.12    1.84
  10  -1  10   33.83    3.81
  10  -1   9    8.68    2.07
  10  -1   8    3.44    2.16
  10  -1   7   38.71    3.65
  10  -1   6   23.71    2.86
  10  -1   6   23.19    1.78
  10  -1   5    8.90    1.24
  10  -1   5   10.88    1.87
  10  -1   4   67.50    3.41
  10  -1   4   65.09    4.17
  10  -1   3   32.35    2.95
  10  -1   3   31.05    2.10
  10  -1   2  153.83    7.55
  10  -1   2  157.58    6.99
  10  -1   1   27.26    2.29
  10  -1   1   32.42    2.79
  10  -1   0    0.81    1.29
  10  -1   0    2.02    1.22
  10  -1  -1   31.92    2.82
  10  -1  -1   24.56    2.28
  10  -1  -2  157.12    7.29
  10  -1  -2  156.83    7.50
  10  -1  -3   31.18    2.48
  10  -1  -3   28.83    2.37
  10  -1  -5    7.65    1.76
  10  -1  -5    6.44    1.43
 -10   1   5    9.05    1.31
  10  -1  -6   30.23    2.91
  10  -1  -6   31.21    2.84
 -10   1   6   27.25    2.19
  10  -1  -7   34.66    3.23
  10  -1  -7   40.41    3.13
 -10   1   7   37.70    2.63
  10  -1  -8    3.99    1.82
 -10   1   8    6.15    1.60
  10  -1  -9   10.44    2.31
  10  -1 -10   33.83    3.62
  10  -1 -11    2.75    2.17
  10  -1 -12    1.65    1.90
  10  -1 -13    2.43    1.92
  10  -1 -14    7.67    2.36
  10  -2  14   -0.94    2.47
  10  -2  13   -2.38    2.23
  10  -2  12    0.69    2.28
  10  -2  11    4.19    2.41
  10  -2  10   12.95    2.78
  10  -2   9    5.05    2.33
  10  -2   8    4.33    2.15
  10  -2   7   12.34    2.45
  10  -2   6   20.89    2.66
  10  -2   6   19.39    1.47
  10  -2   5   10.45    1.20
  10  -2   5   11.59    2.16
  10  -2   4   61.45    3.05
  10  -2   4   55.41    3.82
  10  -2   3   35.80    2.20
  10  -2   3   39.96    2.99
  10  -2   2   24.28    1.97
  10  -2   2   26.98    2.56
  10  -2   1   12.55    1.87
  10  -2   1   11.42    1.48
  10  -2   0   37.25    2.42
  10  -2   0   40.03    2.90
  10  -2  -1   10.37    1.78
  10  -2  -1   12.56    1.57
  10  -2  -2   29.46    2.63
  10  -2  -2   32.04    2.35
  10  -2  -3   35.37    2.67
  10  -2  -3   40.36    2.86
  10  -2  -4   54.57    3.58
  10  -2  -4   64.47    3.87
  10  -2  -5    8.69    1.80
  10  -2  -5   16.01    1.97
 -10   2   5   11.31    1.21
  10  -2  -6   23.07    2.38
  10  -2  -6   20.99    2.44
 -10   2   6   18.61    1.64
  10  -2  -7   14.08    2.28
  10  -2  -7    8.05    1.69
 -10   2   7   15.73    1.67
  10  -2  -8    4.03    1.78
 -10   2   8    1.41    1.25
  10  -2  -9    4.80    1.93
  10  -2 -10   17.14    2.60
  10  -2 -11    7.28    2.08
  10  -2 -12   -0.92    1.71
  10  -2 -13   -0.84    1.66
  10  -2 -14    1.09    2.22
  10  -3  14   -2.26    2.28
  10  -3  13    4.84    2.64
  10  -3  12    4.39    2.49
  10  -3  11    3.17    2.35
  10  -3  10    2.32    2.10
  10  -3   9    1.39    2.16
  10  -3   8   14.44    2.69
  10  -3   7   65.43    4.46
  10  -3   6    4.73    0.68
  10  -3   6    2.35    1.83
  10  -3   5   34.18    2.80
  10  -3   5   39.31    2.02
  10  -3   4    4.22    0.86
  10  -3   4    5.48    1.72
  10  -3   3   70.76    3.98
  10  -3   3   65.45    3.28
  10  -3   2   19.43    2.11
  10  -3   2   20.69    1.73
  10  -3   1   71.76    3.65
  10  -3   1   73.17    4.21
  10  -3   0  115.37    5.40
  10  -3   0  113.40    5.73
  10  -3  -1   73.78    3.92
  10  -3  -1   72.44    4.18
  10  -3  -2   25.06    2.50
  10  -3  -2   23.08    2.15
  10  -3  -3   64.80    3.81
  10  -3  -3   63.05    3.65
  10  -3  -4    5.45    1.44
  10  -3  -4    7.90    1.65
  10  -3  -5   38.98    2.92
  10  -3  -5   39.63    2.95
 -10   3   5   38.07    2.04
  10  -3  -6    4.32    1.62
  10  -3  -6    2.71    1.63
 -10   3   6    4.71    0.94
  10  -3  -7   62.02    4.12
  10  -3  -7   70.69    4.18
 -10   3   7   62.90    3.33
  10  -3  -8   13.97    2.33
 -10   3   8   14.01    1.69
  10  -3  -9    5.27    1.94
  10  -3 -10    2.64    2.10
  10  -3 -11    7.73    2.12
  10  -3 -12    1.49    2.12
  10  -3 -13    1.33    1.92
  10  -3 -14   -0.61    2.16
  10  -4  14    2.11    2.46
  10  -4  13   10.67    2.92
  10  -4  12    3.34    2.38
  10  -4  11    5.95    2.27
  10  -4  10    0.80    2.09
  10  -4   9    6.38    2.36
  10  -4   8   17.49    2.75
  10  -4   7   89.78    5.14
  10  -4   6   49.71    3.69
  10  -4   5   59.46    2.67
  10  -4   5   58.92    3.94
  10  -4   4    0.93    0.70
  10  -4   4    2.08    1.53
  10  -4   3   27.53    2.58
  10  -4   3   22.01    1.58
  10  -4   2    9.30    1.84
  10  -4   2   11.65    1.31
  10  -4   1  144.19    6.93
  10  -4   1  140.26    6.34
  10  -4   0   67.96    3.94
  10  -4   0   64.12    3.50
  10  -4  -1  133.87    6.21
  10  -4  -1  136.13    6.58
  10  -4  -2    7.37    1.37
  10  -4  -2   10.31    1.71
  10  -4  -3   23.90    2.43
  10  -4  -3   22.94    2.17
  10  -4  -4    2.58    1.28
  10  -4  -4    2.74    1.40
  10  -4  -5   55.60    3.51
  10  -4  -5   58.72    3.62
 -10   4   5   53.65    2.51
  10  -4  -6   48.44    3.22
  10  -4  -6   39.98    3.10
 -10   4   6   38.40    2.20
  10  -4  -7   96.61    5.37
  10  -4  -7   99.08    5.47
 -10   4   7   97.27    4.64
  10  -4  -8   15.16    2.38
 -10   4   8   18.02    1.78
  10  -4  -9    6.78    2.03
  10  -4 -10    1.74    1.73
  10  -4 -11    2.67    1.84
  10  -4 -12    1.31    1.81
  10  -4 -13    9.84    2.73
  10  -4 -14    2.99    2.07
  10  -5  14   12.17    3.10
  10  -5  13    0.73    2.32
  10  -5  12    3.12    2.38
  10  -5  11    5.19    2.34
  10  -5  10    4.62    2.30
  10  -5   9   16.83    2.76
  10  -5   8   62.63    4.42
  10  -5   7    8.58    2.18
  10  -5   6  272.67   12.46
  10  -5   5   49.00    3.47
 -10   5  -5   46.83    2.08
  10  -5   4    0.03    1.45
  10  -5   4    1.07    0.64
  10  -5   3   84.60    4.70
  10  -5   3   83.37    3.84
  10  -5   2  132.31    6.57
  10  -5   2  133.09    5.86
  10  -5   1   56.34    3.50
  10  -5   1   53.07    2.90
  10  -5   0  229.06   10.02
  10  -5   0  242.19   10.68
  10  -5  -1   52.13    3.26
  10  -5  -1   49.59    2.86
  10  -5  -1   48.28    2.23
  10  -5  -2  126.21    6.53
  10  -5  -2  138.04    6.20
  10  -5  -3   88.43    4.44
  10  -5  -3   80.20    4.64
  10  -5  -4    1.57    1.22
  10  -5  -4    0.33    1.27
  10  -5  -5   46.92    3.19
  10  -5  -5   51.26    3.33
 -10   5   5   46.37    2.14
  10  -5  -6  242.78   11.57
  10  -5  -6  272.66   11.95
 -10   5   6  265.02   11.14
  10  -5  -7   14.33    2.24
  10  -5  -7    9.73    2.06
  10  -5  -8   58.65    4.00
  10  -5  -9   10.74    2.22
  10  -5 -10    4.95    1.96
  10  -5 -11    6.44    2.06
  10  -5 -12    4.40    2.04
  10  -5 -13    1.64    1.94
  10  -5 -14   14.84    2.81
  10  -6  14    3.90    3.05
  10  -6  13   11.29    2.91
  10  -6  12    3.80    2.34
  10  -6  11    2.41    2.08
  10  -6  10    2.15    2.03
  10  -6   9    7.04    2.28
  10  -6   8   15.64    2.58
  10  -6   7   90.83    5.14
  10  -6   6   43.43    3.49
  10  -6   5   57.44    3.82
  10  -6   4    1.23    1.53
 -10   6  -4    1.78    0.68
  10  -6   3   21.55    2.38
 -10   6  -3   24.65    1.57
  10  -6   2   10.10    1.80
  10  -6   2    7.98    1.21
  10  -6   1  135.20    6.64
  10  -6   1  138.24    6.05
  10  -6   1  131.73    6.10
  10  -6   0   62.31    3.70
  10  -6   0   61.73    3.28
  10  -6   0   57.44    2.90
  10  -6  -1  128.13    6.43
  10  -6  -1  128.08    5.68
  10  -6  -1  136.42    6.05
  10  -6  -2    8.14    1.46
  10  -6  -2   13.89    1.87
  10  -6  -3   25.50    2.28
  10  -6  -3   27.75    2.65
  10  -6  -4    2.32    1.33
  10  -6  -4    1.14    1.19
  10  -6  -5   58.98    3.73
  10  -6  -5   63.94    3.94
  10  -6  -6   40.23    3.17
  10  -6  -6   38.50    3.11
  10  -6  -7  103.63    5.77
  10  -6  -8   17.94    2.49
  10  -6  -9    8.19    2.13
  10  -6 -10   -1.51    1.61
  10  -6 -11    0.30    1.79
  10  -6 -12   -1.98    1.64
  10  -6 -13    8.78    2.67
 -10   6  13   11.04    3.05
 -10   6  14    0.66    2.08
  10  -7  14   -2.37    2.70
  10  -7  13    2.51    2.36
  10  -7  12    1.88    2.21
  10  -7  11    3.13    2.19
  10  -7  10    1.32    1.95
  10  -7   9    4.47    2.13
  10  -7   8    4.69    2.08
  10  -7   7   60.48    4.16
  10  -7   6    5.16    1.91
  10  -7   5   42.08    3.11
 -10   7  -5   31.65    1.65
  10  -7   4    5.75    1.73
 -10   7  -4    4.74    0.85
  10  -7   3   58.60    3.87
 -10   7  -3   67.88    3.16
  10  -7   2   20.59    2.27
  10  -7   2   21.50    1.72
 -10   7  -2   19.26    1.64
  10  -7   1   79.18    4.29
  10  -7   1   72.24    3.64
 -10   7  -1   72.62    3.67
  10  -7   0  104.96    5.06
  10  -7   0  110.37    5.55
  10  -7   0  109.28    4.96
  10  -7  -1   75.26    4.16
  10  -7  -1   73.24    3.48
  10  -7  -1   65.27    3.70
  10  -7  -2   20.54    1.97
  10  -7  -2   18.08    2.18
  10  -7  -3   71.28    3.90
  10  -7  -3   67.93    4.13
  10  -7  -4    6.18    1.61
  10  -7  -4    5.07    1.48
  10  -7  -5   42.69    3.16
  10  -7  -5   36.34    2.91
  10  -7  -6    5.36    1.72
  10  -7  -6    4.96    1.71
  10  -7  -7   62.47    4.10
  10  -7  -8   11.42    2.25
  10  -7  -9    1.32    1.73
  10  -7 -10    2.86    2.17
  10  -7 -11    4.14    1.92
 -10   7  11    4.02    2.22
 -10   7  12    7.91    2.46
 -10   7  13    5.27    2.31
 -10   7  14   -1.32    2.46
  10  -8  14    0.49    2.29
  10  -8  13   -3.68    1.96
  10  -8  12   -2.82    1.90
  10  -8  11    4.32    2.18
  10  -8  10   17.34    3.05
  10  -8   9    2.46    2.03
  10  -8   8    2.63    1.91
  10  -8   7   11.48    2.23
  10  -8   6   22.31    2.65
  10  -8   5   11.05    2.06
 -10   8  -5    9.87    1.02
  10  -8   4   53.87    3.51
  10  -8   4   52.66    3.64
 -10   8  -4   59.92    2.88
  10  -8   3   39.47    2.97
 -10   8  -3   37.07    2.24
  10  -8   2   29.82    2.63
  10  -8   2   25.24    2.10
 -10   8  -2   21.71    1.72
  10  -8   1   10.41    1.33
  10  -8   1   13.60    1.91
 -10   8  -1    9.74    1.34
  10  -8   0   36.64    2.10
  10  -8   0   40.06    2.73
 -10   8   0   23.89    1.92
  10  -8  -1   10.87    1.62
  10  -8  -1   11.94    1.41
 -10   8   1   14.27    1.63
  10  -8  -2   22.18    2.40
 -10   8   2   27.78    2.19
  10  -8  -3   33.30    2.99
 -10   8   3   37.72    2.70
  10  -8  -4   53.52    3.54
  10  -8  -4   51.83    3.33
 -10   8   4   54.47    3.47
  10  -8  -5    9.81    1.83
  10  -8  -5    8.89    1.88
 -10   8   5    9.34    1.92
  10  -8  -6   17.98    2.27
  10  -8  -6   19.15    2.36
 -10   8   6   19.14    2.46
 -10   8   7   13.75    2.37
 -10   8   8    0.84    1.81
 -10   8   9    3.11    2.03
 -10   8  10   13.85    2.65
 -10   8  11    7.58    2.70
 -10   8  12    4.21    2.28
 -10   8  13   -1.31    2.00
 -10   8  14   -1.03    2.07
  10  -9  14    3.67    2.35
  10  -9  14    3.39    2.40
  10  -9  13   -0.14    2.13
  10  -9  12    0.75    2.50
  10  -9  11    4.29    2.51
  10  -9  10   30.65    3.60
  10  -9   9   12.24    2.36
  10  -9   8    0.09    1.76
  10  -9   8    2.83    1.95
  10  -9   7   38.77    3.46
  10  -9   7   37.99    3.38
  10  -9   6   22.96    2.58
  10  -9   6   25.87    2.79
  10  -9   5    8.76    1.94
  10  -9   5    6.29    1.65
 -10   9  -5    9.37    1.21
  10  -9   4   71.34    4.07
  10  -9   4   74.31    4.28
 -10   9  -4   67.53    3.50
  10  -9   3   32.86    2.88
 -10   9  -3   32.78    2.21
  10  -9   2  158.39    7.46
  10  -9   2  168.22    7.73
 -10   9  -2  155.55    7.12
  10  -9   1   19.93    2.23
  10  -9   1   27.44    2.11
 -10   9  -1   24.31    1.95
  10  -9   0   -0.71    1.22
  10  -9   0   -0.95    0.86
 -10   9   0   -0.45    0.86
  10  -9  -1   22.83    2.08
  10  -9  -1   26.38    2.44
 -10   9   1   26.60    2.23
  10  -9  -2  145.45    7.39
 -10   9   2  163.47    7.25
  10  -9  -3   33.01    2.89
 -10   9   3   32.92    2.64
  10  -9  -4   68.62    4.22
 -10   9   4   70.19    4.15
  10  -9  -5    8.68    1.90
 -10   9   5    4.92    1.70
  10  -9  -6   26.08    2.76
 -10   9   6   26.80    2.89
 -10   9   7   44.13    3.84
 -10   9   8    2.28    2.01
 -10   9   9   10.47    2.52
 -10   9  10   45.43    4.22
 -10   9  11    2.58    2.08
 -10   9  12    4.59    2.34
 -10   9  13   -0.71    2.10
 -10   9  14    4.50    3.01
  10 -10  14    4.76    2.85
  10 -10  14    1.06    2.66
  10 -10  13    0.16    2.48
  10 -10  13    1.21    2.19
  10 -10  12    0.75    2.03
  10 -10  12    0.91    2.37
  10 -10  11   11.24    2.46
  10 -10  11   15.14    2.77
  10 -10  10    0.23    1.86
  10 -10  10    2.91    1.88
  10 -10   9   21.42    2.80
  10 -10   9   19.72    2.89
  10 -10   8   11.78    2.37
  10 -10   8   14.95    2.40
  10 -10   7   -0.67    1.91
  10 -10   7    0.42    1.71
  10 -10   6   11.91    2.40
  10 -10   6   12.50    2.14
 -10  10  -6   12.71    1.28
  10 -10   5   36.89    3.11
  10 -10   5   31.30    2.95
 -10  10  -5   27.29    2.13
  10 -10   4    6.84    1.74
  10 -10   4    5.26    1.74
 -10  10  -4    0.71    1.10
  10 -10   3  152.67    7.51
  10 -10   3  152.14    7.41
 -10  10  -3  159.76    7.04
  10 -10   2    6.62    1.42
  10 -10   2    6.80    1.65
 -10  10  -2    7.48    1.44
  10 -10   1   11.24    1.80
  10 -10   1   12.81    1.66
 -10  10  -1   10.49    1.57
  10 -10   0   25.15    2.28
  10 -10   0   23.74    2.41
 -10  10   0   26.93    2.35
  10 -10  -1   12.58    1.90
  10 -10  -1    9.99    1.67
 -10  10   1   12.10    1.64
  10 -10  -2    3.95    1.39
  10 -10  -2    8.55    1.76
 -10  10   2    9.19    1.81
  10 -10  -3  153.99    7.75
 -10  10   3  165.20    7.70
  10 -10  -4    8.06    1.77
 -10  10   4    1.36    1.52
  10 -10  -5   35.40    3.16
 -10  10   5   28.44    2.91
 -10  10   6   10.35    2.20
 -10  10   7   -1.67    1.64
 -10  10   8   14.58    2.61
 -10  10   9   22.84    3.09
 -10  10  10   -1.93    1.85
 -10  10  11   11.66    2.75
 -10  10  12    0.80    2.11
 -10  10  13    4.11    2.41
 -10  10  14    0.48    2.34
  10 -11  14    3.13    2.43
  10 -11  13    3.34    2.36
  10 -11  13    0.75    2.02
  10 -11  12   -1.77    1.83
  10 -11  12    8.13    2.46
  10 -11  11    3.17    2.15
  10 -11  11    1.81    2.34
  10 -11  10    9.46    2.66
  10 -11  10    6.27    2.15
  10 -11   9    5.86    2.37
  10 -11   9    5.35    2.18
  10 -11   8    3.97    1.94
  10 -11   8    4.09    2.09
  10 -11   7    4.89    2.26
  10 -11   7    3.91    2.15
  10 -11   6   15.39    2.43
  10 -11   6   13.86    2.27
 -10  11  -6   15.01    1.56
  10 -11   5    5.49    2.15
  10 -11   5   10.66    2.02
 -10  11  -5   10.21    1.56
  10 -11   4   71.04    4.29
  10 -11   4   72.34    4.29
 -10  11  -4   70.18    3.90
  10 -11   3   39.34    3.10
  10 -11   3   38.59    3.00
 -10  11  -3   37.87    2.67
  10 -11   2    3.46    1.48
  10 -11   2    0.17    0.76
 -10  11  -2    5.14    1.44
  10 -11   1    6.75    1.63
  10 -11   1    7.61    1.69
  10 -11   0    0.25    1.40
  10 -11   0   -0.11    1.27
 -10  11   0    3.48    1.50
  10 -11  -1    7.35    1.75
  10 -11  -1    9.44    1.80
 -10  11   1    8.53    1.78
  10 -11  -2    5.31    1.60
  10 -11  -2    5.02    1.65
 -10  11   2    2.41    1.37
  10 -11  -3   40.39    3.08
 -10  11   3   35.93    2.95
  10 -11  -4   71.96    4.38
 -10  11   4   69.00    4.29
  10 -11  -5   11.45    2.18
 -10  11   5   14.03    2.26
 -10  11   6   12.75    2.34
 -10  11   7    4.55    2.02
 -10  11   8    1.52    1.94
 -10  11   9    9.78    2.79
 -10  11  10   10.16    2.55
 -10  11  11    6.01    2.77
 -10  11  12    4.13    2.40
 -10  11  13    3.19    2.46
 -10  11  14   -0.92    2.18
  10 -12  13    2.63    2.38
  10 -12  12    2.37    2.22
  10 -12  12   -3.47    1.61
  10 -12  11    6.18    2.37
  10 -12  11    6.21    2.09
  10 -12  10    4.75    2.21
  10 -12  10    4.23    1.94
  10 -12   9    3.10    2.09
  10 -12   9   -0.56    1.89
  10 -12   8    1.23    1.95
  10 -12   8    2.35    2.09
  10 -12   7    1.50    1.69
  10 -12   7    2.22    2.01
  10 -12   6    1.43    1.94
  10 -12   6   -0.54    1.72
 -10  12  -6   -0.88    1.09
  10 -12   5   13.98    2.24
  10 -12   5    8.75    1.97
 -10  12  -5   10.14    1.76
  10 -12   4   16.41    2.44
  10 -12   4   11.29    1.99
 -10  12  -4    9.30    1.77
  10 -12   3   35.19    2.93
  10 -12   3   33.30    2.91
 -10  12  -3   32.67    2.85
  10 -12   2    2.15    1.42
  10 -12   2    4.67    1.81
 -10  12  -2    3.58    1.53
  10 -12   1   -0.44    0.77
  10 -12   1    2.99    1.46
 -10  12  -1    1.86    1.33
  10 -12   0    0.93    1.37
  10 -12   0    0.44    1.39
 -10  12   0   -0.31    1.23
  10 -12  -1    0.05    1.34
  10 -12  -1    0.74    1.67
 -10  12   1    1.43    1.37
  10 -12  -2    4.00    1.91
  10 -12  -2    5.42    1.67
 -10  12   2    6.05    1.70
  10 -12  -3   34.28    3.12
 -10  12   3   36.49    3.13
  10 -12  -4    8.87    1.99
 -10  12   4    9.05    2.25
  10 -12  -5   10.06    2.20
 -10  12   5   13.80    2.31
 -10  12   6    1.24    1.82
 -10  12   7    1.70    1.94
 -10  12   8   -2.84    1.73
 -10  12   9    4.18    2.18
 -10  12  10    4.60    2.27
 -10  12  11    3.00    2.23
 -10  12  12    0.56    2.13
 -10  12  13   -2.82    2.51
  10 -13  13    0.54    2.44
  10 -13  12    1.05    2.27
  10 -13  11    5.24    2.40
  10 -13  11    3.89    2.28
  10 -13  10   10.99    2.51
  10 -13  10   14.07    2.89
  10 -13   9    1.35    2.00
  10 -13   9   -1.03    2.29
  10 -13   8    1.88    1.94
  10 -13   8    1.64    2.31
  10 -13   7   14.05    2.83
  10 -13   7   14.36    2.29
  10 -13   6    9.03    2.27
  10 -13   6    8.62    1.95
 -10  13  -6    7.47    1.71
  10 -13   5    0.69    2.13
  10 -13   5   -0.67    1.74
 -10  13  -5    0.73    1.52
  10 -13   4   14.87    2.35
  10 -13   4   12.68    1.98
 -10  13  -4   10.38    2.09
  10 -13   3    9.07    2.30
  10 -13   3    7.35    1.78
 -10  13  -3   12.24    2.07
  10 -13   2   60.59    4.14
  10 -13   2   60.48    3.78
 -10  13  -2   53.98    3.67
  10 -13   1    2.03    1.47
  10 -13   1    3.16    2.04
 -10  13  -1    3.97    1.80
  10 -13   0    0.97    1.35
  10 -13   0    2.50    1.53
 -10  13   0    1.26    1.78
  10 -13  -1   -0.91    1.56
  10 -13  -1    1.00    1.45
 -10  13   1    1.64    1.50
  10 -13  -2   62.06    4.44
  10 -13  -2   60.62    4.01
 -10  13   2   64.93    4.26
  10 -13  -3    8.21    1.92
 -10  13   3   12.75    2.46
  10 -13  -4   13.70    2.32
 -10  13   4   17.71    2.73
 -10  13   5    1.12    1.88
 -10  13   6    7.99    2.23
 -10  13   7    9.54    2.44
 -10  13   8    1.67    1.93
 -10  13   9   -4.10    1.70
 -10  13  10   12.76    2.75
 -10  13  11    1.07    2.62
 -10  13  12    0.29    2.65
 -10  13  13   -0.16    2.36
  10 -14  12    1.64    2.34
  10 -14  11    9.61    3.01
  10 -14  10   10.37    2.67
  10 -14   9   12.53    2.42
  10 -14   9   13.41    2.74
  10 -14   8   -0.56    1.80
  10 -14   8    0.74    1.90
  10 -14   7    7.78    2.31
  10 -14   7   12.11    2.30
  10 -14   6    3.97    1.91
  10 -14   6   -1.37    1.90
 -10  14  -6   -0.11    1.44
  10 -14   5   22.86    2.71
  10 -14   5   23.80    3.27
 -10  14  -5   20.05    2.59
  10 -14   4   36.60    3.26
  10 -14   4   38.38    3.54
 -10  14  -4   34.56    3.25
  10 -14   3   27.44    3.02
  10 -14   3   24.74    2.57
 -10  14  -3   27.99    2.91
  10 -14   2   12.02    2.67
  10 -14   2   15.16    2.14
  10 -14   1   38.26    3.28
  10 -14   1   48.91    4.07
 -10  14  -1   39.32    3.51
  10 -14   0   -0.68    1.65
  10 -14   0   -2.36    1.59
 -10  14   0    1.55    1.67
  10 -14  -1   40.76    3.23
 -10  14   1   43.98    3.42
  10 -14  -2    8.23    1.88
  10 -14  -2   12.84    2.47
 -10  14   2   14.74    2.36
  10 -14  -3   25.41    2.79
 -10  14   3   22.85    2.81
  10 -14  -4   34.14    3.32
 -10  14   4   32.01    3.32
 -10  14   5   18.70    2.76
 -10  14   6    2.80    2.03
 -10  14   7    4.78    2.17
 -10  14   8   -0.17    2.39
 -10  14   9   10.51    2.63
 -10  14  10    8.86    2.68
 -10  14  11    5.30    2.56
 -10  14  12    1.29    2.47
  10 -15  12    1.57    2.38
  10 -15  11    3.07    2.42
  10 -15  10   -0.91    2.08
  10 -15   9   10.47    2.64
  10 -15   8    4.41    1.92
  10 -15   8    1.82    2.12
  10 -15   7   -0.17    2.37
  10 -15   7   -2.22    1.55
  10 -15   6    3.72    1.81
  10 -15   6    5.11    2.24
 -10  15  -6    5.10    1.65
  10 -15   5   10.50    2.52
  10 -15   5   11.62    2.21
 -10  15  -5   11.78    2.20
  10 -15   4   -1.33    1.38
  10 -15   4    1.82    2.04
 -10  15  -4   -1.86    1.77
  10 -15   3   38.72    3.75
  10 -15   3   40.67    3.41
 -10  15  -3   41.04    3.64
  10 -15   2   -0.18    2.03
  10 -15   2    2.13    1.86
 -10  15  -2   -0.90    1.64
  10 -15   1    3.61    1.63
  10 -15   1    5.18    2.27
 -10  15  -1    8.23    2.06
  10 -15   0   36.67    3.94
  10 -15   0   31.15    3.01
 -10  15   0   39.90    3.70
  10 -15  -1    7.60    1.92
  10 -15  -1    7.64    2.43
 -10  15   1   10.36    2.26
  10 -15  -2    2.60    1.66
 -10  15   2    2.97    1.96
  10 -15  -3   35.92    3.44
 -10  15   3   40.14    3.73
 -10  15   4    0.87    1.93
 -10  15   5    9.59    2.72
 -10  15   6    8.22    2.34
 -10  15   7    0.54    1.97
 -10  15   8    1.36    2.14
 -10  15   9    6.02    2.48
 -10  15  10    3.10    2.36
 -10  15  11    6.79    2.72
 -10  15  12   -3.14    2.13
  10 -16  11    2.09    2.79
  10 -16  10   -0.50    2.25
  10 -16   9    5.36    2.52
  10 -16   8   -1.74    2.14
  10 -16   7    1.86    2.58
  10 -16   6    1.67    1.60
  10 -16   6    0.11    2.01
 -10  16  -6    1.10    1.64
  10 -16   5    5.97    1.83
  10 -16   5    2.61    2.17
 -10  16  -5    2.01    1.76
  10 -16   4    0.65    2.03
  10 -16   4    3.71    1.80
 -10  16  -4    2.33    1.98
  10 -16   3   19.62    2.53
  10 -16   3   16.51    2.96
  10 -16   2   11.27    3.09
  10 -16   2   14.52    2.36
 -10  16  -2   17.83    2.87
  10 -16   1   12.45    2.04
  10 -16   1    7.88    2.54
 -10  16  -1   12.69    2.70
  10 -16   0   -2.57    2.48
  10 -16   0    0.65    1.54
 -10  16   0   -1.67    2.07
  10 -16  -1    5.91    2.53
  10 -16  -1   12.82    2.35
 -10  16   1    9.92    2.30
  10 -16  -2   14.56    2.36
 -10  16   2   17.46    2.72
 -10  16   3   14.27    2.73
 -10  16   4    1.28    2.03
 -10  16   5    2.91    2.12
 -10  16   6    2.62    2.14
 -10  16   7    3.44    2.19
 -10  16   8   -3.19    2.32
 -10  16   9    4.19    2.39
 -10  16  10    3.39    2.47
 -10  16  11   -0.78    2.29
  10 -17  11    1.96    2.56
  10 -17  10    1.21    2.47
  10 -17   9   -0.01    2.28
  10 -17   8    3.03    2.41
  10 -17   7   -1.80    2.06
  10 -17   6    9.17    2.65
 -10  17  -6   10.90    2.22
  10 -17   5   -3.12    1.92
  10 -17   5   -0.43    1.45
 -10  17  -5   -0.16    1.91
  10 -17   4   -0.24    1.51
  10 -17   4    2.00    2.24
 -10  17  -4   -0.69    1.49
  10 -17   3    1.58    2.28
  10 -17   3    0.14    1.61
 -10  17  -3    1.48    1.77
  10 -17   2    0.88    1.40
  10 -17   2   -2.73    2.01
 -10  17  -2    0.66    1.80
  10 -17   1   -0.79    1.39
  10 -17   1    5.07    2.49
 -10  17  -1   -0.94    2.26
  10 -17   0    6.89    2.04
  10 -17   0    2.90    2.89
 -10  17   0    9.46    2.42
  10 -17  -1    2.55    2.34
  10 -17  -1    1.48    1.60
 -10  17   1    0.02    1.92
 -10  17   2    0.27    1.94
 -10  17   3   -0.44    1.91
 -10  17   4    0.29    2.07
 -10  17   5    0.28    2.01
 -10  17   6    7.65    2.49
 -10  17   7    3.17    2.25
 -10  17   8    1.61    2.28
 -10  17   9    3.18    2.45
 -10  17  10    1.09    2.35
 -10  17  11   -0.15    2.37
  10 -18  10   -1.34    2.30
  10 -18   9    0.59    2.43
  10 -18   8    1.68    2.41
  10 -18   7   12.37    2.96
  10 -18   6    1.60    2.81
 -10  18  -6    0.73    1.86
  10 -18   5    1.45    2.36
 -10  18  -5    4.05    2.06
  10 -18   4    2.43    2.42
 -10  18  -4    1.13    0.69
  10 -18   3    3.83    1.74
  10 -18   3    4.02    2.88
 -10  18  -3    6.88    2.37
  10 -18   2    2.78    1.75
  10 -18   2    0.42    2.25
 -10  18  -2    3.87    2.04
  10 -18   1   12.26    2.02
  10 -18   1   10.89    2.89
 -10  18  -1   16.85    2.75
  10 -18   0    5.13    2.63
  10 -18   0    6.25    1.82
 -10  18   0    7.06    2.65
  10 -18  -1   19.23    3.58
 -10  18   1   13.44    2.69
 -10  18   2    1.09    2.41
 -10  18   3    1.19    2.04
 -10  18   4    1.29    2.06
 -10  18   5    5.83    2.52
 -10  18   6   -1.49    2.08
 -10  18   7   11.71    2.86
 -10  18   8    4.62    2.48
 -10  18   9   -1.27    2.23
 -10  18  10   -4.04    2.65
  10 -19   9   -1.99    2.35
  10 -19   8   -3.66    2.08
  10 -19   7   11.79    3.07
  10 -19   6    2.59    2.61
 -10  19  -6    1.27    2.03
  10 -19   5    0.99    2.51
 -10  19  -5    5.84    2.29
  10 -19   4    3.67    3.08
 -10  19  -4    1.29    1.89
  10 -19   3    5.03    3.10
 -10  19  -3   -0.96    2.22
  10 -19   2    1.76    2.78
  10 -19   2    2.89    1.74
 -10  19  -2    2.92    2.11
  10 -19   1    8.46    1.93
  10 -19   1   12.58    3.01
 -10  19  -1    8.42    2.49
  10 -19   0    5.23    3.10
 -10  19   0    5.85    2.40
  10 -19  -1   11.25    3.39
 -10  19   1   10.99    2.67
 -10  19   2    0.42    2.53
 -10  19   3    2.18    2.24
 -10  19   4    2.42    2.27
 -10  19   5    2.33    2.16
 -10  19   6    1.04    2.67
 -10  19   7    8.53    2.76
 -10  19   8   -2.16    2.64
 -10  19   9   -3.44    2.30
  10 -20   8    3.45    2.82
  10 -20   7    2.40    2.78
  10 -20   6    8.02    3.14
  10 -20   5   -0.76    3.02
 -10  20  -5    1.41    0.75
  10 -20   4    0.31    2.96
 -10  20  -4   -5.34    1.85
  10 -20   3   -1.14    2.87
 -10  20  -3    0.25    2.39
  10 -20   2    2.08    2.63
 -10  20  -2    4.49    2.60
  10 -20   1   -0.42    2.41
 -10  20  -1    0.06    2.06
  10 -20   0    8.51    2.92
 -10  20   0    2.85    2.24
 -10  20   1   -3.03    2.50
 -10  20   2    2.64    2.34
 -10  20   3    5.20    2.83
 -10  20   4   -2.72    2.01
 -10  20   5   -1.88    2.12
 -10  20   6   10.94    2.92
 -10  20   7   -1.92    2.15
 -10  20   8   -1.14    2.28
  10 -21   7   -2.08    3.28
  10 -21   6   -3.74    2.48
  10 -21   5    4.48    3.49
 -10  21  -5    2.60    2.25
  10 -21   4   -2.67    2.98
 -10  21  -4    3.05    2.45
  10 -21   3    0.22    2.60
 -10  21  -3   -0.97    2.47
  10 -21   2   -0.18    2.60
 -10  21  -2    1.87    2.66
  10 -21   1    1.24    2.58
 -10  21  -1    0.08    2.59
  10 -21   0    0.95    2.62
 -10  21   0    0.18    2.21
 -10  21   1    2.56    2.79
 -10  21   2   -1.48    2.65
 -10  21   3   -3.18    2.20
 -10  21   4    3.19    2.59
 -10  21   5   -0.76    2.33
 -10  21   6    3.20    2.54
 -10  21   7    1.55    2.37
  10 -22   5    1.39    3.21
 -10  22  -5    2.36    2.49
  10 -22   4   -1.77    2.59
 -10  22  -4    0.30    1.96
  10 -22   3   -1.49    3.14
 -10  22  -3    2.70    2.28
  10 -22   2   -0.50    3.16
 -10  22  -2   -3.78    2.31
  10 -22   1   -1.98    2.54
 -10  22  -1   -2.74    2.05
  10 -22   0    3.48    3.33
 -10  22   0    0.85    2.36
 -10  22   1    1.94    2.85
 -10  22   2   -3.42    2.70
 -10  22   3    0.95    2.51
 -10  22   4    1.68    3.08
 -10  22   5    1.33    2.66
  10 -23   2    2.41    2.82
 -10  23  -2   -1.79    2.50
  10 -23   1    2.90    2.86
 -10  23  -1    3.03    2.53
 -10  23   0    1.83    2.84
 -10  23   1    1.14    2.46
 -10  23   2   -0.05    2.89
  11  12   2    0.75    2.28
  11  12   1    3.61    2.83
  11  12   0   -0.33    2.19
  11  12  -1    0.93    2.24
  11  12  -2   -1.15    1.96
  11  11   5    4.69    2.66
  11  11   4   -1.11    1.92
  11  11   3    0.39    2.48
  11  11   2    2.42    2.22
  11  11   1    6.02    2.71
  11  11   0    3.59    2.69
  11  11  -1   -3.33    1.81
  11  11  -2    0.38    2.07
  11  11  -3   -1.34    1.95
  11  11  -4    3.66    2.61
  11  11  -5    0.17    1.99
  11  10   7    2.03    2.35
  11  10   7    2.80    2.88
  11  10   6   -0.98    2.45
  11  10   6    0.44    2.34
  11  10   5    0.91    1.95
  11  10   5   -1.27    0.84
  11  10   4    1.56    2.07
  11  10   3   -1.39    1.84
  11  10   2   -0.29    1.94
  11  10   1    0.19    1.99
  11  10   0   -0.90    1.99
  11  10  -1    0.23    1.96
  11  10  -2   -2.39    1.79
  11  10  -3    2.53    2.13
  11  10  -4    1.50    2.54
  11  10  -5    0.44    2.00
  11  10  -6    1.77    2.06
  11  10  -7   -1.13    1.89
  11   9   8   -1.90    2.22
  11   9   7    2.51    1.99
  11   9   7    4.20    2.86
  11   9   6    2.01    2.20
  11   9   6    2.44    2.30
  11   9   5    0.69    2.33
  11   9   5   -0.72    1.78
  11   9   4   -0.28    1.95
  11   9   4   -0.04    1.83
  11   9   3   -3.16    1.91
  11   9   3   -0.78    2.18
  11   9   2    2.80    2.38
  11   9   1    6.61    2.49
  11   9   0   -0.83    1.87
  11   9  -1    1.97    1.97
  11   9  -2    0.79    1.93
  11   9  -3   -1.76    1.84
  11   9  -4   -0.63    1.90
  11   9  -5    0.80    1.98
  11   9  -6    4.25    2.16
  11   9  -7    2.43    2.24
  11   9  -8    3.58    2.36
  11   8   9    1.15    2.49
  11   8   8    0.25    2.38
  11   8   7    2.01    1.85
  11   8   7    0.74    2.20
  11   8   6    4.87    2.75
  11   8   6    5.10    2.27
  11   8   5   -3.23    1.76
  11   8   5    0.98    2.13
  11   8   4    2.29    2.14
  11   8   4   -2.46    1.58
  11   8   3   -0.60    1.95
  11   8   3    0.72    2.10
  11   8   2    2.14    1.98
  11   8   2   -1.29    1.70
  11   8   1    3.93    2.41
  11   8   0   14.67    2.71
  11   8  -1   -1.72    1.72
  11   8  -2   -1.30    2.05
  11   8  -3    0.75    1.80
  11   8  -4   -0.38    1.81
  11   8  -5   -2.87    1.59
  11   8  -6    9.34    2.82
 -11  -8   6    7.38    2.64
  11   8  -7    1.21    2.00
  11   8  -8    3.25    2.63
  11   8  -9   -2.03    1.86
  11   7  10   -0.89    2.49
  11   7   9    1.75    2.47
  11   7   8   -3.10    2.55
  11   7   7    4.37    2.12
  11   7   7    4.45    2.45
  11   7   6    5.06    1.92
  11   7   6    2.47    2.11
  11   7   5   -0.68    2.26
  11   7   5    0.70    1.69
  11   7   4    0.09    2.00
  11   7   4    2.74    1.88
  11   7   3   -0.96    1.21
  11   7   3   -0.92    1.95
  11   7   2    2.09    1.68
  11   7   2   -0.08    2.01
  11   7   1    2.69    1.90
  11   7   1    4.62    2.01
  11   7   0    3.52    1.88
  11   7   0   -0.68    1.74
  11   7  -1    5.63    2.31
  11   7  -2    1.86    1.84
  11   7  -3    4.97    2.09
  11   7  -4    0.11    1.75
  11   7  -5    2.15    2.17
  11   7  -6    3.52    2.09
 -11  -7   6    5.47    2.38
  11   7  -7    4.52    2.52
  11   7  -8    1.11    2.04
  11   7  -9   -1.48    1.84
  11   7 -10    2.46    2.44
  11   6  11   -0.68    2.63
  11   6  10    1.24    2.54
  11   6   9   -0.76    2.26
  11   6   8    2.43    2.35
  11   6   7    3.68    1.94
  11   6   7    3.97    2.26
  11   6   6    0.51    1.98
  11   6   6    3.89    1.89
  11   6   5   -2.67    1.73
  11   6   5    2.99    1.95
  11   6   4    1.25    1.61
  11   6   4    1.38    1.84
  11   6   3    4.79    2.16
  11   6   3    6.73    1.98
  11   6   2    2.72    2.07
  11   6   2   -1.24    1.53
  11   6   1   -3.13    1.57
  11   6   1   -0.74    1.80
  11   6   0   -0.94    1.60
  11   6   0   -2.32    1.61
  11   6  -1    0.90    1.76
  11   6  -1   -1.65    1.56
  11   6  -2    0.37    1.79
  11   6  -3    4.64    1.89
  11   6  -4    4.58    1.98
  11   6  -5    1.06    1.76
  11   6  -6    4.01    1.99
 -11  -6   6    1.23    2.10
  11   6  -7    2.12    2.00
  11   6  -8   -1.33    1.79
  11   6  -9    2.90    2.06
  11   6 -10    0.91    2.01
  11   6 -11    0.59    2.43
  11   5  11   -0.45    2.48
  11   5  10    3.01    2.62
  11   5   9    1.04    2.48
  11   5   8    3.79    2.40
  11   5   7   -0.71    1.56
  11   5   7   -2.94    1.83
  11   5   6    2.70    1.77
  11   5   6   -0.32    1.87
  11   5   5    3.85    1.91
  11   5   5    1.79    1.90
  11   5   4   16.96    2.52
  11   5   4   15.44    2.88
  11   5   3    5.59    2.11
  11   5   3    7.46    2.14
  11   5   2    3.36    1.85
  11   5   2    0.41    0.67
  11   5   1    2.88    1.79
  11   5   1   -0.68    1.89
  11   5   0   -0.79    1.57
  11   5   0   -0.37    1.82
  11   5  -1   -1.48    1.66
  11   5  -1    0.29    1.70
  11   5  -2    7.05    2.19
  11   5  -2    5.29    1.77
  11   5  -3    3.19    1.93
  11   5  -4    9.15    2.24
  11   5  -5    1.20    1.78
 -11  -5   5    4.49    2.02
  11   5  -6    4.61    2.07
 -11  -5   6    2.49    2.01
  11   5  -7   -0.81    1.76
  11   5  -8   -1.51    1.72
  11   5  -9    3.08    2.35
  11   5 -10    9.55    2.56
  11   5 -11    0.43    1.93
  11   4  12    5.69    2.78
  11   4  11    3.33    2.71
  11   4  10    0.86    2.47
  11   4   9    1.86    2.32
  11   4   8    8.14    2.60
  11   4   7    2.06    1.61
  11   4   7    4.72    2.28
  11   4   6    0.32    2.35
  11   4   6    0.72    1.59
  11   4   5    3.52    1.79
  11   4   5    0.74    1.92
  11   4   4   36.73    3.54
  11   4   4   35.11    3.19
  11   4   3    6.66    2.10
  11   4   2    0.19    1.56
  11   4   2    0.56    2.01
  11   4   1    5.88    1.89
  11   4   1    3.23    1.90
  11   4   0   31.51    3.18
  11   4   0   25.83    2.81
  11   4  -1    6.24    2.04
  11   4  -1    5.30    1.95
  11   4  -2   -1.79    1.66
  11   4  -2    0.38    1.74
  11   4  -3   12.68    1.99
  11   4  -3    8.35    2.22
  11   4  -4   38.09    3.61
  11   4  -4   38.77    3.06
  11   4  -5    1.63    1.75
 -11  -4   5    1.65    1.82
  11   4  -6    0.95    1.75
 -11  -4   6    0.90    1.80
  11   4  -7    2.07    1.91
  11   4  -8    6.22    2.17
  11   4  -9    2.96    1.95
  11   4 -10    2.42    1.97
  11   4 -11    1.09    1.92
  11   4 -12    4.62    2.61
  11   3  12   -1.18    2.51
  11   3  11    6.91    2.90
  11   3  10   -1.64    2.34
  11   3   9    7.16    2.64
  11   3   8    7.19    2.53
  11   3   7    0.82    1.40
  11   3   7    0.83    2.04
  11   3   6    2.35    2.11
  11   3   6    6.56    1.88
  11   3   5    9.86    2.39
  11   3   5    9.92    1.93
  11   3   4    2.77    2.36
  11   3   4    0.08    1.34
  11   3   3   19.08    2.49
  11   3   3   14.38    2.46
  11   3   2   -2.84    1.54
  11   3   2    0.21    1.67
  11   3   1    3.27    1.50
  11   3   1    3.23    1.82
  11   3   0   45.66    3.41
  11   3   0   44.36    3.36
  11   3  -1   -1.06    1.62
  11   3  -1    5.12    1.75
  11   3  -2    0.65    1.55
  11   3  -2   -0.10    1.53
  11   3  -3   12.37    2.20
  11   3  -3   13.29    2.29
  11   3  -4    2.85    1.79
  11   3  -4    3.09    1.67
  11   3  -5   10.77    1.97
  11   3  -5   12.92    2.41
 -11  -3   5   12.81    2.28
  11   3  -6    2.61    1.85
 -11  -3   6    7.06    2.17
  11   3  -7    3.14    1.89
  11   3  -8    3.99    1.98
  11   3  -9    7.72    2.24
  11   3 -10   -0.85    2.12
  11   3 -11    1.50    1.96
  11   3 -12    3.00    2.02
  11   2  13    2.51    2.68
  11   2  12    2.77    2.64
  11   2  11    1.89    2.48
  11   2  10   10.32    2.86
  11   2   9    0.21    2.19
  11   2   8    9.65    2.57
  11   2   7    2.05    2.14
  11   2   6   -1.88    1.92
  11   2   6    2.03    1.53
  11   2   5   -0.01    1.60
  11   2   5    1.89    1.99
  11   2   4    2.76    1.54
  11   2   4    5.05    2.03
  11   2   3    1.78    1.82
  11   2   3    2.03    1.33
  11   2   2   34.37    3.18
  11   2   2   33.27    2.68
  11   2   1    3.53    1.51
  11   2   1    3.87    1.76
  11   2   0   64.07    3.94
  11   2  -1    1.08    1.72
  11   2  -1    3.26    1.65
  11   2  -2   34.86    3.16
  11   2  -2   41.44    3.41
  11   2  -3    3.82    1.74
  11   2  -3   -0.34    1.40
  11   2  -4    2.86    1.57
  11   2  -4    2.50    1.82
  11   2  -5    2.14    1.83
  11   2  -5    2.32    1.51
 -11  -2   5    2.51    1.71
  11   2  -6    0.67    1.41
  11   2  -6    3.43    1.90
 -11  -2   6   -1.73    1.62
  11   2  -7    3.62    1.47
  11   2  -7    2.51    1.84
  11   2  -8   10.10    2.24
  11   2  -9   -0.68    1.67
  11   2 -10    7.00    2.26
  11   2 -11    0.79    1.82
  11   2 -12    1.84    2.00
  11   2 -13    0.67    1.92
  11   1  13    4.77    2.95
  11   1  12    3.71    2.72
  11   1  11    5.81    2.66
  11   1  10   -0.73    2.24
  11   1   9    3.63    2.35
  11   1   8    4.35    2.31
  11   1   7    2.24    2.17
  11   1   6    4.19    2.24
  11   1   6    0.51    1.37
  11   1   5    5.91    1.46
  11   1   5    7.78    2.21
  11   1   4   10.41    2.19
  11   1   4    6.73    1.65
  11   1   3   33.97    2.74
  11   1   3   31.71    3.19
  11   1   2    3.97    2.10
  11   1   2    1.42    1.54
  11   1   1   13.70    2.18
  11   1   1    6.41    1.75
  11   1   0   44.55    3.28
  11   1   0   39.56    2.97
  11   1  -1    8.01    1.74
  11   1  -2    4.94    1.81
  11   1  -2    5.91    1.89
  11   1  -3   34.40    3.17
  11   1  -3   34.34    3.10
  11   1  -4    8.98    1.83
  11   1  -4    4.44    1.78
  11   1  -5    8.77    2.01
  11   1  -5    6.80    1.76
 -11  -1   5    8.45    1.67
  11   1  -6    0.83    1.69
  11   1  -6   -0.40    1.37
 -11  -1   6   -0.21    1.56
  11   1  -7    1.90    1.60
  11   1  -7    2.46    1.84
  11   1  -8    6.86    2.06
  11   1  -9    1.55    1.80
  11   1 -10    1.21    1.85
  11   1 -11    0.77    1.93
  11   1 -12    3.42    2.03
  11   1 -13    4.46    2.52
  11   0  13    3.99    2.86
  11   0  12    6.30    2.83
  11   0  11   -0.63    1.68
  11   0  10   -1.47    2.06
  11   0   9   -2.13    2.00
  11   0   8   26.66    3.35
  11   0   7    3.33    1.69
  11   0   6   16.98    2.66
  11   0   6   16.47    1.78
  11   0   5    5.13    1.35
  11   0   5    3.37    2.00
  11   0   4  117.21    5.58
  11   0   4  112.37    6.25
  11   0   3    6.61    1.46
  11   0   3    6.27    1.95
  11   0   2    0.88    1.88
  11   0   2    0.71    1.11
  11   0   1   14.17    1.82
  11   0   1   15.89    2.29
  11   0   0   36.31    2.70
  11   0   0   38.20    3.26
  11   0  -1   19.22    2.16
  11   0  -1   14.27    2.18
  11   0  -2    0.46    0.59
  11   0  -2    0.04    1.33
  11   0  -3    6.36    1.65
  11   0  -3    3.78    1.61
  11   0  -4  110.76    6.03
  11   0  -4  120.64    6.19
  11   0  -5    2.68    1.65
  11   0  -5    4.94    1.68
 -11   0   5    6.13    1.38
  11   0  -6   19.27    2.38
  11   0  -6   14.27    2.34
 -11   0   6   18.47    2.01
  11   0  -7    2.08    1.78
  11   0  -7    4.99    1.67
  11   0  -8   23.44    2.89
  11   0  -9    1.98    1.76
  11   0 -10    0.30    1.76
  11   0 -11   -0.91    1.68
  11   0 -12    5.52    2.17
  11   0 -13    6.63    2.49
  11  -1  14    3.01    2.87
  11  -1  13   -3.07    2.38
  11  -1  12   -1.13    2.30
  11  -1  11    1.02    2.30
  11  -1  10    3.98    2.31
  11  -1   9    4.17    2.28
  11  -1   8    2.69    2.22
  11  -1   7    4.89    2.25
  11  -1   6   16.99    1.63
  11  -1   6   16.47    2.70
  11  -1   5   14.19    1.62
  11  -1   5   10.50    2.29
  11  -1   4   67.71    3.67
  11  -1   4   72.92    4.53
  11  -1   3   37.80    2.55
  11  -1   3   40.94    3.29
  11  -1   2    0.90    1.65
  11  -1   2    3.76    1.34
  11  -1   1    9.71    1.50
  11  -1   1    6.46    1.83
  11  -1   0    2.72    1.41
  11  -1   0    0.88    1.45
  11  -1  -1    9.59    2.07
  11  -1  -1    6.02    1.49
  11  -1  -2    4.24    1.53
  11  -1  -2    4.22    1.60
  11  -1  -3   37.53    2.91
  11  -1  -3   41.41    2.99
  11  -1  -5   14.69    2.12
  11  -1  -5   12.63    2.09
 -11   1   5   13.17    1.52
  11  -1  -6   23.17    2.60
  11  -1  -6   14.64    2.33
 -11   1   6   16.04    1.78
  11  -1  -7    5.67    1.92
  11  -1  -7    7.18    1.89
  11  -1  -8    4.22    1.91
  11  -1  -9    4.19    1.91
  11  -1 -10    7.31    2.12
  11  -1 -11    1.88    1.89
  11  -1 -12    2.63    1.99
  11  -1 -13    2.85    2.00
  11  -1 -14    2.86    2.07
  11  -2  14    1.02    2.66
  11  -2  13   -0.61    2.41
  11  -2  12    1.47    2.48
  11  -2  11    9.34    2.69
  11  -2  10    2.34    2.23
  11  -2   9   11.00    2.62
  11  -2   8    7.49    2.39
  11  -2   7    6.58    2.31
  11  -2   6   48.03    3.55
  11  -2   6   48.26    2.65
  11  -2   5    8.14    2.13
  11  -2   5   10.58    1.37
  11  -2   4   24.49    1.96
  11  -2   4   24.60    2.82
  11  -2   3   71.66    3.65
  11  -2   3   70.76    4.42
  11  -2   2   20.92    2.49
  11  -2   2   22.21    2.01
  11  -2   1   17.96    2.30
  11  -2   1   16.09    1.82
  11  -2   0   12.07    1.69
  11  -2   0    9.44    1.92
  11  -2  -1   17.58    2.26
  11  -2  -1   15.54    1.81
  11  -2  -2   16.85    2.01
  11  -2  -2   21.62    2.33
  11  -2  -3   73.09    4.35
  11  -2  -3   73.77    4.20
  11  -2  -4   19.34    2.28
  11  -2  -4   21.27    2.43
  11  -2  -5   11.97    2.04
  11  -2  -5   12.06    2.17
 -11   2   5   10.41    1.20
  11  -2  -6   37.57    3.11
  11  -2  -6   52.84    3.53
  11  -2  -7    7.69    1.99
  11  -2  -8    7.34    2.10
  11  -2  -9    9.02    2.18
  11  -2 -10    0.24    2.06
  11  -2 -11   10.28    2.33
  11  -2 -12    1.64    1.95
  11  -2 -13    1.98    2.32
  11  -2 -14    6.30    2.57
  11  -3  14    0.89    2.59
  11  -3  13    2.87    2.54
  11  -3  12    1.47    2.34
  11  -3  11    4.25    2.47
  11  -3  10    9.12    2.61
  11  -3   9    9.85    2.59
  11  -3   8    1.63    2.06
  11  -3   7    6.42    2.29
  11  -3   6    7.19    2.16
  11  -3   5    8.42    2.08
  11  -3   5    7.64    1.10
  11  -3   4    5.10    1.01
  11  -3   4    5.45    1.51
  11  -3   3   36.54    2.25
  11  -3   3   34.01    3.14
  11  -3   2    4.65    1.41
  11  -3   2    3.66    1.05
  11  -3   1   10.92    1.54
  11  -3   1   12.02    1.99
  11  -3   0   21.93    2.41
  11  -3   0   18.15    1.84
  11  -3  -1    9.79    1.85
  11  -3  -1    9.79    1.51
  11  -3  -2    5.58    1.41
  11  -3  -2    5.21    1.54
  11  -3  -3   35.99    2.90
  11  -3  -3   36.06    3.13
  11  -3  -4    2.73    1.41
  11  -3  -4    6.66    1.93
  11  -3  -5    7.68    1.97
  11  -3  -5    4.52    1.62
  11  -3  -6    6.39    1.78
  11  -3  -6    8.82    2.15
  11  -3  -7    9.77    2.03
  11  -3  -7   11.11    2.07
  11  -3  -8    3.66    1.80
  11  -3  -9    7.79    2.07
  11  -3 -10   11.85    2.34
  11  -3 -11    7.30    2.37
  11  -3 -12    0.74    1.85
  11  -3 -13    1.02    2.27
  11  -3 -14    0.63    1.88
  11  -4  14   -1.60    2.47
  11  -4  13   -3.54    2.20
  11  -4  12    6.77    2.66
  11  -4  11    0.79    2.12
  11  -4  10   17.06    2.94
  11  -4   9   -1.20    2.00
  11  -4   8   18.91    2.88
  11  -4   7    1.30    1.99
  11  -4   6   17.08    2.63
  11  -4   5    1.37    1.34
  11  -4   5    1.99    0.77
  11  -4   4    6.46    1.02
  11  -4   4    6.22    1.91
  11  -4   3    4.95    1.75
  11  -4   3    3.88    1.00
  11  -4   2   14.25    1.53
  11  -4   2   13.00    1.87
  11  -4   1   11.04    1.47
  11  -4   1    9.93    1.93
  11  -4   0  183.02    8.22
  11  -4   0  186.95    8.79
  11  -4  -1   10.82    1.89
  11  -4  -1    9.06    1.50
  11  -4  -2   14.47    1.86
  11  -4  -2   18.19    2.24
  11  -4  -3    3.93    1.38
  11  -4  -3    4.49    1.57
  11  -4  -4    7.51    2.02
  11  -4  -4   10.55    1.77
  11  -4  -5    1.02    1.44
  11  -4  -5    1.01    1.45
  11  -4  -6   15.26    2.29
  11  -4  -6   17.92    2.43
  11  -4  -7    1.42    1.66
  11  -4  -7    4.20    1.66
  11  -4  -8   15.85    2.48
  11  -4  -9    0.79    1.63
  11  -4 -10   16.05    2.60
  11  -4 -11    1.76    1.78
  11  -4 -12    4.52    2.10
  11  -4 -13    3.32    2.38
  11  -4 -14    2.80    2.12
  11  -5  14    2.64    3.10
  11  -5  13    8.73    2.89
  11  -5  12    0.76    2.77
  11  -5  11    0.16    2.15
  11  -5  10    0.56    2.12
  11  -5   9   -0.28    2.03
  11  -5   8    6.47    2.24
  11  -5   7   73.70    4.82
  11  -5   6   15.60    2.57
  11  -5   5   20.73    2.65
  11  -5   4   10.28    1.10
  11  -5   4    8.15    2.00
  11  -5   3    4.13    1.73
  11  -5   3    5.01    1.01
  11  -5   2   18.64    1.65
  11  -5   2   17.79    2.29
  11  -5   1   82.83    4.20
  11  -5   1   89.97    4.87
  11  -5   0   19.71    2.33
  11  -5   0   21.91    2.01
  11  -5  -1   85.97    4.67
  11  -5  -1   81.17    4.27
  11  -5  -1   79.73    3.55
  11  -5  -2   16.37    2.17
  11  -5  -2   18.72    2.05
  11  -5  -3    3.05    1.31
  11  -5  -3    5.58    1.65
  11  -5  -4    6.70    1.58
  11  -5  -4    9.15    1.87
  11  -5  -5   18.44    2.28
  11  -5  -5   21.35    2.47
  11  -5  -6   19.71    2.58
  11  -5  -6   23.20    2.60
  11  -5  -7   76.51    4.68
  11  -5  -7   68.54    4.48
  11  -5  -8    3.48    1.85
  11  -5  -9    3.15    1.81
  11  -5 -10    0.08    1.72
  11  -5 -11    4.15    1.89
  11  -5 -12    1.50    1.82
  11  -5 -13    9.66    2.49
  11  -5 -14    2.31    2.10
  11  -6  14   -0.20    2.52
  11  -6  13    4.28    2.63
  11  -6  12   -2.58    2.08
  11  -6  11    0.27    2.09
  11  -6  10   -1.58    2.00
  11  -6   9   -0.07    1.99
  11  -6   8    5.86    2.28
  11  -6   7   67.57    4.60
  11  -6   6   19.18    2.64
  11  -6   5   22.91    2.70
 -11   6  -5   17.98    1.17
  11  -6   4   12.19    2.15
 -11   6  -4    8.63    1.01
  11  -6   3    6.34    1.76
  11  -6   3    4.51    1.00
  11  -6   2   18.62    2.31
  11  -6   2   18.34    1.64
  11  -6   1   86.32    4.66
  11  -6   1   82.78    4.14
  11  -6   0   22.06    1.98
  11  -6   0   22.47    2.43
  11  -6   0   19.74    1.41
  11  -6  -1   77.06    3.57
  11  -6  -1   81.72    4.14
  11  -6  -1   85.50    4.61
  11  -6  -2   19.08    2.04
  11  -6  -2   17.35    2.26
  11  -6  -3    2.53    1.47
  11  -6  -3    3.46    1.33
  11  -6  -4    7.83    1.66
  11  -6  -4   10.15    1.97
  11  -6  -5   16.67    2.17
  11  -6  -5   21.47    2.47
  11  -6  -6   27.33    2.86
  11  -6  -6   20.82    2.50
  11  -6  -7   69.14    4.58
  11  -6  -7   84.00    5.11
  11  -6  -8    2.98    1.80
  11  -6  -9    0.26    1.65
  11  -6 -10    2.01    1.85
  11  -6 -11   -1.27    1.71
  11  -6 -12   -1.30    1.71
  11  -6 -13    5.68    2.26
  11  -6 -14    4.43    2.21
 -11   6  14    0.65    2.17
  11  -7  14    4.00    2.71
  11  -7  13    0.56    2.39
  11  -7  12    4.81    2.45
  11  -7  11   -1.13    1.98
  11  -7  10   20.17    3.02
  11  -7   9    1.34    2.08
  11  -7   8   19.57    2.90
  11  -7   7    4.08    2.03
  11  -7   6   14.44    2.47
  11  -7   5    2.02    1.77
 -11   7  -5   -0.32    0.66
  11  -7   4    9.08    1.95
 -11   7  -4    6.62    0.99
  11  -7   3    5.80    1.78
 -11   7  -3    5.03    0.99
  11  -7   2   16.66    1.65
  11  -7   2   14.58    2.18
 -11   7  -2   14.92    1.50
  11  -7   1   12.24    1.33
  11  -7   1   12.36    1.53
  11  -7   1   10.90    1.92
  11  -7   0  186.03    7.99
  11  -7   0  176.94    8.04
  11  -7   0  182.71    8.64
  11  -7  -1   10.10    1.67
  11  -7  -1   11.31    1.89
  11  -7  -1    9.53    1.09
  11  -7  -2   12.34    1.96
  11  -7  -2   15.77    1.83
  11  -7  -3    5.40    1.43
  11  -7  -3    6.38    1.67
  11  -7  -4    5.28    1.54
  11  -7  -4    5.05    1.71
  11  -7  -5    0.27    1.43
  11  -7  -5    4.00    1.62
  11  -7  -6   16.61    2.38
  11  -7  -6   18.77    2.54
  11  -7  -7    7.31    2.01
  11  -7  -7    4.83    1.91
  11  -7  -8   21.50    2.79
  11  -7  -9   -0.71    1.64
  11  -7 -10   19.53    2.83
  11  -7 -11    1.77    1.87
  11  -7 -12    1.94    2.26
 -11   7  12    8.06    2.56
 -11   7  13    4.02    2.65
 -11   7  14    7.39    2.61
  11  -8  14    1.68    2.51
  11  -8  13   -4.28    2.42
  11  -8  12    3.52    2.30
  11  -8  11    6.00    2.31
  11  -8  10    6.93    2.33
  11  -8   9   12.54    2.57
  11  -8   8    3.41    2.07
  11  -8   7   10.41    2.34
  11  -8   6    7.93    2.16
  11  -8   5    5.90    1.91
 -11   8  -5    5.56    0.93
  11  -8   4    4.77    1.77
 -11   8  -4    6.64    1.06
  11  -8   3   36.81    3.16
  11  -8   3   35.01    2.53
 -11   8  -3   33.48    2.10
  11  -8   2    6.45    1.28
  11  -8   2    6.43    1.49
 -11   8  -2    5.58    1.20
  11  -8   1   11.27    1.92
  11  -8   1    9.60    1.33
 -11   8  -1    9.91    1.41
  11  -8   0   18.84    2.22
  11  -8   0   20.65    1.67
  11  -8  -1   11.05    1.58
  11  -8  -1    9.12    1.81
  11  -8  -1   11.83    1.35
 -11   8   1    9.78    1.61
  11  -8  -2    4.02    1.31
  11  -8  -2    3.73    1.28
  11  -8  -3   38.51    3.30
  11  -8  -3   35.10    2.71
  11  -8  -4    6.79    1.79
  11  -8  -4    7.66    1.69
  11  -8  -5    7.03    1.77
  11  -8  -5   11.23    2.11
  11  -8  -6    6.65    1.93
  11  -8  -6    4.57    1.79
  11  -8  -7   11.00    1.95
  11  -8  -7    8.19    2.01
  11  -8  -8    1.36    1.76
  11  -8  -9    9.82    2.22
 -11   8   9    4.27    2.14
 -11   8  10    6.69    2.29
 -11   8  11    0.15    1.99
 -11   8  12    6.45    2.45
 -11   8  13    2.02    2.26
 -11   8  14    2.42    2.38
  11  -9  14    0.98    2.95
  11  -9  13    0.06    2.59
  11  -9  12    1.14    2.12
  11  -9  11    8.21    2.43
  11  -9  10    0.58    1.93
  11  -9   9    8.49    2.59
  11  -9   8   10.80    2.43
  11  -9   7    4.95    2.09
  11  -9   6   57.48    3.98
  11  -9   6   49.66    3.89
  11  -9   5    9.55    1.81
  11  -9   5   10.56    2.43
 -11   9  -5    9.58    1.23
  11  -9   4   24.33    2.69
  11  -9   4   24.27    2.30
 -11   9  -4   24.55    1.94
  11  -9   3   72.93    3.95
  11  -9   3   66.27    4.25
 -11   9  -3   68.42    3.55
  11  -9   2   18.63    2.17
  11  -9   2   18.73    1.89
 -11   9  -2   21.53    1.83
  11  -9   1   14.05    1.58
  11  -9   1   11.90    1.95
 -11   9  -1   18.48    1.77
  11  -9   0    9.08    1.87
  11  -9   0    8.53    1.31
 -11   9   0    8.81    1.39
  11  -9  -1   14.92    1.67
  11  -9  -1   14.10    2.07
 -11   9   1   15.20    1.82
  11  -9  -2   15.71    2.22
 -11   9   2   23.79    2.24
  11  -9  -3   65.79    4.06
 -11   9   3   69.82    4.05
  11  -9  -4   26.40    2.77
 -11   9   4   24.71    2.64
  11  -9  -5    9.31    2.03
 -11   9   5    9.52    2.00
  11  -9  -6   45.00    3.69
 -11   9   6   52.72    3.74
 -11   9   7    7.29    2.13
 -11   9   8    8.19    2.34
 -11   9   9    7.66    2.28
 -11   9  10    1.58    2.37
 -11   9  11    6.01    2.38
 -11   9  12    0.28    2.12
 -11   9  13   -2.35    2.47
 -11   9  14    3.56    2.90
  11 -10  14   -2.43    2.61
  11 -10  14    1.54    2.23
  11 -10  13    1.63    2.19
  11 -10  13    3.97    2.73
  11 -10  12    1.79    2.22
  11 -10  12    5.39    2.64
  11 -10  11    1.65    2.07
  11 -10  11    2.05    2.06
  11 -10  10    4.52    2.10
  11 -10  10    9.00    2.35
  11 -10   9    4.33    2.08
  11 -10   9    8.61    2.24
  11 -10   8    1.49    1.91
  11 -10   8    4.38    2.40
  11 -10   7    4.65    1.94
  11 -10   7    7.34    2.18
  11 -10   6   13.40    2.33
  11 -10   6   14.75    2.27
  11 -10   5   15.35    2.38
  11 -10   5   12.76    2.27
 -11  10  -5    9.79    1.45
  11 -10   4   66.86    4.36
  11 -10   4   70.21    4.29
 -11  10  -4   71.50    3.63
  11 -10   3   39.29    3.21
 -11  10  -3   41.86    2.67
  11 -10   2    3.31    1.32
  11 -10   2    3.14    1.61
 -11  10  -2    3.54    1.31
  11 -10   1    9.77    1.51
  11 -10   1    8.64    1.81
 -11  10  -1    6.79    1.30
  11 -10   0    0.89    1.38
  11 -10   0    1.81    1.25
 -11  10   0    0.67    1.21
  11 -10  -1    7.81    1.75
  11 -10  -1    8.44    1.62
 -11  10   1    5.98    1.44
  11 -10  -2    2.66    1.56
 -11  10   2    7.85    1.63
  11 -10  -3   39.34    3.23
 -11  10   3   42.84    3.33
  11 -10  -4   64.56    4.27
 -11  10   4   71.75    4.29
  11 -10  -5   11.30    2.14
 -11  10   5   10.91    2.16
  11 -10  -6   18.57    2.63
 -11  10   6   12.86    2.37
 -11  10   7    7.58    2.21
 -11  10   8    2.25    1.96
 -11  10   9    8.21    2.38
 -11  10  10    6.96    2.30
 -11  10  11    6.93    2.51
 -11  10  12    1.15    2.24
 -11  10  13    1.66    2.38
 -11  10  14    1.64    2.41
  11 -11  13    2.00    2.56
  11 -11  13    1.75    2.32
  11 -11  12    8.07    2.77
  11 -11  12    2.09    2.14
  11 -11  11    0.00    1.95
  11 -11  11    0.58    1.93
  11 -11  10    2.68    2.04
  11 -11  10   -0.02    2.21
  11 -11   9    0.93    1.83
  11 -11   9   -0.90    2.15
  11 -11   8   27.09    3.24
  11 -11   8   23.01    2.94
  11 -11   7    4.56    2.34
  11 -11   7    8.17    2.18
  11 -11   6   15.68    2.30
  11 -11   6   10.89    2.59
  11 -11   5    4.92    1.73
  11 -11   5    2.94    1.83
 -11  11  -5    2.19    1.27
  11 -11   4  118.72    6.09
  11 -11   4  111.06    5.92
 -11  11  -4  108.63    5.41
  11 -11   3    5.78    1.45
  11 -11   3    6.76    1.83
 -11  11  -3    7.24    1.48
  11 -11   2    0.02    1.41
  11 -11   2    1.04    1.44
 -11  11  -2   -0.06    1.21
  11 -11   1   16.19    2.17
  11 -11   1   13.73    1.94
 -11  11  -1   15.49    1.91
  11 -11   0   35.68    2.97
  11 -11   0   30.34    2.94
 -11  11   0   38.87    2.81
  11 -11  -1   13.84    2.16
  11 -11  -1   15.16    2.05
 -11  11   1   15.34    2.06
  11 -11  -2    1.52    1.37
  11 -11  -2    0.17    1.43
 -11  11   2    0.29    1.35
  11 -11  -3    6.73    1.84
 -11  11   3    8.94    1.93
  11 -11  -4  103.19    5.85
 -11  11   4  117.21    5.96
  11 -11  -5    2.39    1.67
 -11  11   5    2.76    1.81
  11 -11  -6   16.55    2.56
 -11  11   6   18.11    2.70
 -11  11   7    7.82    2.26
 -11  11   8   24.41    3.15
 -11  11   9    1.78    2.42
 -11  11  10    2.55    2.51
 -11  11  11    0.51    2.05
 -11  11  12    9.01    3.09
 -11  11  13    5.42    2.97
  11 -12  13    0.81    2.14
  11 -12  13    0.71    2.25
  11 -12  12    0.34    2.01
  11 -12  12    6.66    2.94
  11 -12  11    1.18    2.17
  11 -12  11    6.28    2.23
  11 -12  10    0.33    1.96
  11 -12  10    0.91    2.25
  11 -12   9   -1.19    1.78
  11 -12   9    6.21    2.04
  11 -12   8    4.40    2.34
  11 -12   8    4.26    1.95
  11 -12   7    1.96    1.83
  11 -12   7    1.09    1.87
  11 -12   6   -1.31    2.03
  11 -12   6    1.51    2.15
  11 -12   5   12.30    2.22
  11 -12   5    8.69    2.03
 -11  12  -5    5.99    1.63
  11 -12   4    4.18    1.82
  11 -12   4    7.66    1.83
 -11  12  -4    7.21    1.72
  11 -12   3   36.63    2.93
  11 -12   3   31.28    2.99
 -11  12  -3   34.35    2.68
  11 -12   2    2.49    1.65
  11 -12   2   -0.24    0.84
 -11  12  -2    2.18    1.51
  11 -12   1    8.12    1.86
  11 -12   1   10.22    1.93
  11 -12   0   42.51    3.38
  11 -12   0   51.40    3.50
 -11  12   0   47.39    3.36
  11 -12  -1    8.14    1.89
  11 -12  -1    6.69    1.88
 -11  12   1    8.71    1.79
  11 -12  -2    6.22    1.78
  11 -12  -2    0.13    1.71
 -11  12   2    1.39    1.77
  11 -12  -3   28.78    2.95
 -11  12   3   31.43    2.94
  11 -12  -4    8.56    2.05
 -11  12   4    8.01    1.95
  11 -12  -5    5.53    1.93
 -11  12   5    6.94    2.09
 -11  12   6    4.67    2.07
 -11  12   7    3.35    2.11
 -11  12   8    1.35    1.99
 -11  12   9    4.21    2.14
 -11  12  10    1.52    2.07
 -11  12  11    4.42    2.38
 -11  12  12   -0.45    2.17
 -11  12  13    3.32    2.52
  11 -13  13   -0.09    2.24
  11 -13  12   -2.59    2.05
  11 -13  11    2.33    2.28
  11 -13  11    1.15    2.26
  11 -13  10   15.07    3.13
  11 -13  10    7.58    2.18
  11 -13   9    1.53    2.16
  11 -13   9    2.16    2.51
  11 -13   8   11.36    2.25
  11 -13   8   13.65    2.92
  11 -13   7    1.92    2.07
  11 -13   6   -1.34    1.74
  11 -13   6    0.18    1.99
  11 -13   5   -0.87    1.64
  11 -13   5    2.29    1.73
 -11  13  -5    1.09    1.46
  11 -13   4    3.64    2.02
  11 -13   4    4.37    2.14
 -11  13  -4    4.70    1.81
  11 -13   3    5.30    1.73
  11 -13   3    1.02    1.66
 -11  13  -3    3.72    1.62
  11 -13   2   33.35    2.88
  11 -13   2   39.63    3.50
 -11  13  -2   42.94    3.33
  11 -13   1    4.76    1.93
  11 -13   1    6.29    1.99
 -11  13  -1    7.28    1.73
  11 -13   0   74.36    4.71
  11 -13   0   69.56    4.49
 -11  13   0   79.27    4.53
  11 -13  -1    0.53    1.57
  11 -13  -1    7.46    2.15
 -11  13   1    5.58    1.75
  11 -13  -2   33.38    3.36
  11 -13  -2   30.53    3.05
 -11  13   2   35.14    3.12
  11 -13  -3    4.32    1.79
 -11  13   3    1.77    1.66
  11 -13  -4    3.67    1.82
 -11  13   4    3.71    1.89
  11 -13  -5    0.37    1.73
 -11  13   5   -1.09    1.70
 -11  13   6    3.38    2.24
 -11  13   7   -0.10    1.85
 -11  13   8   12.71    2.61
 -11  13   9   -1.62    1.78
 -11  13  10   16.16    2.96
 -11  13  11   -2.04    2.00
 -11  13  12    2.14    2.40
 -11  13  13   -1.35    2.34
  11 -14  12    0.73    2.25
  11 -14  11   13.50    2.96
  11 -14  10    1.47    2.09
  11 -14  10   -0.90    2.43
  11 -14   9    8.00    2.12
  11 -14   9    7.67    2.45
  11 -14   8    7.57    2.29
  11 -14   8    8.64    2.39
  11 -14   7    2.83    1.97
  11 -14   7    1.01    1.92
  11 -14   6    2.64    2.05
  11 -14   6    4.96    2.11
  11 -14   5   12.36    2.37
  11 -14   5   11.55    2.42
 -11  14  -5    6.22    1.93
  11 -14   4    1.25    2.12
  11 -14   4    0.78    1.60
 -11  14  -4    3.76    1.77
  11 -14   3   21.86    2.92
  11 -14   3   18.45    2.42
 -11  14  -3   16.91    2.55
  11 -14   2    2.54    1.89
  11 -14   2    4.07    2.13
 -11  14  -2    1.92    1.73
  11 -14   1   -0.32    1.16
  11 -14   1    1.38    1.57
 -11  14  -1   -0.60    1.44
  11 -14   0   41.71    3.37
  11 -14   0   41.28    3.50
 -11  14   0   46.46    3.65
  11 -14  -1    0.22    2.05
  11 -14  -1    0.22    1.54
 -11  14   1    3.36    1.83
  11 -14  -2   -2.11    1.40
  11 -14  -2   -1.66    1.86
 -11  14   2   -0.03    1.63
  11 -14  -3   13.77    2.32
 -11  14   3   17.79    2.56
  11 -14  -4   -0.56    1.72
 -11  14   4    5.22    2.09
 -11  14   5   14.06    2.64
 -11  14   6    9.08    2.36
 -11  14   7    1.99    1.98
 -11  14   8    8.62    2.38
 -11  14   9    6.41    2.37
 -11  14  10    0.73    2.20
 -11  14  11    6.61    2.60
 -11  14  12    0.75    2.31
  11 -15  12    2.90    2.46
  11 -15  11    1.08    2.28
  11 -15  10    4.99    2.43
  11 -15   9   -0.10    2.01
  11 -15   9    2.80    1.79
  11 -15   8    6.77    2.42
  11 -15   8    7.60    2.21
  11 -15   7    5.35    2.58
  11 -15   7   -0.59    1.80
  11 -15   6   -1.57    2.18
  11 -15   6    0.77    1.77
  11 -15   5    2.04    1.90
  11 -15   5    4.81    2.14
 -11  15  -5    0.92    1.73
  11 -15   4   37.93    3.33
  11 -15   4   36.91    3.65
 -11  15  -4   37.93    3.44
  11 -15   3   11.62    2.32
  11 -15   3   10.76    2.39
 -11  15  -3   12.76    2.45
  11 -15   2   -0.65    1.84
  11 -15   2   -0.09    1.86
 -11  15  -2   -0.32    0.62
  11 -15   1    4.22    2.06
  11 -15   1    7.27    2.56
 -11  15  -1    6.07    1.87
  11 -15   0   25.55    2.75
 -11  15   0   25.07    3.06
  11 -15  -1    2.70    1.71
  11 -15  -1    3.09    2.46
 -11  15   1    4.84    1.98
  11 -15  -2   -1.32    1.49
 -11  15   2   -2.06    1.99
  11 -15  -3   12.75    2.28
 -11  15   3    5.71    2.53
  11 -15  -4   37.52    3.57
 -11  15   4   32.27    3.43
 -11  15   5    1.15    1.94
 -11  15   6   -0.58    1.96
 -11  15   7    1.00    2.41
 -11  15   8    9.00    2.50
 -11  15   9    3.40    2.41
 -11  15  10    1.69    2.33
 -11  15  11    2.31    2.47
 -11  15  12    4.09    2.65
  11 -16  11    0.05    2.21
  11 -16  10    7.54    2.65
  11 -16   9    1.71    2.28
  11 -16   8    2.41    2.27
  11 -16   7   -1.41    2.47
  11 -16   7   -0.74    1.63
  11 -16   6    1.89    2.10
  11 -16   6   -1.78    1.63
  11 -16   5    0.27    1.72
  11 -16   5    1.78    2.05
 -11  16  -5    3.23    1.90
  11 -16   4   14.76    2.34
  11 -16   4   17.19    2.80
 -11  16  -4   13.69    2.53
  11 -16   3    5.06    1.74
  11 -16   3    6.43    2.74
 -11  16  -3    4.23    1.90
  11 -16   2    6.14    2.43
  11 -16   2   10.48    2.30
 -11  16  -2    6.31    2.31
  11 -16   1   -2.41    2.39
  11 -16   1    0.67    1.57
 -11  16  -1    0.51    1.80
  11 -16   0    2.01    2.51
  11 -16   0    2.53    1.97
 -11  16   0   -1.84    1.67
  11 -16  -1   -1.62    1.83
  11 -16  -1   -0.62    1.30
 -11  16   1    2.92    2.05
  11 -16  -2    4.76    2.15
 -11  16   2    4.48    2.08
  11 -16  -3    7.64    2.09
 -11  16   3    6.16    2.30
 -11  16   4   11.31    2.51
 -11  16   5    1.78    1.99
 -11  16   6    2.13    2.43
 -11  16   7    2.43    2.19
 -11  16   8    1.90    2.12
 -11  16   9   -0.68    2.63
 -11  16  10    6.31    2.69
 -11  16  11   -1.32    2.24
  11 -17  11    4.21    2.68
  11 -17  10    0.52    2.38
  11 -17   9   -0.67    2.26
  11 -17   8    1.24    2.33
  11 -17   7    1.90    2.31
  11 -17   6    2.67    1.82
  11 -17   6    5.81    2.39
  11 -17   5   -1.62    2.01
  11 -17   5    1.13    1.71
 -11  17  -5   -1.13    1.60
  11 -17   4    5.69    2.36
  11 -17   4    4.89    1.66
 -11  17  -4    3.33    2.03
  11 -17   3    3.62    1.83
  11 -17   3    5.59    2.88
 -11  17  -3    1.99    0.94
  11 -17   2   -0.88    2.52
  11 -17   2    1.62    1.80
 -11  17  -2    1.49    1.82
  11 -17   1    1.62    2.59
  11 -17   1    1.07    1.81
 -11  17  -1   -4.89    1.94
  11 -17   0    0.30    1.88
  11 -17   0   -0.13    2.53
 -11  17   0   -2.12    2.09
  11 -17  -1   -1.84    2.46
  11 -17  -1    0.25    1.56
 -11  17   1    0.34    1.91
  11 -17  -2    3.71    2.16
 -11  17   2   -0.13    1.90
 -11  17   3    3.65    2.18
 -11  17   4    5.28    2.24
 -11  17   5   -0.22    2.10
 -11  17   6    3.86    2.20
 -11  17   7   -0.61    2.08
 -11  17   8    1.78    2.32
 -11  17   9    1.50    2.28
 -11  17  10    0.18    2.76
 -11  17  11   -3.54    2.75
  11 -18  10   -4.38    2.61
  11 -18   9   -1.93    2.72
  11 -18   8   -0.48    2.29
  11 -18   7    7.62    3.15
  11 -18   6    2.07    2.73
  11 -18   5    0.15    2.67
 -11  18  -5   -0.38    1.84
  11 -18   4   -0.15    1.68
  11 -18   4    2.83    2.37
 -11  18  -4    0.32    2.07
  11 -18   3   -0.74    2.19
  11 -18   3    1.60    1.80
 -11  18  -3    2.06    1.81
  11 -18   2    1.12    2.68
  11 -18   2    2.28    1.55
 -11  18  -2    0.90    2.25
  11 -18   1    6.24    2.07
  11 -18   1    3.53    2.42
 -11  18  -1    5.30    2.17
  11 -18   0    4.84    2.89
  11 -18   0    2.83    1.91
 -11  18   0    2.02    2.03
  11 -18  -1    3.74    2.85
  11 -18  -1    2.48    1.98
 -11  18   1    3.52    2.42
 -11  18   2    3.66    2.18
 -11  18   3    5.07    2.24
 -11  18   4   -0.30    2.05
 -11  18   5    1.83    2.18
 -11  18   6    5.06    2.39
 -11  18   7    4.84    2.52
 -11  18   8    1.01    2.34
 -11  18   9    3.69    2.51
 -11  18  10   -4.22    2.18
  11 -19   9   -3.94    2.69
  11 -19   8    1.43    2.48
  11 -19   7    2.06    2.99
  11 -19   6    3.73    3.10
  11 -19   5   -0.53    2.30
 -11  19  -5   -0.98    1.84
  11 -19   4   -1.19    2.33
 -11  19  -4   -0.79    0.80
  11 -19   3   -1.87    2.28
  11 -19   3    1.17    1.76
 -11  19  -3    2.58    2.31
  11 -19   2    3.01    2.88
  11 -19   2    0.78    1.76
 -11  19  -2    1.20    2.31
  11 -19   1    1.96    1.59
  11 -19   1    2.35    2.45
 -11  19  -1   -2.84    2.25
  11 -19   0   23.67    2.97
  11 -19   0   16.73    3.28
 -11  19   0   23.28    3.41
  11 -19  -1   -1.05    2.23
  11 -19  -1   -0.88    1.57
 -11  19   1    0.35    2.42
 -11  19   2    2.96    2.13
 -11  19   3    1.15    2.11
 -11  19   4   -1.41    2.01
 -11  19   5    3.51    2.30
 -11  19   6    6.52    2.64
 -11  19   7    2.24    2.46
 -11  19   8   -2.76    2.60
 -11  19   9   -1.55    2.25
  11 -20   8   -0.50    2.49
  11 -20   7   -0.17    2.52
  11 -20   6    5.13    2.90
  11 -20   5   -0.04    2.61
 -11  20  -5   -0.69    2.03
  11 -20   4    3.24    2.76
 -11  20  -4    2.89    1.82
  11 -20   3   -2.35    2.35
 -11  20  -3   -0.51    2.34
  11 -20   2    1.99    2.50
 -11  20  -2    1.90    2.55
  11 -20   1    0.82    1.83
  11 -20   1    4.39    3.23
 -11  20  -1    2.07    2.19
  11 -20   0    1.03    2.96
 -11  20   0   -0.22    2.05
  11 -20  -1    3.60    2.67
 -11  20   1    6.49    2.44
 -11  20   2    3.88    2.40
 -11  20   3   -0.77    2.10
 -11  20   4    0.99    2.58
 -11  20   5    2.38    2.32
 -11  20   6    3.60    2.50
 -11  20   7    3.59    2.51
 -11  20   8   -0.71    2.79
  11 -21   7   -0.37    2.75
  11 -21   6   -2.15    2.57
  11 -21   5    0.31    2.83
 -11  21  -5    1.06    1.66
  11 -21   4   -1.22    2.53
 -11  21  -4   -0.67    2.22
  11 -21   3    0.23    2.64
 -11  21  -3    1.77    2.17
  11 -21   2    0.11    2.48
 -11  21  -2    0.67    2.08
  11 -21   1    3.41    2.80
 -11  21  -1    1.21    2.29
  11 -21   0    1.40    2.62
 -11  21   0   -5.00    1.78
 -11  21   1   -0.22    2.68
 -11  21   2    0.95    2.73
 -11  21   3   -5.31    1.98
 -11  21   4   -1.27    2.19
 -11  21   5    0.22    2.32
 -11  21   6   -0.20    2.24
 -11  21   7    3.34    2.59
  11 -22   5   -3.38    2.70
 -11  22  -5    3.55    1.61
  11 -22   4    1.60    2.82
 -11  22  -4    3.36    2.14
  11 -22   3   -2.26    3.05
 -11  22  -3   -1.53    2.34
  11 -22   2    5.89    3.43
 -11  22  -2    1.79    2.69
  11 -22   1    2.85    2.81
 -11  22  -1    0.01    2.70
  11 -22   0    0.69    2.59
 -11  22   0    0.51    2.22
 -11  22   1    3.18    2.43
 -11  22   2    2.73    2.54
 -11  22   3   -2.36    2.84
 -11  22   4   -0.27    2.35
 -11  22   5    1.93    2.99
  11 -23   3    6.45    3.02
 -11  23  -3    1.29    2.69
  11 -23   2    0.90    3.46
 -11  23  -2    2.21    2.78
  11 -23   1    4.10    3.43
 -11  23  -1    2.84    2.38
  11 -23   0    1.03    2.78
 -11  23   0    1.37    2.62
 -11  23   1   -0.04    2.33
 -11  23   2   -0.96    2.37
 -11  23   3   -0.74    2.44
  12  11   2    2.18    2.29
  12  11   1    1.99    2.34
  12  11   0    1.12    2.49
  12  11  -1    0.52    2.14
  12  11  -2    1.76    2.48
  12  10   5    3.80    2.61
  12  10   4    3.99    2.20
  12  10   3    4.16    2.29
  12  10   2    2.97    2.54
  12  10   1   -1.64    1.94
  12  10   0    1.73    2.13
  12  10  -1    0.73    2.02
  12  10  -2    2.42    2.13
  12  10  -3    0.57    2.22
  12  10  -4    0.43    2.04
  12  10  -5   -1.62    1.91
  12   9   7   -2.13    2.19
  12   9   6    0.63    2.29
  12   9   6    3.24    2.31
  12   9   5   -0.07    1.99
  12   9   5    1.32    2.31
  12   9   4   -2.19    2.18
  12   9   4    2.19    2.43
  12   9   3   -0.43    2.25
  12   9   2    1.52    2.04
  12   9   1    0.67    1.94
  12   9   0    3.22    2.13
  12   9  -1    1.27    2.00
  12   9  -2   -0.54    1.99
  12   9  -3   -1.93    1.79
  12   9  -4    1.05    2.09
  12   9  -5    2.42    2.51
  12   9  -6    1.61    2.43
  12   9  -7    1.83    2.17
  12   8   8   -1.66    2.27
  12   8   7    0.96    2.36
  12   8   6    2.08    2.23
  12   8   6    2.02    2.23
  12   8   5    1.15    1.89
  12   8   5    3.24    2.23
  12   8   4   -2.01    0.98
  12   8   4    1.23    1.90
  12   8   3   -0.30    2.15
  12   8   3    1.29    2.21
  12   8   2   -0.76    1.85
  12   8   1    4.07    2.13
  12   8   0    3.77    2.14
  12   8  -1    1.95    1.97
  12   8  -2   -0.95    1.84
  12   8  -3    2.41    2.25
  12   8  -4   -0.19    1.91
  12   8  -5    0.76    1.95
  12   8  -6    0.91    1.98
  12   8  -7    2.34    2.16
  12   8  -8   -0.03    2.09
  12   7   9   -4.77    2.72
  12   7   8   -1.23    2.29
  12   7   7    2.81    2.38
  12   7   6    0.63    2.07
  12   7   6    0.00    2.45
  12   7   5    1.38    1.77
  12   7   5    2.49    2.40
  12   7   4    4.49    2.18
  12   7   4    0.83    1.86
  12   7   3    3.14    2.24
  12   7   3   -1.56    1.62
  12   7   2   -0.98    1.94
  12   7   2    0.84    2.18
  12   7   1    8.35    2.34
  12   7   1    5.16    2.39
  12   7   0   -3.09    1.57
  12   7  -1    1.96    1.95
  12   7  -2    1.84    2.00
  12   7  -3    0.85    1.82
  12   7  -4    2.32    2.34
  12   7  -5    1.20    1.99
  12   7  -6    3.01    2.09
  12   7  -7    0.17    1.97
  12   7  -8   -0.22    1.84
  12   7  -9    2.18    2.12
  12   6  10   -4.21    2.86
  12   6   9   -0.45    2.29
  12   6   8   -2.54    2.60
  12   6   7    5.25    2.92
  12   6   6    0.82    2.15
  12   6   6    6.60    2.19
  12   6   5    3.65    2.14
  12   6   5    1.80    2.04
  12   6   4    7.97    2.31
  12   6   4    5.49    1.91
  12   6   3    0.84    2.09
  12   6   3    4.73    1.81
  12   6   2   -1.74    1.93
  12   6   2    2.88    2.15
  12   6   1    2.25    1.98
  12   6   1    6.34    2.34
  12   6   0   -0.62    1.74
  12   6   0    0.11    1.71
  12   6  -1    3.93    2.29
  12   6  -2    0.24    1.81
  12   6  -3    1.63    1.79
  12   6  -4    6.88    2.22
  12   6  -5    0.83    1.86
  12   6  -6    4.53    2.47
  12   6  -7    4.60    2.25
  12   6  -8    7.13    2.47
  12   6  -9   -1.60    2.22
  12   6 -10    3.05    2.24
  12   5  10   -1.24    3.00
  12   5   9    2.56    2.48
  12   5   8   -0.49    2.72
  12   5   7    1.08    2.66
  12   5   6   -1.22    1.68
  12   5   6    2.17    2.12
  12   5   5    0.81    1.94
  12   5   5    0.98    1.81
  12   5   4   -0.20    1.48
  12   5   4   -1.87    1.67
  12   5   3   10.46    2.19
  12   5   3   10.05    2.61
  12   5   2   -0.29    0.53
  12   5   2   -0.04    1.62
  12   5   1    6.83    2.29
  12   5   1    4.38    1.86
  12   5   0    4.99    1.93
  12   5   0    3.47    2.07
  12   5  -1    3.13    2.04
  12   5  -1    5.52    1.97
  12   5  -2    0.99    1.81
  12   5  -2    2.09    1.69
  12   5  -3   11.54    2.36
  12   5  -4   -0.36    1.73
  12   5  -5    1.81    2.11
  12   5  -6    3.73    2.07
  12   5  -7    0.91    1.98
  12   5  -8    3.56    2.08
  12   5  -9    2.47    2.05
  12   5 -10    1.50    2.03
  12   4  11    7.52    3.09
  12   4  10    3.72    2.68
  12   4   9    3.31    2.52
  12   4   8    2.56    2.30
  12   4   7    5.64    2.47
  12   4   6   -1.15    1.93
  12   4   6    1.31    1.63
  12   4   5    5.74    2.20
  12   4   5    3.62    1.83
  12   4   4    0.48    1.45
  12   4   4    1.12    1.93
  12   4   3   12.54    2.41
  12   4   3    9.01    1.97
  12   4   2    5.30    1.82
  12   4   2    9.54    2.47
  12   4   1   -0.80    1.83
  12   4   1    1.41    1.58
  12   4   0    0.16    1.65
  12   4   0    1.43    2.01
  12   4  -1    2.38    1.96
  12   4  -1    1.25    1.77
  12   4  -2    4.79    1.96
  12   4  -2    4.20    1.89
  12   4  -3    8.10    1.85
  12   4  -3    9.04    2.22
  12   4  -4    0.58    1.76
  12   4  -5    3.11    1.95
  12   4  -6   -0.97    1.62
  12   4  -7    1.95    1.93
  12   4  -8   -0.11    1.84
  12   4  -9    6.98    2.73
  12   4 -10    1.91    2.07
  12   4 -11    2.03    2.04
  12   3  12   -1.71    2.57
  12   3  11   -1.08    2.41
  12   3  10    0.38    2.38
  12   3   9    2.29    2.47
  12   3   8    0.21    2.63
  12   3   7   -0.13    2.10
  12   3   6    5.98    1.75
  12   3   6    8.92    2.44
  12   3   5    6.32    1.91
  12   3   5    7.76    2.26
  12   3   4   14.89    2.14
  12   3   4   16.84    2.73
  12   3   3    1.59    1.92
  12   3   3    2.56    1.61
  12   3   2    2.24    1.54
  12   3   2    2.46    1.93
  12   3   1    3.30    1.98
  12   3   1    2.82    2.01
  12   3   0    6.40    2.20
  12   3   0    3.75    1.79
  12   3  -1    0.99    1.71
  12   3  -1    1.23    1.91
  12   3  -2    1.07    1.70
  12   3  -2    4.09    1.94
  12   3  -3    2.54    1.89
  12   3  -3    5.26    1.78
  12   3  -4   16.51    2.62
  12   3  -4   16.85    2.38
  12   3  -5    4.32    2.01
  12   3  -6   10.37    2.36
  12   3  -7    2.03    1.86
  12   3  -8    4.44    2.04
  12   3  -9   -2.73    1.69
  12   3 -10    3.41    2.09
  12   3 -11    0.85    2.04
  12   3 -12   -1.01    1.88
  12   2  12    0.38    2.57
  12   2  11    1.27    2.54
  12   2  10   -0.60    2.30
  12   2   9    0.30    2.25
  12   2   8   -1.74    2.03
  12   2   7   13.35    2.78
  12   2   6   -0.58    1.36
  12   2   6    0.15    2.06
  12   2   5    1.93    2.02
  12   2   5    0.95    1.48
  12   2   4    3.57    2.12
  12   2   4    4.30    1.64
  12   2   3    1.32    1.35
  12   2   3    2.82    2.31
  12   2   2    1.42    2.18
  12   2   2    0.48    1.64
  12   2   1   20.41    2.66
  12   2   1   17.99    2.35
  12   2   0   -0.11    1.77
  12   2   0    0.58    0.99
  12   2  -1   13.68    2.24
  12   2  -1   11.74    2.15
  12   2  -2   -2.80    1.45
  12   2  -2    1.39    1.79
  12   2  -3   -0.27    1.65
  12   2  -3    1.15    1.67
  12   2  -4    3.04    1.87
  12   2  -4    2.57    1.67
  12   2  -5    2.24    1.64
  12   2  -5    3.11    1.88
  12   2  -6    1.83    1.70
  12   2  -6    0.88    1.53
  12   2  -7   17.74    2.73
  12   2  -8    1.44    1.80
  12   2  -9    0.37    1.80
  12   2 -10    2.09    1.97
  12   2 -11    1.48    1.89
  12   2 -12    2.46    2.12
  12   1  12   -0.89    2.46
  12   1  11    0.66    2.39
  12   1  10    2.07    2.44
  12   1   9   -2.44    2.10
  12   1   8    3.81    2.37
  12   1   7   11.51    2.68
  12   1   6    1.77    1.42
  12   1   6    0.94    2.15
  12   1   5    7.98    1.74
  12   1   5    8.67    2.41
  12   1   4    8.97    1.75
  12   1   4    6.75    2.24
  12   1   3   -0.34    2.11
  12   1   3   -0.68    1.46
  12   1   2    4.99    1.76
  12   1   2    4.63    2.00
  12   1   1   27.40    2.68
  12   1   1   29.87    3.10
  12   1   0   42.90    3.60
  12   1   0   44.11    3.88
  12   1  -1   25.36    2.70
  12   1  -2    3.21    2.01
  12   1  -2    8.24    2.01
  12   1  -3    0.03    1.68
  12   1  -3    3.46    1.76
  12   1  -4    8.98    2.15
  12   1  -4   10.28    2.16
  12   1  -5   13.37    2.27
  12   1  -5   10.84    2.24
  12   1  -6    5.89    1.91
  12   1  -6    3.04    1.84
  12   1  -7   13.01    2.45
  12   1  -7   17.78    2.38
  12   1  -8    3.97    2.06
  12   1  -9   -0.80    1.72
  12   1 -10    5.16    2.05
  12   1 -11    3.54    2.12
  12   1 -12    0.82    2.25
  12   0  13   -4.01    2.46
  12   0  12    6.12    2.78
  12   0  11    2.97    2.51
  12   0  10   -0.10    2.22
  12   0   9    2.26    2.28
  12   0   8    0.03    2.04
  12   0   7    0.57    2.14
  12   0   6   22.02    3.08
  12   0   5   -0.09    1.33
  12   0   5    0.13    1.98
  12   0   4   -0.51    1.85
  12   0   4   -0.46    1.38
  12   0   3    3.08    1.92
  12   0   3    3.66    1.44
  12   0   2   -2.36    1.66
  12   0   2   -3.49    1.25
  12   0   1    3.55    1.89
  12   0   1    0.92    1.60
  12   0   0   92.94    5.01
  12   0   0   94.51    5.38
  12   0  -1    2.00    1.53
  12   0  -1    2.69    1.73
  12   0  -2    1.89    1.11
  12   0  -2    0.85    1.53
  12   0  -3    4.68    1.96
  12   0  -3    2.66    1.84
  12   0  -4    1.95    1.65
  12   0  -4    3.04    1.78
  12   0  -5    0.77    1.68
  12   0  -5    1.31    1.72
  12   0  -6   28.04    3.14
  12   0  -6   32.48    3.13
  12   0  -7    5.03    1.99
  12   0  -7    3.04    1.66
  12   0  -8    2.31    1.79
  12   0  -9   -1.44    1.93
  12   0 -10    2.14    1.88
  12   0 -11    3.42    2.35
  12   0 -12    5.30    2.48
  12   0 -13   -1.29    2.09
  12  -1  13    2.70    2.77
  12  -1  12    1.04    2.46
  12  -1  11    1.78    2.38
  12  -1  10   -0.83    2.23
  12  -1   9    1.72    2.23
  12  -1   8    4.83    2.30
  12  -1   7    2.30    2.18
  12  -1   6   -2.02    1.99
  12  -1   5   11.05    1.58
  12  -1   5    6.35    2.22
  12  -1   4    6.05    1.43
  12  -1   4    5.64    2.13
  12  -1   3   31.54    2.49
  12  -1   3   34.50    3.35
  12  -1   2    1.79    1.80
  12  -1   2    1.62    1.34
  12  -1   1   10.36    2.15
  12  -1   1    9.81    1.88
  12  -1   0   45.57    3.29
  12  -1   0   47.16    3.57
  12  -1  -1    7.41    1.99
  12  -1  -1    9.06    1.98
  12  -1  -2    2.63    1.63
  12  -1  -2    5.86    1.64
  12  -1  -3   36.17    3.37
  12  -1  -3   33.10    3.03
  12  -1  -4   11.03    2.04
  12  -1  -5    9.46    2.14
  12  -1  -5    8.60    1.99
  12  -1  -6    3.72    1.77
  12  -1  -6   -1.50    1.61
  12  -1  -7    1.38    1.65
  12  -1  -7    1.96    1.80
  12  -1  -8    8.19    2.15
  12  -1  -9    3.90    2.04
  12  -1 -10    2.10    1.85
  12  -1 -11    4.68    2.12
  12  -1 -12    4.69    2.17
  12  -1 -13    3.49    2.41
  12  -2  13    2.50    2.73
  12  -2  12    1.32    2.51
  12  -2  11    6.02    2.63
  12  -2  10    2.46    2.32
  12  -2   9    0.66    2.14
  12  -2   8    1.26    2.15
  12  -2   7    3.25    2.22
  12  -2   6    0.80    1.55
  12  -2   5   14.38    1.64
  12  -2   5   11.14    2.44
  12  -2   4    9.59    1.53
  12  -2   4   15.13    2.47
  12  -2   3   32.10    3.32
  12  -2   3   37.28    2.63
  12  -2   2    4.08    1.36
  12  -2   2    3.86    1.94
  12  -2   1    0.93    1.11
  12  -2   1   -0.28    1.95
  12  -2   0    1.94    1.40
  12  -2   0   -1.34    1.50
  12  -2  -1    1.12    1.57
  12  -2  -1    0.84    1.26
  12  -2  -2    2.13    1.55
  12  -2  -2    3.57    1.68
  12  -2  -3   39.22    3.32
  12  -2  -3   31.37    2.90
  12  -2  -4   12.04    2.10
  12  -2  -4   10.84    2.12
  12  -2  -5    8.89    1.96
  12  -2  -5   14.37    2.22
  12  -2  -6    1.47    1.63
  12  -2  -6   -0.01    0.95
  12  -2  -7    2.35    1.79
  12  -2  -7    0.15    0.48
  12  -2  -8    0.60    1.73
  12  -2  -9    1.88    1.82
  12  -2 -10    3.90    1.91
  12  -2 -11    5.08    2.12
  12  -2 -12    0.59    1.85
  12  -2 -13    1.22    2.07
  12  -3  13    1.99    2.65
  12  -3  12    3.97    2.66
  12  -3  11    3.46    2.46
  12  -3  10    8.03    2.17
  12  -3   9    3.53    2.28
  12  -3   8    1.12    2.16
  12  -3   7   17.61    2.83
  12  -3   6   11.76    2.56
  12  -3   5   17.95    1.65
  12  -3   5   15.44    2.62
  12  -3   4   58.05    3.11
  12  -3   4   56.92    4.11
  12  -3   3   16.13    1.73
  12  -3   3   16.36    2.48
  12  -3   2    8.81    2.09
  12  -3   2   10.67    1.50
  12  -3   1   24.25    2.20
  12  -3   1   21.63    2.64
  12  -3   0   -0.02    1.53
  12  -3   0    2.44    1.35
  12  -3  -1   23.19    2.23
  12  -3  -1   21.88    2.64
  12  -3  -2   10.28    1.96
  12  -3  -2    8.76    1.70
  12  -3  -3   13.73    2.26
  12  -3  -3   15.60    2.25
  12  -3  -4   61.90    4.34
  12  -3  -4   62.65    3.96
  12  -3  -5   15.99    2.54
  12  -3  -5   17.52    2.43
  12  -3  -6   19.14    2.64
  12  -3  -6   11.95    2.24
  12  -3  -7   27.22    3.15
  12  -3  -7   19.97    2.73
  12  -3  -8    1.26    1.67
  12  -3  -9    2.46    1.83
  12  -3 -10   15.12    2.59
  12  -3 -11    3.67    2.03
  12  -3 -12   -1.58    1.66
  12  -3 -13    1.60    2.32
  12  -4  14    3.26    2.81
  12  -4  13    4.87    2.84
  12  -4  12   -0.27    2.32
  12  -4  11    1.18    2.32
  12  -4  10    6.17    2.45
  12  -4   9   13.24    2.72
  12  -4   8    1.87    2.17
  12  -4   7   26.66    3.27
  12  -4   6    2.91    2.11
  12  -4   5    9.02    1.91
  12  -4   5    9.09    1.22
  12  -4   4   25.98    2.97
  12  -4   4   27.26    1.98
  12  -4   3   20.50    2.69
  12  -4   3   21.95    1.90
  12  -4   2   28.48    2.16
  12  -4   2   30.84    2.98
  12  -4   1   50.02    3.73
  12  -4   1   53.72    3.13
  12  -4   0    0.20    1.50
  12  -4   0    0.06    1.19
  12  -4  -1   45.67    3.04
  12  -4  -1   53.04    3.63
  12  -4  -2   28.95    2.61
  12  -4  -2   32.15    3.19
  12  -4  -3   20.85    2.58
  12  -4  -3   18.85    2.25
  12  -4  -4   26.21    2.90
  12  -4  -4   25.68    2.65
  12  -4  -5    5.08    1.74
  12  -4  -5    8.65    1.98
  12  -4  -6    4.33    1.79
  12  -4  -6    7.24    1.88
  12  -4  -7   33.89    3.49
  12  -4  -7   27.85    3.09
  12  -4  -8    8.67    2.18
  12  -4  -9   15.20    2.57
  12  -4 -10    6.74    2.10
  12  -4 -11    0.45    1.81
  12  -4 -12    1.44    1.97
  12  -4 -13    3.78    2.17
  12  -4 -14   -0.82    2.38
  12  -5  14    0.15    2.59
  12  -5  13    6.52    3.22
  12  -5  12    6.73    2.72
  12  -5  11   -1.18    2.19
  12  -5  10    4.85    2.40
  12  -5   9   16.35    2.83
  12  -5   8    8.19    2.50
  12  -5   7   13.82    2.64
  12  -5   6    5.74    1.76
  12  -5   5   18.10    1.43
  12  -5   5   22.15    2.80
  12  -5   4    6.16    1.08
  12  -5   4    2.40    1.88
  12  -5   3   59.23    3.12
  12  -5   3   57.43    4.03
  12  -5   2   -0.29    1.59
  12  -5   2    0.42    0.97
  12  -5   1   78.39    4.06
  12  -5   1   77.12    4.70
  12  -5   0   50.83    3.03
  12  -5   0   51.50    3.68
  12  -5  -1   73.26    3.31
  12  -5  -1   77.04    4.19
  12  -5  -1   76.30    4.54
  12  -5  -2    0.88    1.50
  12  -5  -2   -0.24    1.16
  12  -5  -3   52.59    3.77
  12  -5  -3   56.41    3.50
  12  -5  -4    5.01    1.86
  12  -5  -4    4.84    1.65
  12  -5  -5   17.23    2.43
  12  -5  -5   19.24    2.38
  12  -5  -6    7.51    1.92
  12  -5  -6    9.13    2.09
  12  -5  -7   10.97    2.22
  12  -5  -7   21.89    2.91
  12  -5  -8    8.97    2.15
  12  -5  -9   10.71    2.27
  12  -5 -10    8.16    2.23
  12  -5 -11    9.87    2.65
  12  -5 -12    5.14    2.19
  12  -5 -13    1.63    2.01
  12  -5 -14    1.52    2.07
  12  -6  14    1.99    2.67
  12  -6  13    0.80    2.47
  12  -6  12    1.53    2.38
  12  -6  11    1.19    2.24
  12  -6  10    8.83    2.55
  12  -6   9    1.27    2.14
  12  -6   8    5.22    2.29
  12  -6   7    9.17    2.42
  12  -6   6   26.80    3.12
  12  -6   5   22.39    2.80
 -12   6  -5   19.07    1.35
  12  -6   4   24.75    2.88
  12  -6   4   24.69    1.78
  12  -6   3   12.79    2.25
  12  -6   3   12.13    1.46
  12  -6   2    3.84    1.07
  12  -6   2    1.52    1.72
  12  -6   1   66.78    4.20
  12  -6   1   63.25    3.51
  12  -6   0   19.56    2.31
  12  -6   0   18.61    1.38
  12  -6   0   21.08    2.07
  12  -6  -1   64.41    3.65
  12  -6  -1   58.62    2.74
  12  -6  -1   60.01    3.93
  12  -6  -2    3.20    1.62
  12  -6  -2    1.91    1.45
  12  -6  -3   10.44    1.83
  12  -6  -3   10.14    2.06
  12  -6  -4   26.82    2.89
  12  -6  -4   22.16    2.49
  12  -6  -5   21.22    2.72
  12  -6  -5   21.30    2.49
  12  -6  -6   25.10    2.79
  12  -6  -6   33.60    3.27
  12  -6  -7    6.63    1.99
  12  -6  -7    3.56    1.84
  12  -6  -8    3.91    1.95
  12  -6  -9    2.85    1.89
  12  -6 -10    4.98    2.04
  12  -6 -11    0.91    1.82
  12  -6 -12    2.28    2.07
  12  -6 -13   -1.42    1.91
  12  -6 -14   -0.06    1.97
  12  -7  14   -1.28    2.44
  12  -7  13    1.92    2.88
  12  -7  12    4.31    2.53
  12  -7  11    5.08    2.44
  12  -7  10    3.42    2.25
  12  -7   9   11.58    2.60
  12  -7   8    8.93    2.45
  12  -7   7   14.19    2.67
  12  -7   6   12.05    2.45
  12  -7   5   14.13    2.53
  12  -7   4    6.30    1.99
 -12   7  -4    4.61    1.01
  12  -7   3   50.09    3.56
 -12   7  -3   55.63    2.87
  12  -7   2    0.54    1.59
  12  -7   2    0.01    1.08
  12  -7   1   79.57    4.00
  12  -7   1   74.87    4.60
  12  -7   1   74.08    3.78
  12  -7   0   55.24    3.24
  12  -7   0   52.80    2.72
  12  -7   0   49.61    3.65
  12  -7  -1   70.54    3.52
  12  -7  -1   88.67    4.72
  12  -7  -1   79.51    4.14
  12  -7  -2   -0.48    1.48
  12  -7  -2    0.41    1.20
  12  -7  -3   58.82    3.95
  12  -7  -3   53.91    3.53
  12  -7  -4    5.92    1.91
  12  -7  -4    3.57    1.59
  12  -7  -5   13.51    2.20
  12  -7  -5   20.29    2.59
  12  -7  -6    9.98    2.10
  12  -7  -6    6.03    1.90
  12  -7  -7   12.38    2.31
  12  -7  -7   13.13    2.46
  12  -7  -8    6.61    2.11
  12  -7  -9   13.42    2.68
  12  -7 -10    4.09    1.97
  12  -7 -11    4.56    2.16
  12  -7 -12    5.40    2.21
  12  -7 -13    3.78    2.53
 -12   7  13    2.53    2.24
 -12   7  14    1.56    2.24
  12  -8  14   -3.31    2.28
  12  -8  13    1.04    2.90
  12  -8  12   -1.86    2.21
  12  -8  11    2.31    2.25
  12  -8  10    8.51    2.48
  12  -8   9    9.97    2.44
  12  -8   8    1.95    2.10
  12  -8   7   31.20    3.38
  12  -8   6    9.60    2.30
  12  -8   5    9.37    2.24
  12  -8   4   21.80    2.79
 -12   8  -4   25.29    1.80
  12  -8   3   24.43    2.19
  12  -8   3   19.59    2.58
 -12   8  -3   21.48    1.85
  12  -8   2   30.78    2.22
  12  -8   2   28.32    2.96
 -12   8  -2   32.77    2.27
  12  -8   1   49.68    3.57
  12  -8   1   44.50    2.78
 -12   8  -1   51.17    2.94
  12  -8   0    0.64    0.85
  12  -8   0   -0.67    1.37
  12  -8   0   -0.91    1.18
  12  -8  -1   43.01    3.42
  12  -8  -1   51.54    3.25
  12  -8  -1   47.52    2.62
  12  -8  -2   30.46    2.93
  12  -8  -2   31.89    2.68
  12  -8  -3   18.67    2.44
  12  -8  -3   17.38    2.19
  12  -8  -4   33.16    3.20
  12  -8  -4   27.55    2.78
  12  -8  -5    6.78    1.88
  12  -8  -5   10.23    2.14
  12  -8  -6    9.79    2.17
  12  -8  -6    8.85    2.02
  12  -8  -7   29.09    3.09
  12  -8  -7   30.05    3.35
  12  -8  -8    6.66    2.04
  12  -8  -9   13.32    2.41
  12  -8 -10    9.86    2.62
  12  -8 -11   -0.76    1.77
 -12   8  11    4.78    2.33
 -12   8  12    2.51    2.58
 -12   8  13    5.65    2.85
 -12   8  14    0.14    2.20
  12  -9  13    2.56    2.42
  12  -9  12    2.42    2.76
  12  -9  11    0.49    2.42
  12  -9  10   12.53    2.65
  12  -9   9    0.57    2.00
  12  -9   8    0.88    2.05
  12  -9   7   20.82    2.88
  12  -9   6   16.27    2.66
  12  -9   5   15.19    2.49
  12  -9   5   14.16    2.25
  12  -9   4   60.96    4.20
 -12   9  -4   61.59    3.22
  12  -9   3   13.32    2.29
  12  -9   3   13.66    1.87
 -12   9  -3   15.76    1.65
  12  -9   2    7.33    1.91
  12  -9   2    9.69    1.52
 -12   9  -2    7.80    1.38
  12  -9   1   18.44    1.79
  12  -9   1   19.96    2.46
 -12   9  -1   20.26    1.96
  12  -9   0   -0.74    1.40
  12  -9   0    1.31    1.05
 -12   9   0    0.49    0.54
  12  -9  -1   19.09    2.25
  12  -9  -1   23.57    1.96
 -12   9   1   17.74    2.01
  12  -9  -2    8.79    1.93
 -12   9   2    9.47    1.69
  12  -9  -3   14.70    2.33
 -12   9   3   18.72    2.45
  12  -9  -4   62.96    4.22
  12  -9  -4   63.81    3.96
 -12   9   4   58.71    4.00
  12  -9  -5   17.24    2.35
  12  -9  -5   16.10    2.51
 -12   9   5   15.40    2.38
  12  -9  -6   18.78    2.54
  12  -9  -6   13.99    2.44
 -12   9   6   16.18    2.51
  12  -9  -7   17.42    2.60
  12  -9  -7   18.93    2.87
 -12   9   7   15.83    2.68
 -12   9   8    1.92    2.02
 -12   9   9    0.89    1.97
 -12   9  10   12.29    2.69
 -12   9  11   -0.74    2.04
 -12   9  12    1.77    2.30
 -12   9  13    2.91    2.46
  12 -10  13    0.87    2.24
  12 -10  13    1.52    2.67
  12 -10  12    2.21    2.28
  12 -10  12   -3.18    2.32
  12 -10  11    7.79    2.46
  12 -10  11    7.97    2.47
  12 -10  10    5.01    2.22
  12 -10  10    0.66    2.05
  12 -10   9    1.65    2.36
  12 -10   9    4.34    2.35
  12 -10   8    2.27    2.03
  12 -10   8    2.99    1.88
  12 -10   7    4.48    2.51
  12 -10   7    2.53    1.83
  12 -10   6   -0.43    1.82
  12 -10   6   -0.09    1.80
  12 -10   5   10.68    2.33
  12 -10   5   11.78    2.02
  12 -10   4    5.67    1.38
  12 -10   4    9.25    2.22
 -12  10  -4    9.93    1.50
  12 -10   3   35.89    3.34
  12 -10   3   37.81    2.88
 -12  10  -3   35.76    2.49
  12 -10   2    2.73    1.70
  12 -10   2    5.54    1.44
 -12  10  -2    5.13    1.30
  12 -10   1    0.95    1.27
  12 -10   1    1.48    1.58
 -12  10  -1   -1.24    1.06
  12 -10   0    0.22    1.49
  12 -10   0    1.56    1.14
 -12  10   0    0.07    0.87
  12 -10  -1   -0.51    1.16
  12 -10  -1    0.51    1.47
 -12  10   1    1.94    1.49
  12 -10  -2    5.43    1.82
 -12  10   2    5.75    1.61
  12 -10  -3   33.74    3.23
 -12  10   3   32.68    3.15
  12 -10  -4    9.24    2.07
 -12  10   4   11.67    2.13
  12 -10  -5   15.20    2.39
 -12  10   5   10.44    2.27
  12 -10  -6    1.19    1.81
 -12  10   6   -0.71    1.77
 -12  10   7    0.11    2.24
 -12  10   8    0.28    1.85
 -12  10   9    0.77    1.99
 -12  10  10    5.54    2.39
 -12  10  11    4.49    2.42
 -12  10  12   -1.64    2.07
 -12  10  13    4.18    2.57
  12 -11  13    0.79    2.23
  12 -11  13    0.60    2.67
  12 -11  12    1.13    2.12
  12 -11  12    2.86    2.28
  12 -11  11    4.29    2.24
  12 -11  11    8.36    2.81
  12 -11  10   -1.41    1.87
  12 -11  10    1.68    2.01
  12 -11   9    0.73    1.92
  12 -11   9    1.68    2.27
  12 -11   8    4.84    2.48
  12 -11   8    3.18    2.19
  12 -11   7    0.59    1.74
  12 -11   7    1.01    1.92
  12 -11   6    4.64    2.36
  12 -11   6   -0.06    1.63
  12 -11   5    4.79    2.05
  12 -11   5    8.33    2.18
 -12  11  -5    5.97    1.44
  12 -11   4    6.77    2.08
  12 -11   4    7.31    1.99
 -12  11  -4    6.51    1.44
  12 -11   3   32.24    2.85
  12 -11   3   28.82    3.07
 -12  11  -3   34.67    2.58
  12 -11   2    1.11    1.43
  12 -11   2    2.19    1.69
 -12  11  -2    2.52    1.35
  12 -11   1    5.16    1.84
  12 -11   1    8.23    1.59
 -12  11  -1    5.93    1.53
  12 -11   0   42.97    3.42
  12 -11   0   44.54    3.15
 -12  11   0   43.00    3.16
  12 -11  -1    8.24    1.67
  12 -11  -1    8.21    1.98
 -12  11   1    5.66    1.55
  12 -11  -2    5.42    1.85
 -12  11   2    2.81    1.53
  12 -11  -3   33.99    3.05
 -12  11   3   33.63    3.05
  12 -11  -4    7.48    1.69
 -12  11   4   10.94    2.37
  12 -11  -5    7.45    2.02
 -12  11   5    8.52    2.13
  12 -11  -6    0.23    1.28
 -12  11   6    2.68    1.93
 -12  11   7    5.17    2.15
 -12  11   8    6.45    2.25
 -12  11   9   -2.18    1.78
 -12  11  10    1.26    2.17
 -12  11  11    5.80    2.50
 -12  11  12    2.59    2.86
 -12  11  13    3.64    2.96
  12 -12  13   -3.53    1.90
  12 -12  13    3.57    2.44
  12 -12  12    1.17    2.50
  12 -12  12    2.12    2.25
  12 -12  11    1.61    2.09
  12 -12  11    0.93    2.06
  12 -12  10   -0.28    2.02
  12 -12  10   -5.10    2.12
  12 -12   9    0.57    1.88
  12 -12   9   -4.49    2.03
  12 -12   8   -3.83    2.07
  12 -12   8   -1.73    1.70
  12 -12   7    1.37    1.98
  12 -12   7    2.51    1.90
  12 -12   6   25.92    2.99
  12 -12   6   27.97    3.14
  12 -12   5   -1.18    1.78
  12 -12   5   -0.88    1.54
 -12  12  -5    0.91    1.34
  12 -12   4   -3.32    1.52
  12 -12   4    2.55    1.87
 -12  12  -4    1.42    1.50
  12 -12   3    0.20    0.55
  12 -12   3    1.82    1.77
 -12  12  -3    3.58    1.63
  12 -12   2   -2.12    1.47
  12 -12   2   -2.24    1.50
 -12  12  -2   -1.39    1.31
  12 -12   1    1.46    1.72
  12 -12   1    3.83    1.60
 -12  12  -1    3.96    1.52
  12 -12   0   94.32    5.39
  12 -12   0   97.82    5.35
 -12  12   0   91.98    5.17
  12 -12  -1    2.83    1.71
  12 -12  -1    2.20    1.65
 -12  12   1    4.84    1.60
  12 -12  -2   -1.17    1.10
 -12  12   2    0.95    1.49
  12 -12  -3    4.42    1.82
 -12  12   3    1.50    1.67
  12 -12  -4   -0.89    1.53
 -12  12   4    0.15    1.71
  12 -12  -5   -1.02    1.58
 -12  12   5   -0.28    1.78
  12 -12  -6   32.07    3.45
 -12  12   6   30.32    3.34
 -12  12   7    3.91    2.11
 -12  12   8    1.76    2.11
 -12  12   9    0.95    2.35
 -12  12  10   -1.75    2.05
 -12  12  11    3.44    2.71
 -12  12  12    3.29    2.49
 -12  12  13    2.00    2.50
  12 -13  12    0.68    2.09
  12 -13  12    2.69    2.29
  12 -13  11   -0.13    2.36
  12 -13  11   -0.84    2.33
  12 -13  10    3.21    2.18
  12 -13  10    0.18    2.21
  12 -13   9   -0.35    2.21
  12 -13   9   -0.14    1.91
  12 -13   8    6.71    2.56
  12 -13   8    5.73    2.36
  12 -13   7   17.08    2.69
  12 -13   7   10.46    2.62
  12 -13   6    1.85    1.90
  12 -13   6    2.98    1.93
  12 -13   5   10.02    2.23
  12 -13   5   10.08    2.20
 -12  13  -5    4.76    1.64
  12 -13   4    8.99    2.17
  12 -13   4    7.79    2.22
 -12  13  -4    6.76    1.91
  12 -13   3   -0.97    1.54
  12 -13   3    0.41    1.79
 -12  13  -3    0.49    1.45
  12 -13   2    6.16    1.89
  12 -13   2    4.91    1.63
 -12  13  -2    3.00    1.72
  12 -13   1   27.68    2.94
  12 -13   1   27.34    2.88
  12 -13   0   45.15    3.70
  12 -13   0   43.19    3.46
 -12  13   0   40.70    3.13
  12 -13  -1   33.27    3.15
  12 -13  -1   28.29    3.06
 -12  13   1   28.57    2.86
  12 -13  -2    1.42    1.86
  12 -13  -2    2.18    1.68
 -12  13   2    5.33    2.01
  12 -13  -3    0.42    1.58
 -12  13   3   -1.62    1.53
  12 -13  -4    6.07    1.99
 -12  13   4    5.00    1.97
  12 -13  -5    6.08    2.04
 -12  13   5    5.17    2.12
 -12  13   6    0.31    1.87
 -12  13   7   13.63    2.60
 -12  13   8    1.04    2.03
 -12  13   9   -0.42    1.97
 -12  13  10   -1.53    2.01
 -12  13  11    1.90    2.25
 -12  13  12    0.90    2.79
  12 -14  12    1.24    2.37
  12 -14  11    2.75    1.97
  12 -14  11    7.47    2.61
  12 -14  10   -0.72    2.07
  12 -14  10    2.04    2.22
  12 -14   9    0.93    2.16
  12 -14   9    0.11    2.03
  12 -14   8   -0.86    2.07
  12 -14   8    1.66    2.01
  12 -14   7   19.08    2.81
  12 -14   7   18.80    2.95
  12 -14   6   -2.34    1.58
  12 -14   6    1.00    1.82
  12 -14   5    2.32    1.94
  12 -14   5    1.77    2.13
 -12  14  -5   -0.76    1.52
  12 -14   4    1.47    1.72
  12 -14   4    3.81    2.28
 -12  14  -4    3.71    1.90
  12 -14   3    1.97    2.08
  12 -14   3    1.68    1.72
 -12  14  -3    2.33    1.76
  12 -14   2   -1.33    1.53
  12 -14   2   -0.38    0.73
 -12  14  -2   -0.35    1.59
  12 -14   1   18.49    2.80
  12 -14   1   15.53    2.38
 -12  14  -1   15.43    2.27
  12 -14   0    2.41    1.75
  12 -14   0    0.37    1.92
 -12  14   0    2.12    1.63
  12 -14  -1   17.33    2.79
  12 -14  -1   19.97    2.65
 -12  14   1   15.99    2.32
  12 -14  -2   -0.64    1.63
 -12  14   2   -2.15    1.55
  12 -14  -3    1.36    1.76
 -12  14   3    2.46    1.85
  12 -14  -4    3.12    1.89
 -12  14   4    2.85    1.98
  12 -14  -5    0.38    1.70
 -12  14   5    1.57    1.97
 -12  14   6   -2.37    1.74
 -12  14   7   21.51    3.03
 -12  14   8    0.28    1.89
 -12  14   9    0.49    2.04
 -12  14  10    0.74    2.19
 -12  14  11    6.61    2.62
 -12  14  12   -6.08    1.92
  12 -15  12   -1.57    2.12
  12 -15  11   -0.33    2.24
  12 -15  10    1.43    2.21
  12 -15   9   -1.26    1.99
  12 -15   9    3.32    2.20
  12 -15   8    0.58    2.02
  12 -15   8   -2.65    2.25
  12 -15   7   -2.16    2.22
  12 -15   7   -2.57    1.82
  12 -15   6    6.97    2.31
  12 -15   6    5.41    2.22
  12 -15   5    4.71    2.13
  12 -15   5    5.10    1.82
 -12  15  -5    3.95    1.88
  12 -15   4   21.93    2.70
  12 -15   4   16.79    2.70
 -12  15  -4   16.93    2.67
  12 -15   3    0.87    1.84
  12 -15   3    1.37    1.74
 -12  15  -3    3.49    1.95
  12 -15   2    2.77    2.16
  12 -15   2    2.73    2.33
 -12  15  -2    3.87    2.00
  12 -15   1   -1.47    0.94
  12 -15   1    4.00    1.82
 -12  15  -1    1.97    1.73
  12 -15   0    5.27    1.92
  12 -15   0    5.00    2.36
 -12  15   0    3.35    2.10
  12 -15  -1    0.93    1.99
  12 -15  -1    8.50    2.51
 -12  15   1    2.35    1.92
  12 -15  -2    4.03    1.87
 -12  15   2    1.46    1.84
  12 -15  -3    3.97    1.90
 -12  15   3    3.91    2.27
  12 -15  -4   17.01    2.66
 -12  15   4   17.92    2.82
 -12  15   5    4.23    2.10
 -12  15   6    4.65    2.25
 -12  15   7    2.60    2.08
 -12  15   8    0.88    2.12
 -12  15   9    5.04    2.36
 -12  15  10   -0.93    2.12
 -12  15  11    3.34    2.45
 -12  15  12    1.98    2.53
  12 -16  11    2.34    2.41
  12 -16  10    4.78    2.82
  12 -16   9    2.50    2.23
  12 -16   8    0.87    2.58
  12 -16   8   -0.10    1.92
  12 -16   7    3.31    2.10
  12 -16   7    0.61    2.04
  12 -16   6   -2.03    1.85
  12 -16   6   -1.94    1.71
  12 -16   5    1.10    1.96
  12 -16   5    3.87    2.05
 -12  16  -5    3.57    1.78
  12 -16   4    1.86    1.97
  12 -16   4    0.90    1.59
 -12  16  -4    0.45    1.81
  12 -16   3   10.01    2.09
  12 -16   3   11.02    2.48
 -12  16  -3   10.44    2.48
  12 -16   2    9.34    2.82
  12 -16   2    5.69    1.95
  12 -16   1    1.11    2.45
  12 -16   1    4.99    1.93
 -12  16  -1    4.26    2.21
  12 -16   0    3.23    2.08
  12 -16   0    1.43    1.59
 -12  16   0    1.18    2.18
  12 -16  -1    2.87    1.75
  12 -16  -1   -0.74    2.44
 -12  16   1   -0.14    2.19
  12 -16  -2    5.32    1.96
 -12  16   2    5.43    2.15
  12 -16  -3    8.91    2.20
 -12  16   3   13.22    2.48
  12 -16  -4    2.39    1.79
 -12  16   4    4.48    2.43
 -12  16   5    4.42    2.49
 -12  16   6    1.10    2.07
 -12  16   7    1.74    2.46
 -12  16   8    3.24    2.31
 -12  16   9    7.05    2.57
 -12  16  10    0.41    2.69
 -12  16  11    2.70    2.52
  12 -17  10    1.40    2.51
  12 -17   9    6.16    2.69
  12 -17   8    1.08    2.34
  12 -17   7    2.42    2.68
  12 -17   7    1.19    1.90
  12 -17   6   -0.89    2.49
  12 -17   6    1.87    1.87
  12 -17   5    0.53    1.52
  12 -17   5   -1.94    1.96
 -12  17  -5    1.05    1.88
  12 -17   4    1.77    1.81
  12 -17   4    2.23    2.11
 -12  17  -4   -1.00    1.93
  12 -17   3   12.14    2.23
  12 -17   3   14.52    2.78
 -12  17  -3   18.12    2.76
  12 -17   2    0.91    1.64
  12 -17   2   -0.92    2.02
 -12  17  -2   -0.02    1.95
  12 -17   1    9.38    2.84
  12 -17   1    6.87    2.17
 -12  17  -1    2.84    2.25
  12 -17   0    5.55    2.53
  12 -17   0    5.02    1.86
 -12  17   0    5.72    2.37
  12 -17  -1    4.84    1.87
  12 -17  -1    2.35    1.67
 -12  17   1    6.87    2.17
  12 -17  -2   -0.31    1.59
 -12  17   2    1.67    1.89
  12 -17  -3   10.32    2.29
 -12  17   3   11.42    2.59
 -12  17   4   -2.87    1.79
 -12  17   5   -1.41    1.86
 -12  17   6   -0.50    2.01
 -12  17   7    2.10    2.26
 -12  17   8    0.72    2.24
 -12  17   9    3.23    2.33
 -12  17  10    1.66    2.41
  12 -18  10    3.94    2.76
  12 -18   9   -0.73    2.37
  12 -18   8   -0.36    2.75
  12 -18   7    2.05    2.44
  12 -18   6    5.15    2.51
  12 -18   5    2.39    1.90
  12 -18   5    5.18    2.37
  12 -18   4    7.68    2.62
  12 -18   4    6.67    1.89
 -12  18  -4    6.75    2.29
  12 -18   3    1.78    2.69
  12 -18   3    1.02    1.85
 -12  18  -3    0.65    1.41
  12 -18   2   -0.09    1.89
  12 -18   2    1.67    2.67
 -12  18  -2   -2.36    1.66
  12 -18   1    4.09    1.78
  12 -18   1    7.43    2.83
 -12  18  -1    8.66    2.64
  12 -18   0    0.14    2.18
  12 -18   0   -2.19    1.45
 -12  18   0    1.97    1.92
  12 -18  -1    7.26    2.85
  12 -18  -1    5.39    1.85
 -12  18   1    1.94    1.97
  12 -18  -2   -0.40    1.65
 -12  18   2    0.37    1.94
 -12  18   3    3.15    2.54
 -12  18   4    8.43    2.47
 -12  18   5    3.29    2.69
 -12  18   6    6.29    2.58
 -12  18   7    0.63    2.27
 -12  18   8    1.46    2.72
 -12  18   9    3.52    2.91
 -12  18  10    2.95    2.53
  12 -19   9   -0.34    2.45
  12 -19   8   -0.34    2.39
  12 -19   7   -0.50    2.34
  12 -19   6    0.33    2.34
  12 -19   5    1.47    2.37
  12 -19   4    4.21    1.97
  12 -19   4    2.86    2.94
 -12  19  -4    0.24    2.09
  12 -19   3    1.40    2.40
  12 -19   3    0.59    1.84
 -12  19  -3    1.74    1.84
  12 -19   2    0.52    1.86
  12 -19   2    0.51    2.76
 -12  19  -2   -1.80    2.20
  12 -19   1    3.85    2.88
  12 -19   1    4.84    1.84
 -12  19  -1    5.12    2.47
  12 -19   0    2.21    2.90
  12 -19   0   -1.49    1.54
 -12  19   0    1.88    2.12
  12 -19  -1    7.87    2.37
  12 -19  -1    7.90    3.00
 -12  19   1    3.44    2.17
  12 -19  -2    0.66    1.74
 -12  19   2   -0.51    2.03
 -12  19   3    0.89    2.08
 -12  19   4    1.17    2.15
 -12  19   5    2.38    2.38
 -12  19   6   -0.35    2.12
 -12  19   7   -0.53    2.21
 -12  19   8   -4.12    2.15
 -12  19   9   -0.57    2.37
  12 -20   8   -1.53    2.44
  12 -20   7    2.24    2.63
  12 -20   6   -2.69    2.45
  12 -20   5    4.28    3.31
  12 -20   4   -2.77    2.31
 -12  20  -4    2.74    2.04
  12 -20   3   -0.28    2.42
 -12  20  -3   -0.11    1.93
  12 -20   2    1.48    1.87
  12 -20   2    0.17    2.37
 -12  20  -2   -1.02    2.35
  12 -20   1    2.76    3.03
  12 -20   1    4.26    2.00
 -12  20  -1   -0.92    1.99
  12 -20   0    5.14    2.12
  12 -20   0    3.49    2.73
 -12  20   0    4.17    2.34
  12 -20  -1    1.83    2.53
  12 -20  -1    2.80    1.91
 -12  20   1    3.73    2.33
 -12  20   2    1.40    2.25
 -12  20   3    1.31    2.19
 -12  20   4   -0.24    2.53
 -12  20   5    1.08    2.29
 -12  20   6   -2.16    2.66
 -12  20   7    1.74    2.56
 -12  20   8    1.51    2.48
  12 -21   7   -3.52    3.16
  12 -21   6    2.45    3.40
  12 -21   5    1.93    2.76
  12 -21   4    1.09    2.63
  12 -21   3   -4.10    2.30
 -12  21  -3   -0.01    2.41
  12 -21   2   -0.79    2.89
 -12  21  -2   -1.71    2.34
  12 -21   1   -3.15    2.89
  12 -21   1   -0.63    1.53
 -12  21  -1    0.11    2.08
  12 -21   0    1.36    3.09
 -12  21   0    1.50    2.68
 -12  21   1    0.86    2.24
 -12  21   2   -2.25    2.51
 -12  21   3    0.27    2.31
 -12  21   4   -1.82    2.06
 -12  21   5    1.29    2.44
 -12  21   6   -1.18    2.63
 -12  21   7   -0.74    2.47
  12 -22   5    1.43    2.82
  12 -22   4   -0.21    2.69
 -12  22  -4    0.84    2.37
  12 -22   3    2.71    3.32
 -12  22  -3   -0.12    2.42
  12 -22   2    0.56    2.59
 -12  22  -2    2.29    2.16
  12 -22   1   -0.36    3.11
 -12  22  -1   -2.12    2.02
  12 -22   0    0.02    2.59
 -12  22   0    0.57    2.70
 -12  22   1   -0.69    2.24
 -12  22   2    0.24    2.34
 -12  22   3    4.11    2.58
 -12  22   4    0.47    2.38
 -12  22   5    1.50    2.46
  12 -23   3    1.12    2.85
 -12  23  -3    2.48    2.55
  12 -23   2    1.76    2.93
 -12  23  -2    1.33    2.64
  12 -23   1   -2.51    2.61
 -12  23  -1   -0.21    2.76
  12 -23   0   -2.57    2.60
 -12  23   0   -3.67    2.55
 -12  23   1   -0.10    2.34
 -12  23   2   -0.61    2.85
 -12  23   3    1.36    2.61
  13  10   2   -0.16    2.09
  13  10   1   -0.46    1.89
  13  10   0   -0.94    1.98
  13  10  -1    0.46    2.54
  13  10  -2    0.49    2.57
  13   9   5    1.11    2.02
  13   9   5   -3.39    2.10
  13   9   4    2.69    2.51
  13   9   3    1.41    2.46
  13   9   2    1.78    2.52
  13   9   1    1.10    2.10
  13   9   0   -0.74    1.90
  13   9  -1    4.49    2.59
  13   9  -2    4.32    2.26
  13   9  -3    0.94    2.02
  13   9  -4    2.55    2.24
  13   9  -5    0.01    2.07
  13   8   6   -4.64    2.39
  13   8   6    1.75    2.33
  13   8   5    4.03    2.65
  13   8   5    4.50    2.48
  13   8   4    4.14    2.51
  13   8   3    4.60    2.57
  13   8   2    0.61    2.29
  13   8   1   -0.41    1.86
  13   8   0    1.18    1.96
  13   8  -1    0.51    1.95
  13   8  -2   -0.12    2.03
  13   8  -3    5.05    2.57
  13   8  -4    0.87    2.04
  13   8  -5    1.43    2.01
  13   8  -6    0.22    1.96
  13   7   8   -0.61    2.30
  13   7   7   -2.67    2.16
  13   7   6    2.97    2.27
  13   7   6    0.37    2.08
  13   7   5   -2.62    1.84
  13   7   5    1.09    2.15
  13   7   4    5.06    2.57
  13   7   4    3.18    2.37
  13   7   3    0.44    2.20
  13   7   3    0.23    1.73
  13   7   2    3.23    2.32
  13   7   2    1.92    1.95
  13   7   1    0.29    2.13
  13   7   0    9.10    2.63
  13   7  -1   -2.57    1.66
  13   7  -2    1.15    1.89
  13   7  -3    1.03    1.91
  13   7  -4    4.66    2.23
  13   7  -5    3.16    2.15
  13   7  -6    1.52    2.17
  13   7  -7   -0.77    2.39
  13   7  -8   -0.87    2.38
  13   6   9    0.52    2.59
  13   6   8    3.97    3.06
  13   6   7    2.19    2.42
  13   6   6    4.65    2.34
  13   6   6    1.62    1.95
  13   6   5    3.70    2.25
  13   6   5    3.68    2.61
  13   6   4   -3.54    2.20
  13   6   4   -0.86    1.97
  13   6   3    5.61    2.09
  13   6   3   12.59    2.61
  13   6   2    2.96    1.92
  13   6   2    1.30    1.82
  13   6   1    1.48    1.78
  13   6   1    1.42    1.73
  13   6   0    6.50    2.14
  13   6  -1   -2.52    1.69
  13   6  -2    2.14    1.89
  13   6  -3    7.71    2.34
  13   6  -4    3.48    2.34
  13   6  -5    6.39    2.29
  13   6  -6    5.18    2.34
  13   6  -7    2.89    2.18
  13   6  -8   -1.55    1.83
  13   6  -9    2.52    2.15
  13   5  10    0.72    2.57
  13   5   9   -3.16    2.21
  13   5   8   -0.07    2.75
  13   5   7    2.39    2.35
  13   5   6    2.41    2.25
  13   5   6    2.06    1.99
  13   5   5    1.17    2.48
  13   5   5   -1.29    1.85
  13   5   4    8.77    2.35
  13   5   4    7.11    2.68
  13   5   3    3.92    2.32
  13   5   3    4.02    1.84
  13   5   2   11.36    2.43
  13   5   1   -0.28    1.71
  13   5   1    0.20    1.69
  13   5   0    8.30    2.18
  13   5   0    7.19    2.33
  13   5  -1    2.22    1.89
  13   5  -1   -0.39    1.76
  13   5  -2   10.63    2.33
  13   5  -3    2.21    1.91
  13   5  -4   11.63    2.54
  13   5  -5    2.00    1.95
  13   5  -6    3.28    2.22
  13   5  -7    5.00    2.24
  13   5  -8    0.36    1.99
  13   5  -9    2.53    2.07
  13   5 -10    4.52    2.78
  13   4  10    5.43    2.93
  13   4   9    0.64    2.42
  13   4   8   -0.67    2.20
  13   4   7    2.84    2.40
  13   4   6   -0.23    2.03
  13   4   6    3.23    1.99
  13   4   5    1.49    1.80
  13   4   5    2.70    2.12
  13   4   4    3.44    2.06
  13   4   4    3.50    1.96
  13   4   3    1.26    1.56
  13   4   3    2.48    1.98
  13   4   2   13.55    2.50
  13   4   2   17.16    2.93
  13   4   1   10.05    2.35
  13   4   1    6.11    2.17
  13   4   0    2.62    1.80
  13   4   0    2.22    2.06
  13   4  -1    6.90    2.15
  13   4  -1    5.80    2.18
  13   4  -2   18.39    2.90
  13   4  -2   13.27    2.37
  13   4  -3    2.35    1.85
  13   4  -4   -1.75    1.70
  13   4  -5    0.33    1.82
  13   4  -6    2.43    2.01
  13   4  -7    1.25    1.95
  13   4  -8    4.15    2.15
  13   4  -9    2.02    1.94
  13   4 -10    7.11    2.45
  13   3  11   -1.66    2.60
  13   3  10    2.84    2.67
  13   3   9    0.80    2.43
  13   3   8    4.86    2.49
  13   3   7    0.22    2.56
  13   3   6    0.47    2.08
  13   3   5   -1.61    1.46
  13   3   5   -0.04    2.26
  13   3   4   -2.63    2.17
  13   3   4   -0.25    1.56
  13   3   3    4.48    2.10
  13   3   3    8.71    2.09
  13   3   2    0.89    2.19
  13   3   2    0.46    1.77
  13   3   1    1.80    1.99
  13   3   1    2.38    1.97
  13   3   0    4.63    2.00
  13   3   0    4.28    2.22
  13   3  -1    0.32    1.69
  13   3  -1   -0.31    1.61
  13   3  -2    1.40    1.86
  13   3  -2    4.14    2.17
  13   3  -3    6.74    1.93
  13   3  -3    9.03    2.15
  13   3  -4    1.73    1.55
  13   3  -4   -2.29    1.66
  13   3  -5    1.00    1.80
  13   3  -6    1.59    2.14
  13   3  -7    0.36    2.13
  13   3  -8    4.06    2.47
  13   3  -9   -1.57    1.72
  13   3 -10    3.56    2.17
  13   3 -11    2.72    2.22
  13   2  11   -2.56    2.38
  13   2  10    3.49    2.71
  13   2   9   -1.33    2.32
  13   2   8    1.15    2.27
  13   2   7    3.87    2.36
  13   2   6    8.29    2.50
  13   2   5    4.13    1.61
  13   2   5    2.31    2.05
  13   2   4    8.89    1.98
  13   2   4    5.90    2.28
  13   2   3    2.31    1.72
  13   2   3    2.41    2.07
  13   2   2    5.80    2.16
  13   2   2   13.66    2.32
  13   2   1   14.65    2.49
  13   2   1   15.08    2.84
  13   2   0   -1.80    1.81
  13   2   0    1.37    1.17
  13   2  -1   14.78    2.41
  13   2  -1   13.96    2.70
  13   2  -2    9.93    2.38
  13   2  -2    7.67    2.09
  13   2  -3   -1.06    1.65
  13   2  -3   -0.16    1.61
  13   2  -4    6.31    2.13
  13   2  -4   10.49    2.10
  13   2  -5    2.88    1.77
  13   2  -5   -0.95    1.63
  13   2  -6   12.93    2.46
  13   2  -7    8.27    2.27
  13   2  -8    0.02    1.74
  13   2  -9    2.75    1.96
  13   2 -10   -3.11    1.71
  13   2 -11   -2.80    1.77
  13   1  12    2.14    2.81
  13   1  11    2.86    2.77
  13   1  10    2.10    2.53
  13   1   9    0.60    2.34
  13   1   8    3.36    2.43
  13   1   7   -0.57    2.06
  13   1   6   24.87    3.26
  13   1   5    0.14    2.08
  13   1   5    1.03    1.53
  13   1   4    1.14    2.07
  13   1   4    0.66    1.52
  13   1   3    1.78    2.07
  13   1   3    0.73    1.61
  13   1   2   21.65    3.20
  13   1   2   18.65    2.48
  13   1   1    0.11    1.46
  13   1   1   -0.51    2.18
  13   1   0   44.24    3.39
  13   1   0   45.10    3.71
  13   1  -1    1.11    0.89
  13   1  -1   -1.59    1.57
  13   1  -2   23.83    2.90
  13   1  -2   22.68    2.97
  13   1  -3    0.18    1.70
  13   1  -3    0.36    1.76
  13   1  -4    1.77    1.77
  13   1  -4    3.48    1.78
  13   1  -5   -0.05    1.71
  13   1  -5    0.19    1.61
  13   1  -6   37.99    3.32
  13   1  -6   28.21    3.33
  13   1  -7    1.21    1.39
  13   1  -7    0.99    1.80
  13   1  -8    3.74    1.99
  13   1  -9   -0.85    1.79
  13   1 -10    5.36    2.21
  13   1 -11   -0.26    1.97
  13   1 -12    3.15    2.22
  13   0  12   -1.77    2.51
  13   0  11    3.09    2.61
  13   0  10    9.32    2.79
  13   0   9   -3.91    2.11
  13   0   8    2.71    2.26
  13   0   7   14.09    2.84
  13   0   6   36.22    3.75
  13   0   5   21.70    2.32
  13   0   5   17.43    2.93
  13   0   4    8.37    2.38
  13   0   4   11.65    1.88
  13   0   3    1.92    1.48
  13   0   3   -0.47    1.93
  13   0   2   29.26    2.84
  13   0   2   30.29    3.28
  13   0   1   34.41    3.02
  13   0   1   37.93    3.57
  13   0   0   -0.18    1.80
  13   0   0    4.90    1.74
  13   0  -1   30.85    3.33
  13   0  -1   39.47    3.35
  13   0  -2   13.73    2.18
  13   0  -2   32.39    2.98
  13   0  -3   -1.70    1.61
  13   0  -3   -1.17    1.57
  13   0  -4   11.69    2.42
  13   0  -4    9.41    2.38
  13   0  -5   21.72    2.84
  13   0  -5   19.81    2.72
  13   0  -6   32.96    3.27
  13   0  -6   34.95    3.66
  13   0  -7   15.55    2.39
  13   0  -7   16.30    2.68
  13   0  -8    1.53    1.55
  13   0  -8    1.68    1.85
  13   0  -9    1.90    1.78
  13   0 -10    4.82    2.26
  13   0 -11    3.48    2.12
  13   0 -12   -1.43    1.77
  13  -1  12   -1.40    2.41
  13  -1  11   -0.94    2.35
  13  -1  10    1.05    2.43
  13  -1   9   -1.38    2.14
  13  -1   8    1.65    2.22
  13  -1   7    9.77    2.60
  13  -1   6    2.01    2.21
  13  -1   5   10.85    2.55
  13  -1   5    8.40    1.68
  13  -1   4   10.45    1.81
  13  -1   4    8.59    2.40
  13  -1   3    3.21    1.48
  13  -1   3    4.06    2.15
  13  -1   2    4.00    1.40
  13  -1   2    5.04    2.17
  13  -1   1   31.64    3.24
  13  -1   1   26.14    2.58
  13  -1   0   42.68    3.37
  13  -1   0   42.52    3.79
  13  -1  -1   28.84    2.84
  13  -1  -1   29.70    3.22
  13  -1  -2    3.54    1.83
  13  -1  -2    5.94    1.78
  13  -1  -3    0.13    1.50
  13  -1  -3    0.46    1.58
  13  -1  -4    7.88    2.05
  13  -1  -5   11.47    2.45
  13  -1  -5    7.90    2.10
  13  -1  -6    0.34    1.50
  13  -1  -6    1.57    1.70
  13  -1  -7   16.13    2.48
  13  -1  -7    7.59    2.10
  13  -1  -8    4.21    2.01
  13  -1  -8    5.38    1.86
  13  -1  -9   -0.51    1.77
  13  -1 -10    0.73    2.18
  13  -1 -11    0.76    1.91
  13  -1 -12    3.27    2.11
  13  -2  13   -3.08    2.41
  13  -2  12   -0.13    2.50
  13  -2  11    0.95    2.51
  13  -2  10   14.74    3.11
  13  -2   9   -3.54    1.94
  13  -2   8    7.55    2.54
  13  -2   7    2.66    2.20
  13  -2   6   -2.11    2.00
  13  -2   5    2.59    2.18
  13  -2   5    0.04    1.26
  13  -2   4    3.49    1.43
  13  -2   4    0.52    1.96
  13  -2   3    3.21    1.36
  13  -2   3    0.67    1.99
  13  -2   2   35.21    2.73
  13  -2   2   36.02    3.51
  13  -2   1    2.01    1.94
  13  -2   1    2.88    1.57
  13  -2   0   69.47    4.64
  13  -2   0   72.35    4.25
  13  -2  -1    3.49    1.78
  13  -2  -1    3.94    1.93
  13  -2  -2   35.25    3.46
  13  -2  -2   32.49    2.98
  13  -2  -3    1.11    1.57
  13  -2  -3    0.96    1.68
  13  -2  -4    6.03    2.18
  13  -2  -4    2.77    1.73
  13  -2  -5    2.19    1.77
  13  -2  -5    2.12    1.91
  13  -2  -6    0.99    0.66
  13  -2  -6    0.15    1.70
  13  -2  -7    2.66    1.24
  13  -2  -7    4.08    1.91
  13  -2  -8   14.31    2.58
  13  -2  -8   13.68    2.55
  13  -2  -9    0.62    1.66
  13  -2 -10    7.97    2.25
  13  -2 -11    0.43    2.21
  13  -2 -12    4.97    2.19
  13  -2 -13    1.44    2.46
  13  -3  13    4.18    2.86
  13  -3  12    3.41    2.76
  13  -3  11    4.93    2.65
  13  -3  10    9.51    2.70
  13  -3   9    0.67    2.19
  13  -3   8    2.83    1.74
  13  -3   7   12.83    2.78
  13  -3   6    8.19    2.50
  13  -3   5    0.80    1.11
  13  -3   5    2.86    2.10
  13  -3   4   12.76    2.49
  13  -3   4   11.57    1.62
  13  -3   3   10.95    1.64
  13  -3   3    9.97    2.37
  13  -3   2   58.36    3.55
  13  -3   2   68.11    4.41
  13  -3   1    3.63    1.51
  13  -3   1    2.78    1.91
  13  -3   0    0.53    1.74
  13  -3   0    1.15    1.53
  13  -3  -1    1.18    1.75
  13  -3  -1   -0.46    1.29
  13  -3  -2   60.56    3.95
  13  -3  -2   69.28    4.38
  13  -3  -3    9.24    1.99
  13  -3  -3   11.22    2.25
  13  -3  -4    7.32    1.88
  13  -3  -4   12.49    2.50
  13  -3  -5    1.48    1.69
  13  -3  -5    2.60    1.76
  13  -3  -6    6.81    2.00
  13  -3  -6    6.48    2.10
  13  -3  -7   15.18    2.43
  13  -3  -7   14.01    2.44
  13  -3  -8   -0.32    1.75
  13  -3  -8    3.35    1.74
  13  -3  -9   -2.02    1.59
  13  -3 -10   12.92    2.55
  13  -3 -11   -0.79    1.78
  13  -3 -12    4.07    2.47
  13  -3 -13   -0.51    1.98
  13  -4  13    3.03    3.24
  13  -4  12   -4.22    2.18
  13  -4  11   12.47    3.06
  13  -4  10    1.35    2.34
  13  -4   9   15.33    2.87
  13  -4   8    2.28    1.72
  13  -4   7    0.66    1.61
  13  -4   6   40.76    3.67
  13  -4   5   25.54    3.14
  13  -4   4    8.89    1.45
  13  -4   4    6.60    2.27
  13  -4   3   74.13    3.95
  13  -4   3   75.10    4.85
  13  -4   2   36.08    3.45
  13  -4   2   37.65    2.73
  13  -4   1   16.94    2.61
  13  -4   1   14.55    1.76
  13  -4   0    1.77    1.27
  13  -4   0   -0.07    1.75
  13  -4  -1   16.01    2.49
  13  -4  -1   15.94    2.23
  13  -4  -2   33.35    2.91
  13  -4  -2   34.19    3.33
  13  -4  -3   69.49    4.28
  13  -4  -3   71.39    4.62
  13  -4  -4    9.35    2.04
  13  -4  -4    7.47    2.12
  13  -4  -5   22.27    2.85
  13  -4  -5   20.15    2.54
  13  -4  -6   48.62    3.70
  13  -4  -6   46.47    4.14
  13  -4  -7   -0.12    1.57
  13  -4  -7    0.64    1.69
  13  -4  -8    1.44    1.79
  13  -4  -8    3.19    2.11
  13  -4  -9   16.85    2.75
  13  -4 -10    5.18    2.07
  13  -4 -11    9.42    2.42
  13  -4 -12    1.71    1.96
  13  -4 -13   -2.18    1.84
  13  -5  13    5.27    2.86
  13  -5  12    0.55    2.43
  13  -5  11    3.86    2.49
  13  -5  10    9.47    2.67
  13  -5   9    0.24    2.10
  13  -5   8    1.18    2.15
  13  -5   7   17.51    2.90
  13  -5   6    3.11    2.18
  13  -5   5   18.45    2.82
  13  -5   4   42.12    2.58
  13  -5   4   44.35    3.85
  13  -5   3   27.05    3.08
  13  -5   3   26.45    2.16
  13  -5   2   16.51    2.59
  13  -5   2   15.29    1.78
  13  -5   1   24.47    2.83
  13  -5   1   21.99    2.19
  13  -5   0   11.55    1.83
  13  -5   0   10.54    2.26
  13  -5  -1   22.52    2.26
  13  -5  -1   25.26    2.78
  13  -5  -2   18.12    2.57
  13  -5  -2   19.40    2.21
  13  -5  -3   25.45    2.93
  13  -5  -3   22.39    2.49
  13  -5  -4   39.04    3.67
  13  -5  -4   38.86    3.30
  13  -5  -5   21.89    2.83
  13  -5  -5   14.14    2.34
  13  -5  -6    5.25    1.90
  13  -5  -6    5.76    1.91
  13  -5  -7   13.83    2.43
  13  -5  -7   20.82    2.76
  13  -5  -8    2.05    1.82
  13  -5  -8    1.71    1.85
  13  -5  -9    1.38    1.93
  13  -5 -10   12.45    2.52
  13  -5 -11    4.66    2.15
  13  -5 -12   -2.11    1.76
  13  -5 -13    6.43    2.46
  13  -6  13    2.34    2.61
  13  -6  12   -2.20    2.27
  13  -6  11   -0.43    2.18
  13  -6  10    2.21    2.31
  13  -6   9    2.67    2.23
  13  -6   8   10.43    2.57
  13  -6   7    9.44    2.53
  13  -6   6   -3.41    1.89
  13  -6   5    2.24    1.57
  13  -6   4   46.81    2.69
  13  -6   4   44.06    3.91
  13  -6   3   24.18    2.94
  13  -6   3   27.24    2.15
  13  -6   2    0.53    1.80
  13  -6   2    1.22    1.26
  13  -6   1    5.76    2.03
  13  -6   1    8.10    1.55
  13  -6   0    4.14    1.50
  13  -6   0    4.19    1.87
  13  -6  -1    6.80    0.66
  13  -6  -1    3.45    1.80
  13  -6  -1    7.01    1.54
  13  -6  -2    1.63    1.67
  13  -6  -2    0.08    1.28
  13  -6  -3   26.70    2.95
  13  -6  -3   20.95    2.42
  13  -6  -4   48.47    4.24
  13  -6  -4   49.49    3.53
  13  -6  -5    4.90    1.79
  13  -6  -5    4.05    2.17
  13  -6  -6    0.17    1.68
  13  -6  -6    1.75    1.73
  13  -6  -7   11.05    2.36
  13  -6  -7   10.58    2.27
  13  -6  -8    9.14    2.29
  13  -6  -8    8.19    2.18
  13  -6  -9    0.49    1.82
  13  -6 -10    3.05    2.20
  13  -6 -11    0.07    1.86
  13  -6 -12    0.33    1.92
  13  -6 -13    0.33    1.95
  13  -7  13   -0.65    2.47
  13  -7  12    3.75    2.53
  13  -7  11    2.01    2.38
  13  -7  10    1.45    2.29
  13  -7   9    2.55    2.17
  13  -7   8    7.21    2.44
  13  -7   7    7.61    2.44
  13  -7   6   -0.24    2.05
  13  -7   5    1.44    2.02
  13  -7   4   50.06    3.83
 -13   7  -4   42.94    2.51
  13  -7   3   25.48    3.00
  13  -7   3   25.27    2.07
  13  -7   2    0.89    1.26
  13  -7   2    0.11    1.73
  13  -7   1    5.80    1.48
  13  -7   1    6.86    1.13
  13  -7   1    8.61    2.07
  13  -7   0    1.28    1.73
  13  -7   0    4.61    0.94
  13  -7   0    4.83    1.53
  13  -7  -1    6.91    1.63
  13  -7  -1    7.44    1.73
  13  -7  -1    5.68    0.79
  13  -7  -2    2.97    1.64
  13  -7  -2    0.02    1.57
  13  -7  -3   28.18    2.85
  13  -7  -3   24.42    2.98
  13  -7  -4   45.03    3.66
  13  -7  -4   41.83    3.28
  13  -7  -5    3.46    1.71
  13  -7  -5    3.17    1.81
  13  -7  -6    0.53    1.64
  13  -7  -6   -1.35    1.54
  13  -7  -7    8.50    2.28
  13  -7  -7   11.90    2.36
  13  -7  -8    6.34    2.03
  13  -7  -8    5.23    2.06
  13  -7  -9    2.17    1.90
  13  -7 -10    1.51    1.92
  13  -7 -11    1.37    1.92
  13  -7 -12   -0.26    1.94
  13  -7 -13    1.80    2.22
  13  -8  13    2.08    3.01
  13  -8  12   -1.97    2.28
  13  -8  11    8.41    2.70
  13  -8  10   12.13    2.71
  13  -8   9    2.21    2.17
  13  -8   8    1.07    2.13
  13  -8   7   17.60    2.90
  13  -8   6    2.29    2.13
  13  -8   5   16.89    2.75
  13  -8   4   41.09    3.66
 -13   8  -4   36.11    2.34
  13  -8   3   29.98    3.16
 -13   8  -3   26.80    2.10
  13  -8   2   17.67    1.84
  13  -8   2   15.86    2.51
 -13   8  -2   15.11    1.74
  13  -8   1   29.33    2.38
  13  -8   1   23.56    1.98
  13  -8   1   22.14    2.82
  13  -8   0   11.61    1.71
  13  -8   0    6.87    1.93
  13  -8   0   12.08    1.28
  13  -8  -1   27.95    2.89
  13  -8  -1   19.49    1.60
  13  -8  -1   24.16    2.31
  13  -8  -2   17.17    2.28
  13  -8  -2   16.56    2.15
  13  -8  -3   25.08    2.61
  13  -8  -3   27.20    3.00
  13  -8  -4   43.84    3.89
  13  -8  -4   43.61    3.36
  13  -8  -5   16.06    2.58
  13  -8  -5   17.99    2.50
  13  -8  -6    3.25    1.85
  13  -8  -6    2.41    1.95
  13  -8  -7   18.21    2.79
  13  -8  -7   12.38    2.41
  13  -8  -8    1.52    1.81
  13  -8  -9    1.57    1.83
  13  -8 -10   12.70    2.55
  13  -8 -11    3.44    2.09
  13  -8 -12   -1.18    1.88
 -13   8  12    2.50    2.68
 -13   8  13    1.85    2.71
  13  -9  13   -0.93    2.32
  13  -9  12    3.73    2.45
  13  -9  11   10.48    2.68
  13  -9  10    5.48    2.38
  13  -9   9   15.82    2.81
  13  -9   8    0.48    2.10
  13  -9   7    3.02    2.12
  13  -9   6   35.81    3.59
  13  -9   5   21.85    2.91
  13  -9   4   10.85    1.86
  13  -9   4    4.39    2.15
 -13   9  -4    7.21    1.29
  13  -9   3   73.50    4.81
  13  -9   3   77.60    4.25
 -13   9  -3   74.26    3.94
  13  -9   2   33.77    2.46
  13  -9   2   35.27    3.33
 -13   9  -2   33.99    2.44
  13  -9   1   19.19    2.55
  13  -9   1   14.19    1.62
 -13   9  -1   16.60    1.88
  13  -9   0    1.64    1.05
  13  -9   0    2.25    1.73
 -13   9   0    0.73    0.33
  13  -9  -1   14.59    1.52
  13  -9  -1   14.42    2.32
 -13   9   1    9.90    1.74
  13  -9  -2   36.70    2.89
  13  -9  -2   37.28    3.40
  13  -9  -3   69.31    4.30
  13  -9  -3   76.79    4.78
  13  -9  -4    8.13    2.15
  13  -9  -4   11.17    2.13
  13  -9  -5   20.49    2.62
  13  -9  -5   23.03    2.93
  13  -9  -6   49.03    3.97
  13  -9  -6   33.35    3.65
  13  -9  -7    1.69    1.86
  13  -9  -7    1.73    1.89
  13  -9  -8    0.97    1.77
  13  -9  -9   14.84    2.64
 -13   9   9   15.75    2.82
 -13   9  10    1.16    2.02
 -13   9  11    8.13    2.57
 -13   9  12    3.05    2.39
 -13   9  13    1.91    2.31
  13 -10  13    0.81    2.25
  13 -10  13    4.47    2.56
  13 -10  12   -1.37    2.18
  13 -10  11    1.45    2.19
  13 -10  10   10.82    2.64
  13 -10   9    0.12    2.41
  13 -10   8    4.12    1.99
  13 -10   8    5.85    2.29
  13 -10   7   13.68    2.36
  13 -10   7   14.95    2.69
  13 -10   6    6.79    1.95
  13 -10   6    6.62    2.29
  13 -10   5    0.95    1.72
  13 -10   5    1.93    1.97
  13 -10   4    9.62    1.94
  13 -10   4   10.63    2.36
 -13  10  -4   12.91    1.56
  13 -10   3   10.25    2.33
  13 -10   3   10.12    1.94
 -13  10  -3    9.49    1.49
  13 -10   2   58.86    3.62
  13 -10   2   63.91    4.24
 -13  10  -2   56.73    3.42
  13 -10   1    1.20    1.26
  13 -10   1   -0.18    1.63
 -13  10  -1    0.33    1.26
  13 -10   0    3.81    1.84
  13 -10   0    2.92    1.20
 -13  10   0    1.44    0.68
  13 -10  -1    0.28    1.22
  13 -10  -1   -0.63    1.56
 -13  10   1    0.40    1.29
  13 -10  -2   62.94    4.28
 -13  10   2   60.85    4.13
  13 -10  -3    7.53    2.08
 -13  10   3    8.15    1.92
  13 -10  -4   14.43    2.40
 -13  10   4    8.92    2.08
  13 -10  -5   -0.28    1.70
 -13  10   5   -0.03    1.65
  13 -10  -6    9.80    2.36
 -13  10   6    6.92    2.25
  13 -10  -7   12.61    2.57
 -13  10   7   15.38    2.69
 -13  10   8    0.85    1.98
 -13  10   9    2.52    2.02
 -13  10  10   12.47    2.84
 -13  10  11    0.45    2.24
 -13  10  12   -0.13    2.19
 -13  10  13   -2.73    2.16
  13 -11  13    0.45    2.34
  13 -11  13   -1.67    2.19
  13 -11  12    3.11    2.38
  13 -11  12    2.95    2.28
  13 -11  11   -0.38    2.51
  13 -11  11   -0.52    1.99
  13 -11  10   10.35    2.98
  13 -11  10    8.80    2.47
  13 -11   9    0.01    2.00
  13 -11   9   -0.76    1.76
  13 -11   8   11.36    2.49
  13 -11   8   13.09    2.42
  13 -11   7    0.18    1.95
  13 -11   7    0.98    1.71
  13 -11   6   -0.50    1.99
  13 -11   6    3.00    2.07
  13 -11   5   -1.17    1.83
  13 -11   5   -1.39    1.73
  13 -11   4    3.43    1.99
  13 -11   4    1.46    0.92
 -13  11  -4    0.97    1.33
  13 -11   3   -0.28    1.80
  13 -11   3    4.85    1.66
 -13  11  -3    1.51    1.29
  13 -11   2   34.93    3.32
  13 -11   2   32.36    2.69
 -13  11  -2   33.72    2.67
  13 -11   1    4.19    1.47
  13 -11   1    2.03    1.50
 -13  11  -1    3.53    1.48
  13 -11   0   75.89    4.49
  13 -11   0   73.65    3.89
 -13  11   0   48.29    3.54
  13 -11  -1    2.85    1.76
  13 -11  -1    3.15    1.50
 -13  11   1    3.18    1.76
  13 -11  -2   35.21    3.21
 -13  11   2   33.46    3.06
  13 -11  -3    1.40    1.34
 -13  11   3    0.08    1.58
  13 -11  -4    2.65    1.80
 -13  11   4    2.17    1.75
  13 -11  -5    3.18    1.85
 -13  11   5   -0.90    1.75
  13 -11  -6   -0.23    1.76
 -13  11   6    1.84    2.30
  13 -11  -7    1.35    1.90
 -13  11   7    1.37    2.34
 -13  11   8   19.11    2.99
 -13  11   9    1.28    2.08
 -13  11  10    7.55    2.61
 -13  11  11    5.13    2.47
 -13  11  12    4.63    2.54
 -13  11  13   -1.86    2.28
  13 -12  12   -0.03    2.07
  13 -12  12    2.89    2.73
  13 -12  11   -0.46    2.06
  13 -12  11    0.32    2.14
  13 -12  10   -0.26    2.38
  13 -12  10   -2.92    2.18
  13 -12   9   -1.29    1.88
  13 -12   9   -1.91    1.70
  13 -12   8    5.94    2.20
  13 -12   8    4.47    2.09
  13 -12   7   10.34    2.26
  13 -12   7    9.00    2.37
  13 -12   6    1.38    2.35
  13 -12   6    1.77    2.04
  13 -12   5    8.33    2.01
  13 -12   5    9.30    2.66
  13 -12   4    7.03    2.12
  13 -12   4    2.58    1.34
 -13  12  -4    9.79    1.67
  13 -12   3    3.63    1.74
  13 -12   3    1.07    1.83
 -13  12  -3    1.14    1.50
  13 -12   2    4.86    1.90
  13 -12   2    5.29    1.81
 -13  12  -2    6.19    1.59
  13 -12   1   32.33    3.23
  13 -12   1   30.77    2.77
 -13  12  -1   31.52    2.87
  13 -12   0   50.39    3.44
  13 -12   0   40.16    3.64
 -13  12   0   42.10    3.34
  13 -12  -1   25.09    2.98
  13 -12  -1   27.91    2.71
 -13  12   1   34.38    3.03
  13 -12  -2    5.09    1.67
 -13  12   2    7.18    2.10
  13 -12  -3    2.60    1.76
 -13  12   3    2.09    1.66
  13 -12  -4    8.48    2.14
 -13  12   4    7.87    2.11
  13 -12  -5    5.28    1.69
 -13  12   5   10.22    2.41
  13 -12  -6    3.03    1.97
 -13  12   6    6.15    2.21
 -13  12   7    9.98    2.42
 -13  12   8    3.61    2.18
 -13  12   9    3.55    2.25
 -13  12  10   -0.16    2.11
 -13  12  11   -1.00    2.13
 -13  12  12    3.27    2.53
  13 -13  12    1.20    2.37
  13 -13  12    2.84    2.74
  13 -13  11    0.13    2.47
  13 -13  11    3.42    2.61
  13 -13  10    4.01    2.22
  13 -13  10    4.15    2.20
  13 -13   9   -0.14    1.97
  13 -13   9    0.32    2.31
  13 -13   8    0.05    1.86
  13 -13   8    2.41    1.93
  13 -13   7   21.01    3.07
  13 -13   7   14.89    2.66
  13 -13   6   29.25    3.18
  13 -13   6   34.93    3.67
  13 -13   5   16.96    2.47
  13 -13   5   15.39    2.94
  13 -13   4   10.39    2.36
  13 -13   4   13.68    2.44
 -13  13  -4   12.76    2.02
  13 -13   3    1.90    1.66
  13 -13   3   -0.62    1.71
 -13  13  -3   -2.05    1.54
  13 -13   2   28.65    3.12
  13 -13   2   28.43    2.90
 -13  13  -2   33.11    2.89
  13 -13   1   38.12    3.07
  13 -13   1   27.02    3.07
 -13  13  -1   30.18    2.73
  13 -13   0   -0.77    1.72
  13 -13   0    0.41    1.71
 -13  13   0    1.24    1.51
  13 -13  -1   42.30    3.72
  13 -13  -1   37.13    3.44
 -13  13   1   41.36    3.51
  13 -13  -2   29.50    3.20
 -13  13   2   35.86    3.30
  13 -13  -3    1.84    1.78
 -13  13   3   -2.30    1.86
  13 -13  -4    7.78    2.19
 -13  13   4    7.56    2.19
  13 -13  -5   17.01    2.65
 -13  13   5   16.66    2.90
  13 -13  -6   29.07    3.41
 -13  13   6   36.93    3.71
 -13  13   7   15.37    2.82
 -13  13   8   -1.93    1.85
 -13  13   9   -3.53    2.20
 -13  13  10    9.28    2.67
 -13  13  11    2.60    2.40
 -13  13  12   -0.09    2.30
  13 -14  12    4.17    2.50
  13 -14  12    6.12    2.63
  13 -14  11    0.46    2.07
  13 -14  11    1.78    2.27
  13 -14  10    4.87    2.59
  13 -14  10    0.33    2.16
  13 -14   9   -0.43    2.03
  13 -14   9   -0.19    1.91
  13 -14   8    8.41    2.25
  13 -14   8    4.96    2.21
  13 -14   7   -1.31    2.10
  13 -14   7   -1.55    2.06
  13 -14   6   26.91    3.15
  13 -14   6   30.92    3.45
  13 -14   5   -0.44    2.20
  13 -14   5   -0.14    2.08
  13 -14   4    1.02    1.75
  13 -14   4   -0.83    1.66
 -13  14  -4   -1.87    1.58
  13 -14   3   -0.36    0.78
  13 -14   3    1.41    1.82
 -13  14  -3    1.39    1.66
  13 -14   2   18.99    2.74
  13 -14   2   23.20    2.80
 -13  14  -2   24.24    2.71
  13 -14   1   -0.32    1.93
  13 -14   1    0.60    1.68
 -13  14  -1   -0.20    0.77
  13 -14   0   39.76    3.69
  13 -14   0   47.73    3.78
 -13  14   0   47.69    3.62
  13 -14  -1    0.03    1.76
  13 -14  -1   -0.49    1.84
 -13  14   1   -2.68    1.41
  13 -14  -2   20.95    2.84
 -13  14   2   22.01    2.92
  13 -14  -3    3.62    1.86
 -13  14   3   -1.44    1.62
  13 -14  -4   -0.45    1.72
 -13  14   4   -0.49    1.75
  13 -14  -5    3.36    1.87
 -13  14   5    2.57    1.94
  13 -14  -6   25.58    3.22
 -13  14   6   26.64    3.25
 -13  14   7   -1.11    1.85
 -13  14   8    8.03    2.49
 -13  14   9   -2.16    1.86
 -13  14  10    3.23    2.43
 -13  14  11   -1.43    2.18
 -13  14  12    2.94    2.57
  13 -15  11   -1.76    2.15
  13 -15  10    2.51    2.64
  13 -15  10    1.82    1.98
  13 -15   9    0.08    2.11
  13 -15   9    1.37    2.27
  13 -15   8   -1.26    1.89
  13 -15   8   -1.63    2.09
  13 -15   7   11.77    2.36
  13 -15   7    7.23    2.27
  13 -15   6   11.45    2.30
  13 -15   6    8.29    2.30
  13 -15   5   -0.68    1.69
  13 -15   5   -0.15    1.87
  13 -15   4    5.41    2.33
  13 -15   4    9.16    2.49
 -13  15  -4    9.75    2.09
  13 -15   3    1.09    2.09
  13 -15   3    2.31    2.19
 -13  15  -3    0.20    1.65
  13 -15   2    4.82    1.78
  13 -15   2    9.35    2.49
 -13  15  -2    7.23    2.05
  13 -15   1   16.66    2.53
  13 -15   1   20.08    3.02
 -13  15  -1    9.61    2.00
  13 -15   0    1.12    2.10
  13 -15   0   -1.62    1.71
 -13  15   0    2.35    1.75
  13 -15  -1   18.85    2.88
  13 -15  -1   14.82    2.48
 -13  15   1   12.86    2.62
  13 -15  -2    9.27    2.18
 -13  15   2    7.63    2.15
  13 -15  -3    2.57    1.91
 -13  15   3    1.97    1.90
  13 -15  -4   10.84    2.30
 -13  15   4    9.08    2.37
  13 -15  -5    2.94    1.93
 -13  15   5    0.47    1.92
 -13  15   7   12.45    2.95
 -13  15   8    3.28    2.23
 -13  15   9    4.73    2.73
 -13  15  10    4.14    2.50
 -13  15  11   -0.73    2.33
  13 -16  11    1.85    2.42
  13 -16  10   -2.89    2.06
  13 -16   9    2.92    2.31
  13 -16   9    0.13    1.82
  13 -16   8    3.46    2.21
  13 -16   8    9.03    2.47
  13 -16   7    3.09    1.89
  13 -16   7    0.42    2.05
  13 -16   6    3.09    1.81
  13 -16   6    1.40    2.11
  13 -16   5    1.43    2.35
  13 -16   5   -2.22    1.50
  13 -16   4   -1.52    1.76
  13 -16   4   -3.57    1.41
 -13  16  -4    2.81    1.95
  13 -16   3    9.76    2.60
  13 -16   3    3.80    1.88
 -13  16  -3    7.17    2.16
  13 -16   2    1.07    2.07
  13 -16   2    2.25    1.93
 -13  16  -2    5.94    2.11
  13 -16   1    4.54    2.25
  13 -16   1    3.89    2.05
 -13  16  -1    0.67    1.68
  13 -16   0    1.27    1.79
  13 -16   0    5.44    2.15
 -13  16   0    1.81    1.82
  13 -16  -1    2.68    2.38
  13 -16  -1    0.92    1.75
 -13  16   1   -1.14    2.08
  13 -16  -2    1.93    2.06
 -13  16   2    2.19    1.87
  13 -16  -3    5.72    1.99
 -13  16   3    4.65    2.07
  13 -16  -4   -2.14    1.57
 -13  16   4    1.75    2.05
  13 -16  -5   -0.44    1.68
 -13  16   5    1.25    2.00
 -13  16   6    2.21    2.15
 -13  16   7   -0.73    2.10
 -13  16   8    3.55    2.38
 -13  16   9   -0.99    2.23
 -13  16  10    1.66    2.45
 -13  16  11    5.83    3.22
  13 -17  10    8.49    3.21
  13 -17   9    0.23    2.33
  13 -17   8    2.06    2.42
  13 -17   8    1.34    2.12
  13 -17   7    4.72    2.45
  13 -17   7    4.20    2.09
  13 -17   6    2.72    2.27
  13 -17   6    3.37    2.06
  13 -17   5   -0.56    1.99
  13 -17   5    0.62    1.58
  13 -17   4    4.35    2.53
  13 -17   4    0.20    1.67
 -13  17  -4    2.24    1.97
  13 -17   3    2.96    2.42
  13 -17   3    2.52    1.78
 -13  17  -3    0.18    1.93
  13 -17   2   15.19    3.07
  13 -17   2   16.98    2.57
  13 -17   1    6.73    1.98
  13 -17   1    2.32    1.16
 -13  17  -1    5.52    2.29
  13 -17   0    1.91    1.79
  13 -17   0    4.51    2.21
 -13  17   0    0.76    2.13
  13 -17  -1    9.04    2.42
  13 -17  -1    9.38    2.70
 -13  17   1    8.54    2.19
  13 -17  -2   12.52    2.34
 -13  17   2   14.61    2.64
  13 -17  -3    0.15    1.69
 -13  17   3    0.31    1.97
  13 -17  -4    0.46    1.69
 -13  17   4    3.37    2.45
 -13  17   5   -1.72    1.90
 -13  17   6    2.98    2.20
 -13  17   7    4.55    2.36
 -13  17   8    0.12    2.27
 -13  17   9   -0.24    2.23
 -13  17  10   10.86    3.38
  13 -18  10    3.06    2.67
  13 -18   9    0.65    2.41
  13 -18   8    2.41    2.49
  13 -18   7    6.70    3.00
  13 -18   6    0.98    1.93
  13 -18   6    2.15    2.67
  13 -18   5   -1.57    2.51
  13 -18   5    1.88    2.01
  13 -18   4   10.28    3.01
  13 -18   4    9.47    2.14
 -13  18  -4    8.62    2.38
  13 -18   3    3.72    2.84
  13 -18   3    4.21    1.84
 -13  18  -3    5.67    2.37
  13 -18   2    9.10    3.01
  13 -18   2    9.57    2.22
 -13  18  -2   10.52    2.41
  13 -18   1    0.99    1.62
  13 -18   1    1.35    2.52
 -13  18  -1    0.92    1.82
  13 -18   0    7.25    2.32
 -13  18   0    9.28    2.60
  13 -18  -1    1.95    2.02
  13 -18  -1   -1.77    2.27
 -13  18   1   -0.52    1.79
  13 -18  -2   10.88    2.57
 -13  18   2    8.48    2.44
  13 -18  -3    6.09    2.16
 -13  18   3    2.16    2.12
 -13  18   4    9.31    2.90
 -13  18   5    1.71    2.61
 -13  18   6    0.61    2.13
 -13  18   7    4.82    2.56
 -13  18   8    2.04    2.37
 -13  18   9   -1.32    2.18
 -13  18  10    4.51    2.79
  13 -19   9   -0.90    2.56
  13 -19   8    2.60    3.03
  13 -19   7   -1.39    2.27
  13 -19   6    1.70    2.43
  13 -19   5    3.33    2.57
  13 -19   5    3.11    2.07
  13 -19   4    3.81    2.06
  13 -19   4    1.26    2.92
 -13  19  -4    1.85    2.05
  13 -19   3    8.37    2.43
  13 -19   3    8.27    2.76
 -13  19  -3   11.30    2.59
  13 -19   2    1.36    2.67
  13 -19   2    0.75    2.03
 -13  19  -2    1.17    2.30
  13 -19   1   -1.29    1.59
  13 -19   1   -1.39    2.12
 -13  19  -1    1.72    1.92
  13 -19   0    4.56    1.96
  13 -19   0    6.66    2.99
 -13  19   0    1.25    2.03
  13 -19  -1    0.71    0.90
  13 -19  -1    0.50    2.06
 -13  19   1    0.74    2.05
  13 -19  -2    3.87    1.92
 -13  19   2    3.95    2.62
 -13  19   3    6.77    2.44
 -13  19   4    1.17    2.18
 -13  19   5    5.87    2.49
 -13  19   6    5.80    2.65
 -13  19   7   -2.45    2.07
 -13  19   8   -2.51    2.21
 -13  19   9   -0.31    2.37
  13 -20   8   -0.45    3.02
  13 -20   7    2.26    2.57
  13 -20   6   -1.27    2.37
  13 -20   5    1.20    3.04
  13 -20   4    4.82    2.72
 -13  20  -4    0.43    2.15
  13 -20   3   -2.35    2.33
  13 -20   3   -0.66    1.88
 -13  20  -3    0.60    0.92
  13 -20   2   -1.51    2.78
  13 -20   2    0.24    1.64
 -13  20  -2    0.31    2.37
  13 -20   1    0.88    2.80
  13 -20   1    0.56    1.99
 -13  20  -1   -3.53    1.77
  13 -20   0    2.19    2.63
  13 -20   0    5.54    2.28
 -13  20   0    4.12    2.34
  13 -20  -1    0.08    1.76
  13 -20  -1    0.78    2.88
 -13  20   1    1.30    2.12
  13 -20  -2   -1.74    1.78
 -13  20   2   -0.45    2.06
 -13  20   3    2.00    2.25
 -13  20   4    5.55    2.49
 -13  20   5    6.77    3.12
 -13  20   6    1.15    2.34
 -13  20   7   -1.21    2.28
 -13  20   8    5.28    2.73
  13 -21   6    2.30    2.76
  13 -21   5   -1.03    2.63
  13 -21   4    0.15    2.71
 -13  21  -4    1.98    2.30
  13 -21   3    6.94    2.88
 -13  21  -3   -0.67    1.91
  13 -21   2   -0.19    1.90
  13 -21   2   -0.04    2.43
 -13  21  -2   -1.69    2.36
  13 -21   1    0.51    3.02
  13 -21   1    2.76    2.09
 -13  21  -1   -0.11    2.45
  13 -21   0    0.60    1.74
  13 -21   0    0.45    2.83
 -13  21   0    3.73    2.73
  13 -21  -1    2.73    2.03
 -13  21   1   -3.83    1.91
 -13  21   2   -3.12    2.05
 -13  21   3    3.41    2.84
 -13  21   4   -3.28    1.97
 -13  21   5    4.39    2.99
 -13  21   6   -0.05    2.40
  13 -22   5    0.30    2.82
  13 -22   4    5.36    2.99
  13 -22   3    0.06    2.57
 -13  22  -3    4.47    2.66
  13 -22   2    3.69    2.90
 -13  22  -2   -0.69    2.50
  13 -22   1    0.01    2.60
 -13  22  -1   -1.57    2.53
  13 -22   0    1.78    3.12
 -13  22   0    0.08    2.23
 -13  22   1    5.00    2.88
 -13  22   2    2.01    2.80
 -13  22   3   -1.43    2.26
 -13  22   4    8.57    3.13
 -13  22   5   -0.31    2.36
  13 -23   2    4.08    3.53
 -13  23  -2   -1.13    2.11
  13 -23   1    4.62    3.00
 -13  23  -1    4.48    2.92
  13 -23   0   -0.21    2.64
 -13  23   0    2.48    2.35
 -13  23   1    2.18    2.57
 -13  23   2    1.27    2.45
  14   9   2   -1.60    1.94
  14   9   1    1.67    2.05
  14   9   0    3.60    2.74
  14   9  -2   -1.23    1.95
  14   8   5   -0.33    2.23
  14   8   4    3.95    2.50
  14   8   3   -0.21    1.92
  14   8   2   -1.98    1.86
  14   8   1    0.16    1.96
  14   8   0   -1.25    1.88
  14   8  -1   -1.03    2.00
  14   8  -2   -1.16    2.01
  14   8  -3    2.18    2.25
  14   8  -4    6.45    2.82
  14   8  -5   -0.54    2.08
  14   7   6    0.76    2.19
  14   7   5    1.26    2.20
  14   7   5    1.30    2.19
  14   7   4    0.83    1.99
  14   7   4    1.39    2.26
  14   7   3    0.25    2.22
  14   7   3    3.75    2.37
  14   7   2    1.04    2.25
  14   7   1    0.01    1.90
  14   7   0    2.54    2.07
  14   7  -1   -0.84    1.89
  14   7  -2    3.60    2.23
  14   7  -3    3.22    2.23
  14   7  -4    1.98    2.45
  14   7  -5   -0.67    2.02
  14   7  -6    0.09    2.53
  14   6   7   -4.43    2.07
  14   6   6    3.97    2.38
  14   6   5    4.58    2.17
  14   6   5   -1.85    2.49
  14   6   4    6.13    2.38
  14   6   4    5.73    2.66
  14   6   3    2.09    1.92
  14   6   3    1.71    1.56
  14   6   2    3.93    2.14
  14   6   2    3.65    2.23
  14   6   1    0.08    1.81
  14   6   0   -1.50    2.17
  14   6  -1    2.98    2.07
  14   6  -2    6.03    2.28
  14   6  -3    6.85    2.41
  14   6  -4    6.01    2.32
  14   6  -5   -1.14    1.93
  14   6  -6   -2.64    1.84
  14   6  -7    0.42    2.55
  14   5   8    3.10    2.58
  14   5   7    3.75    2.83
  14   5   6   -0.44    2.63
  14   5   5    8.76    2.40
  14   5   5    8.42    2.98
  14   5   4   10.61    2.50
  14   5   4    8.36    2.75
  14   5   3    0.76    1.98
  14   5   3    2.34    2.42
  14   5   2   -1.33    0.88
  14   5   2    3.28    1.86
  14   5   1   10.22    2.61
  14   5   1    5.29    2.11
  14   5   0    0.38    2.07
  14   5   0    1.29    1.86
  14   5  -1    7.28    2.27
  14   5  -2   -0.08    1.84
  14   5  -3    3.42    2.09
  14   5  -4    7.99    2.63
  14   5  -5    5.26    2.30
  14   5  -6   -0.56    1.90
  14   5  -7    2.77    2.21
  14   5  -8    1.25    2.13
  14   4   9    6.56    2.89
  14   4   8   -2.26    2.23
  14   4   7    2.65    2.35
  14   4   6    3.26    2.41
  14   4   5    5.18    2.40
  14   4   5    6.66    2.08
  14   4   4    1.15    1.83
  14   4   4    0.30    2.38
  14   4   3   15.67    3.05
  14   4   3   16.03    2.62
  14   4   2    1.74    1.70
  14   4   2    3.66    2.08
  14   4   1   -2.14    1.87
  14   4   1    2.42    2.00
  14   4   0   12.88    2.67
  14   4   0    9.30    2.23
  14   4  -1    2.04    1.89
  14   4  -1    2.36    2.04
  14   4  -2    1.98    1.93
  14   4  -3   14.44    2.70
  14   4  -4    0.61    1.95
  14   4  -5    4.04    2.10
  14   4  -6    5.07    2.29
  14   4  -7    2.53    2.00
  14   4  -8    2.23    2.21
  14   4  -9   10.41    2.75
  14   3  10    4.24    2.84
  14   3   9    3.33    2.63
  14   3   8    1.81    2.42
  14   3   7    5.93    2.58
  14   3   6    5.72    2.44
  14   3   5   -1.16    1.97
  14   3   5    1.32    1.84
  14   3   4   -0.26    1.67
  14   3   4    1.44    2.04
  14   3   3    3.93    2.06
  14   3   3    2.95    2.10
  14   3   2   13.03    2.42
  14   3   2   11.91    2.80
  14   3   1    0.52    1.65
  14   3   1    0.01    1.64
  14   3   0   -0.40    1.64
  14   3   0   -0.25    1.67
  14   3  -1    3.76    1.92
  14   3  -1    2.14    2.15
  14   3  -2   10.89    2.43
  14   3  -2   11.95    2.39
  14   3  -3    4.61    2.00
  14   3  -3    2.77    1.91
  14   3  -4    1.34    2.20
  14   3  -5    1.34    1.86
  14   3  -6    6.69    2.57
  14   3  -7    7.11    2.30
  14   3  -8    2.86    2.10
  14   3  -9    2.92    2.16
  14   3 -10    2.68    2.23
  14   2  11    0.12    2.69
  14   2  10    0.50    2.60
  14   2   9   -1.07    2.37
  14   2   8    3.37    3.05
  14   2   7    2.02    2.28
  14   2   6    3.46    2.32
  14   2   5    2.47    1.74
  14   2   5    0.30    2.01
  14   2   4    0.35    1.68
  14   2   4    1.50    1.97
  14   2   3    4.12    2.10
  14   2   3    3.73    1.70
  14   2   2   -0.94    1.70
  14   2   2    3.24    2.41
  14   2   1   -0.88    1.88
  14   2   1    3.87    1.99
  14   2   0    3.93    1.48
  14   2   0   12.64    2.32
  14   2  -1    2.76    1.86
  14   2  -1    1.69    2.11
  14   2  -2   -1.18    1.63
  14   2  -2   -2.19    1.72
  14   2  -3   -0.16    1.71
  14   2  -3    3.65    1.85
  14   2  -4    1.21    1.63
  14   2  -4    0.03    1.82
  14   2  -5   -0.80    1.72
  14   2  -6    4.42    1.97
  14   2  -7    1.85    1.95
  14   2  -8    3.33    2.10
  14   2  -9   -0.32    1.92
  14   2 -10    3.80    2.56
  14   1  11   -2.73    2.49
  14   1  10   -0.38    2.47
  14   1   9    1.53    2.43
  14   1   8    4.80    2.59
  14   1   7   12.19    2.82
  14   1   6    0.95    2.23
  14   1   5    2.09    1.72
  14   1   5    1.22    2.05
  14   1   4    0.05    2.38
  14   1   4    1.15    1.55
  14   1   3    1.13    1.68
  14   1   3    2.04    2.05
  14   1   2    1.69    2.07
  14   1   2    0.20    1.72
  14   1   1   31.19    3.60
  14   1   1   23.66    2.76
  14   1   0   34.06    3.40
  14   1   0   30.93    3.66
  14   1  -1   26.50    3.02
  14   1  -2   -0.15    1.95
  14   1  -2   -1.27    1.61
  14   1  -3    1.10    1.84
  14   1  -3    1.74    1.86
  14   1  -4    6.47    2.34
  14   1  -4    3.15    1.88
  14   1  -5    2.65    1.87
  14   1  -5    3.39    1.80
  14   1  -6    2.59    1.80
  14   1  -6    3.36    1.70
  14   1  -7    7.96    2.21
  14   1  -8    5.68    2.24
  14   1  -9    4.40    2.19
  14   1 -10   -0.17    1.81
  14   1 -11   -3.36    2.27
  14   0  11   -2.08    2.40
  14   0  10    1.78    2.52
  14   0   9    5.94    2.64
  14   0   8    1.42    2.38
  14   0   7    5.74    2.43
  14   0   6    2.79    2.22
  14   0   5   11.14    2.60
  14   0   5   14.40    2.01
  14   0   4    0.52    1.51
  14   0   4   -2.44    1.92
  14   0   3    2.84    1.69
  14   0   3    1.12    2.43
  14   0   2    6.97    2.02
  14   0   2    2.53    2.12
  14   0   1   59.06    4.69
  14   0   1   53.84    3.99
  14   0   0   16.73    2.76
  14   0   0   18.45    2.50
  14   0  -1   45.04    4.10
  14   0  -1   47.73    3.66
  14   0  -2    6.18    1.69
  14   0  -2    4.99    1.93
  14   0  -3   -1.24    1.77
  14   0  -3    5.11    1.93
  14   0  -4    3.05    1.68
  14   0  -4    0.54    1.70
  14   0  -5   12.84    2.42
  14   0  -5   10.39    2.36
  14   0  -6    3.11    1.90
  14   0  -6    2.19    1.75
  14   0  -7    9.80    2.37
  14   0  -7   14.01    2.38
  14   0  -8    4.47    2.02
  14   0  -9    5.95    2.25
  14   0 -10    2.70    2.14
  14   0 -11    3.91    2.20
  14  -1  12   -0.03    2.58
  14  -1  11    0.34    2.54
  14  -1  10    2.43    2.54
  14  -1   9    1.60    2.43
  14  -1   8    4.89    2.48
  14  -1   7   -0.28    2.13
  14  -1   6   33.41    3.72
  14  -1   5    2.94    1.72
  14  -1   5    0.21    2.01
  14  -1   4    0.75    1.62
  14  -1   4    1.80    2.17
  14  -1   3    2.15    1.74
  14  -1   3   -1.41    1.92
  14  -1   2   21.63    3.03
  14  -1   2   20.71    2.50
  14  -1   1   -1.25    1.91
  14  -1   1    0.19    1.43
  14  -1   0   43.42    3.34
  14  -1   0   50.08    3.97
  14  -1  -1   -1.86    1.72
  14  -1  -1   -0.13    1.57
  14  -1  -2   14.44    2.62
  14  -1  -2   22.93    2.86
  14  -1  -3    5.21    1.95
  14  -1  -3    1.00    1.74
  14  -1  -4    0.89    0.56
  14  -1  -4    0.20    1.66
  14  -1  -5    0.52    1.73
  14  -1  -5    0.83    1.60
  14  -1  -6   28.60    3.28
  14  -1  -6   32.65    3.45
  14  -1  -7    1.83    1.79
  14  -1  -7    2.52    1.80
  14  -1  -8    8.26    2.16
  14  -1  -8    4.35    1.97
  14  -1  -9    0.42    1.87
  14  -1 -10    3.59    2.11
  14  -1 -11    0.81    1.97
  14  -1 -12    1.74    2.12
  14  -2  12   -3.37    2.41
  14  -2  11    1.04    2.47
  14  -2  10    1.96    2.39
  14  -2   9   -0.91    2.13
  14  -2   8   -0.71    2.06
  14  -2   7   26.06    3.43
  14  -2   6    0.22    2.05
  14  -2   5    6.77    2.43
  14  -2   4    5.53    2.28
  14  -2   4    1.88    1.51
  14  -2   3   -2.29    1.44
  14  -2   3    0.35    2.03
  14  -2   2    1.98    1.52
  14  -2   2   -0.07    1.93
  14  -2   1   19.71    2.88
  14  -2   1   15.84    2.31
  14  -2   0   -0.86    1.81
  14  -2   0    3.56    1.56
  14  -2  -1   16.84    2.34
  14  -2  -1   25.89    3.29
  14  -2  -2    0.43    1.76
  14  -2  -2    1.18    1.61
  14  -2  -3   -1.69    1.63
  14  -2  -3   -1.05    1.56
  14  -2  -4    1.74    1.81
  14  -2  -4    4.71    2.21
  14  -2  -5    3.11    1.85
  14  -2  -5   -0.19    1.74
  14  -2  -6   -0.86    1.69
  14  -2  -6    1.00    0.48
  14  -2  -7   14.36    2.56
  14  -2  -7   15.68    2.36
  14  -2  -8    1.06    1.87
  14  -2  -8    0.31    1.79
  14  -2  -9    0.59    1.75
  14  -2 -10   -2.11    1.76
  14  -2 -11    3.43    2.18
  14  -2 -12    0.21    1.96
  14  -3  12   -0.34    2.55
  14  -3  11    4.46    2.71
  14  -3  10    2.14    2.36
  14  -3   9   10.35    2.78
  14  -3   8    7.49    2.53
  14  -3   7    4.25    2.37
  14  -3   6    2.53    1.72
  14  -3   5    8.67    2.52
  14  -3   4    5.75    2.32
  14  -3   4    3.19    1.44
  14  -3   3   20.98    2.13
  14  -3   3   11.22    2.67
  14  -3   2    1.45    2.04
  14  -3   2    1.76    1.43
  14  -3   1    1.71    1.58
  14  -3   1    4.39    2.14
  14  -3   0   47.40    3.49
  14  -3   0   51.50    4.05
  14  -3  -1    1.68    1.75
  14  -3  -1    1.34    1.89
  14  -3  -2   -0.70    1.47
  14  -3  -2    0.76    2.09
  14  -3  -3   16.24    2.40
  14  -3  -3   12.15    2.49
  14  -3  -4    1.94    1.86
  14  -3  -4    0.79    1.64
  14  -3  -5    8.01    2.22
  14  -3  -5   10.23    2.25
  14  -3  -6    3.92    1.90
  14  -3  -6    8.58    2.18
  14  -3  -7    0.68    1.70
  14  -3  -7    2.76    1.79
  14  -3  -8    9.37    2.29
  14  -3  -8    9.35    2.10
  14  -3  -9    9.44    2.39
  14  -3 -10    1.58    1.95
  14  -3 -11    2.63    2.13
  14  -3 -12   -0.89    1.93
  14  -4  12    1.14    2.59
  14  -4  11    3.24    2.60
  14  -4  10   12.76    2.96
  14  -4   9   12.83    2.91
  14  -4   8    0.88    2.15
  14  -4   7    5.31    2.39
  14  -4   6    0.13    1.57
  14  -4   5   20.63    3.07
  14  -4   4   37.65    2.64
  14  -4   4   30.80    3.53
  14  -4   3   30.98    2.54
  14  -4   3   26.12    3.27
  14  -4   2    9.60    1.81
  14  -4   2   13.38    2.59
  14  -4   1   40.08    3.08
  14  -4   1   48.61    4.01
  14  -4   0    1.96    1.97
  14  -4   0   -1.69    1.49
  14  -4  -1   36.33    2.93
  14  -4  -1   39.35    3.72
  14  -4  -2   10.28    2.33
  14  -4  -2   10.91    2.05
  14  -4  -3   26.55    2.88
  14  -4  -3   27.76    3.16
  14  -4  -4   33.13    3.31
  14  -4  -4   42.28    3.82
  14  -4  -5   18.79    2.67
  14  -4  -5   19.62    2.90
  14  -4  -6    1.28    1.78
  14  -4  -6    0.76    1.75
  14  -4  -7    7.18    2.06
  14  -4  -7   10.20    2.25
  14  -4  -8    1.91    1.81
  14  -4  -8    0.80    1.71
  14  -4  -9    9.75    2.34
  14  -4 -10   10.19    2.47
  14  -4 -11    5.58    2.38
  14  -4 -12    0.98    2.05
  14  -5  13    0.92    2.68
  14  -5  12    6.95    2.93
  14  -5  11   -0.18    2.33
  14  -5  10   10.57    2.87
  14  -5   9   -0.42    2.19
  14  -5   8    9.52    2.62
  14  -5   7    6.90    2.38
  14  -5   6   16.29    2.91
  14  -5   5    3.06    2.22
  14  -5   4   39.18    3.87
  14  -5   4   43.65    2.76
  14  -5   3   34.04    3.43
  14  -5   3   24.28    2.28
  14  -5   2   62.33    4.47
  14  -5   2   61.12    3.69
  14  -5   1   11.24    1.90
  14  -5   1    8.82    2.37
  14  -5   0    9.31    1.95
  14  -5   0   10.99    2.40
  14  -5  -1   10.17    2.07
  14  -5  -1    9.88    2.27
  14  -5  -2   58.62    4.61
  14  -5  -2   62.80    4.09
  14  -5  -3   34.06    3.42
  14  -5  -3   25.66    2.79
  14  -5  -4   40.04    3.57
  14  -5  -4   49.20    4.32
  14  -5  -5    4.60    2.42
  14  -5  -5   -2.26    1.53
  14  -5  -6   17.53    2.69
  14  -5  -6   22.43    2.94
  14  -5  -7    6.54    2.12
  14  -5  -7    7.70    2.19
  14  -5  -8    9.04    2.25
  14  -5  -8    7.95    2.22
  14  -5  -9    0.88    1.89
  14  -5 -10   15.42    2.73
  14  -5 -11    3.87    2.22
  14  -5 -12    0.35    2.04
  14  -5 -13    2.95    2.23
  14  -6  13    0.00    2.59
  14  -6  12    0.36    2.44
  14  -6  11    9.46    2.87
  14  -6  10    3.16    2.47
  14  -6   9    9.52    2.67
  14  -6   8    2.10    2.15
  14  -6   7    5.46    2.40
  14  -6   6    2.71    1.76
  14  -6   5   22.23    2.78
  14  -6   4    1.09    1.20
  14  -6   4    5.45    2.28
  14  -6   3   76.51    5.12
  14  -6   3   80.61    4.15
  14  -6   2    3.73    1.52
  14  -6   2    0.86    1.99
  14  -6   1   17.37    2.09
  14  -6   1   16.96    2.73
  14  -6   0   56.47    4.21
  14  -6   0   57.29    3.64
  14  -6  -1   18.43    2.34
  14  -6  -1   12.44    2.47
  14  -6  -2    1.39    1.75
  14  -6  -2    0.57    1.47
  14  -6  -3   72.26    4.94
  14  -6  -3   80.52    4.60
  14  -6  -4    1.09    1.65
  14  -6  -4   -2.66    1.68
  14  -6  -5   33.02    3.44
  14  -6  -5   20.26    2.73
  14  -6  -6    4.02    1.98
  14  -6  -6    4.96    1.94
  14  -6  -7    4.84    1.95
  14  -6  -7    6.92    2.21
  14  -6  -8    8.03    2.10
  14  -6  -8    3.36    2.36
  14  -6  -9    2.18    1.87
  14  -6 -10   -1.88    1.75
  14  -6 -11    8.01    2.44
  14  -6 -12    0.05    2.00
  14  -6 -13   -2.14    1.92
  14  -7  13   -2.95    2.35
  14  -7  12   -0.19    2.44
  14  -7  11   -1.72    2.24
  14  -7  10    1.08    2.32
  14  -7   9    2.59    2.19
  14  -7   8    1.99    2.22
  14  -7   7    3.70    2.27
  14  -7   6    3.16    2.20
  14  -7   5    5.60    2.31
  14  -7   4   43.00    4.03
  14  -7   4   48.62    2.80
  14  -7   3   20.58    2.61
  14  -7   3   16.58    1.94
  14  -7   2    5.32    2.15
  14  -7   2    6.67    1.52
  14  -7   1   23.48    1.82
  14  -7   1   22.62    2.34
  14  -7   1   18.50    2.82
  14  -7   0   20.87    1.70
  14  -7   0   22.91    3.00
  14  -7   0   30.95    2.65
  14  -7  -1   20.14    2.71
  14  -7  -1   24.35    2.43
  14  -7  -2    3.44    2.04
  14  -7  -2    4.77    1.92
  14  -7  -3   17.82    2.71
  14  -7  -3   15.88    2.37
  14  -7  -4   47.76    3.59
  14  -7  -4   49.23    4.02
  14  -7  -5    2.28    1.76
  14  -7  -5    3.10    1.94
  14  -7  -6   -0.44    1.64
  14  -7  -6    0.20    1.86
  14  -7  -7   10.85    2.36
  14  -7  -7    4.37    1.98
  14  -7  -8   -2.05    1.61
  14  -7  -8    0.47    1.75
  14  -7  -9    0.16    1.74
  14  -7 -10    2.57    2.05
  14  -7 -11    5.57    2.29
  14  -7 -12    1.05    2.10
  14  -7 -13   -2.49    1.90
  14  -8  13    0.20    3.08
  14  -8  12    0.79    2.40
  14  -8  11    5.65    2.60
  14  -8  10   -1.85    2.06
  14  -8   9    7.94    2.51
  14  -8   8    4.09    2.27
  14  -8   7    3.72    2.28
  14  -8   6    2.31    2.22
  14  -8   5   24.50    3.16
  14  -8   4    0.42    2.01
 -14   8  -4    0.57    1.01
  14  -8   3   74.27    5.04
 -14   8  -3   77.80    3.98
  14  -8   2   -1.06    1.35
  14  -8   2   -0.03    1.93
  14  -8   2    3.86    1.28
  14  -8   1   15.47    1.62
  14  -8   1   19.45    2.70
  14  -8   1   14.64    2.04
  14  -8   0   56.28    3.98
  14  -8   0   50.11    3.38
  14  -8   0   46.36    2.66
  14  -8  -1   18.10    2.70
  14  -8  -1   24.25    2.61
  14  -8  -2    1.21    1.40
  14  -8  -2   -0.35    1.44
  14  -8  -3   74.73    4.54
  14  -8  -3   77.84    5.05
  14  -8  -4    0.92    1.65
  14  -8  -4    1.42    1.92
  14  -8  -5   26.82    3.23
  14  -8  -5   25.76    3.08
  14  -8  -6    4.76    2.11
  14  -8  -6    5.99    2.02
  14  -8  -7    0.43    1.83
  14  -8  -7    7.23    2.20
  14  -8  -8    3.75    1.95
  14  -8  -8    6.72    2.27
  14  -8  -9    4.86    2.14
  14  -8 -10    1.49    1.93
  14  -8 -11    6.17    2.36
  14  -8 -12   -1.48    1.91
  14  -8 -13   -1.27    1.98
 -14   8  13    1.08    2.25
  14  -9  13   -3.40    2.18
  14  -9  12    5.91    2.62
  14  -9  11    2.50    2.40
  14  -9  10   13.80    3.26
  14  -9   9    3.29    2.29
  14  -9   8    5.89    2.39
  14  -9   7    9.09    2.49
  14  -9   6   18.16    2.96
  14  -9   5    4.72    2.25
  14  -9   4   42.61    3.15
  14  -9   4   38.61    3.78
 -14   9  -4   36.05    2.45
  14  -9   3   28.52    2.52
  14  -9   3   21.74    3.02
 -14   9  -3   27.05    2.25
  14  -9   2   57.78    3.44
  14  -9   2   58.63    4.28
 -14   9  -2   56.03    3.40
  14  -9   1    9.83    1.51
  14  -9   1   11.56    2.41
 -14   9  -1   12.45    1.79
  14  -9   0    8.91    2.21
  14  -9   0   12.72    1.85
  14  -9   0    9.25    1.41
  14  -9  -1   12.31    2.36
  14  -9  -1   12.86    2.26
  14  -9  -2   59.50    3.87
  14  -9  -2   60.30    4.30
  14  -9  -3   30.85    3.35
  14  -9  -3   29.61    2.99
  14  -9  -4   41.55    3.87
  14  -9  -4   37.27    3.42
  14  -9  -5    1.59    1.85
  14  -9  -5    2.31    1.89
  14  -9  -6   15.09    2.73
  14  -9  -6   20.94    2.73
  14  -9  -7    9.32    2.40
  14  -9  -7    8.92    2.18
  14  -9  -8    6.26    2.26
  14  -9  -8    2.98    1.88
  14  -9  -9   -0.97    1.74
  14  -9 -10   12.37    2.65
 -14   9  10   12.55    2.85
 -14   9  11    5.45    2.78
 -14   9  12    5.14    2.41
 -14   9  13    4.64    2.55
  14 -10  12    2.32    2.46
  14 -10  11    7.45    2.98
  14 -10  10    8.97    2.66
  14 -10   9    9.03    2.60
  14 -10   8   -1.30    1.99
  14 -10   7   10.27    2.45
  14 -10   7   12.18    2.60
  14 -10   6   -1.46    1.96
  14 -10   6    0.92    1.93
  14 -10   5   20.50    3.00
  14 -10   4   37.75    3.70
  14 -10   4   37.56    3.05
 -14  10  -4   31.59    2.41
  14 -10   3   25.48    3.15
  14 -10   3   27.78    2.61
 -14  10  -3   24.63    2.18
  14 -10   2   12.86    1.86
  14 -10   2   14.05    2.50
 -14  10  -2   11.18    1.79
  14 -10   1   38.35    2.69
  14 -10   1   39.75    3.63
 -14  10  -1   44.27    3.05
  14 -10   0   -0.97    1.15
  14 -10   0    3.51    1.94
 -14  10   0    0.58    0.37
  14 -10  -1   46.98    3.78
 -14  10   1   43.29    3.46
  14 -10  -2   11.99    2.37
 -14  10   2    9.33    2.16
  14 -10  -3   25.46    3.09
 -14  10   3   22.22    2.85
  14 -10  -4   32.27    3.44
 -14  10   4   32.94    3.22
  14 -10  -5   19.10    2.60
  14 -10  -5   17.20    2.73
 -14  10   5   16.99    2.66
  14 -10  -6    1.28    1.50
 -14  10   6    0.86    1.88
  14 -10  -7    8.30    2.38
 -14  10   7    9.84    2.39
 -14  10   8    3.70    2.21
 -14  10   9   14.72    2.79
 -14  10  10    7.62    2.56
 -14  10  11    4.65    2.45
 -14  10  12    0.13    2.21
  14 -11  12    2.48    2.34
  14 -11  12   -0.60    2.21
  14 -11  11    3.46    2.43
  14 -11  11    6.96    2.49
  14 -11  10    4.04    2.48
  14 -11  10    2.92    2.27
  14 -11   9    7.85    2.52
  14 -11   9    8.05    2.61
  14 -11   8    7.20    2.39
  14 -11   8    6.32    2.05
  14 -11   7    0.94    2.08
  14 -11   7    1.05    2.02
  14 -11   6    3.13    1.73
  14 -11   6    5.89    2.27
  14 -11   5    7.25    2.34
  14 -11   5    2.48    1.24
  14 -11   4    1.60    1.99
  14 -11   4    3.82    1.79
 -14  11  -4    2.44    1.36
  14 -11   3   15.69    2.61
  14 -11   3   15.28    2.19
 -14  11  -3   17.66    2.04
  14 -11   2   -1.55    1.79
  14 -11   2    2.28    1.39
 -14  11  -2    0.82    1.21
  14 -11   1    2.88    1.87
  14 -11   1    0.59    1.38
 -14  11  -1    0.76    1.42
  14 -11   0   46.46    3.10
  14 -11   0   41.81    3.80
  14 -11  -1    0.14    1.25
  14 -11  -1   -0.30    1.70
 -14  11   1    1.62    1.73
  14 -11  -2    0.02    1.27
 -14  11   2    0.67    1.53
  14 -11  -3   20.70    2.84
 -14  11   3   19.10    2.61
  14 -11  -4    0.64    1.78
 -14  11   4    1.33    1.82
  14 -11  -5    7.43    2.22
 -14  11   5    6.85    2.20
  14 -11  -6    5.88    2.09
 -14  11   6    4.52    2.04
  14 -11  -7    6.46    2.20
 -14  11   7    1.89    2.00
 -14  11   8    8.82    2.42
 -14  11   9    6.50    2.37
 -14  11  10    1.68    2.24
 -14  11  11    4.59    2.94
 -14  11  12    5.00    3.00
  14 -12  12    1.87    2.65
  14 -12  12    3.24    2.37
  14 -12  11    0.06    2.22
  14 -12  11   -1.42    1.96
  14 -12  10   -0.40    2.07
  14 -12  10    2.18    2.46
  14 -12   9   -1.43    1.73
  14 -12   9   -1.23    2.39
  14 -12   8   -0.99    1.75
  14 -12   8   -1.39    1.93
  14 -12   7   17.99    2.90
  14 -12   7   19.44    2.75
  14 -12   6   -0.61    1.58
  14 -12   6    0.44    2.01
  14 -12   5    2.87    2.14
  14 -12   5    0.67    1.88
  14 -12   4    3.13    1.86
  14 -12   4    0.05    2.33
 -14  12  -4    3.10    1.58
  14 -12   3    0.62    1.57
  14 -12   3    0.58    1.89
 -14  12  -3    2.10    1.46
  14 -12   2   -0.48    1.71
  14 -12   2    0.21    1.66
 -14  12  -2   -0.07    1.33
  14 -12   1   15.81    2.56
  14 -12   1   17.37    2.21
 -14  12  -1   11.53    1.98
  14 -12   0    1.48    1.39
  14 -12   0    1.18    1.62
 -14  12   0    2.60    1.20
  14 -12  -1   13.72    2.10
  14 -12  -1   19.53    2.75
 -14  12   1   19.04    2.56
  14 -12  -2   -0.13    1.78
 -14  12   2    0.23    1.55
  14 -12  -3    1.26    1.41
 -14  12   3   -0.66    1.61
  14 -12  -4    6.54    2.07
 -14  12   4    2.63    1.95
  14 -12  -5    2.01    1.94
 -14  12   5    3.55    1.96
  14 -12  -6   -0.10    1.79
 -14  12   6    1.30    1.91
  14 -12  -7   17.16    2.87
 -14  12   7   25.08    3.48
 -14  12   8    1.71    1.99
 -14  12   9    1.32    2.50
 -14  12  10    3.92    2.44
 -14  12  11   -1.10    2.35
 -14  12  12    3.45    2.64
  14 -13  12    1.32    2.31
  14 -13  12    3.96    2.48
  14 -13  11    0.51    2.55
  14 -13  11   -4.29    2.37
  14 -13  10    3.72    2.27
  14 -13  10    8.15    2.77
  14 -13   9   -0.32    2.50
  14 -13   9    1.90    2.32
  14 -13   8    5.44    2.12
  14 -13   8    4.35    2.14
  14 -13   7    0.71    2.19
  14 -13   7    2.73    2.08
  14 -13   6   29.34    3.33
  14 -13   6   26.36    3.04
  14 -13   5    1.34    2.02
  14 -13   5    3.76    2.10
  14 -13   4    0.31    0.86
  14 -13   4    0.08    1.93
 -14  13  -4   -0.24    1.52
  14 -13   3    0.52    1.83
  14 -13   3    0.45    2.16
 -14  13  -3   -0.02    1.57
  14 -13   2   18.61    2.70
  14 -13   2   23.69    2.75
 -14  13  -2   20.97    2.37
  14 -13   1    1.16    1.82
  14 -13   1    0.56    1.58
 -14  13  -1    0.35    1.34
  14 -13   0   42.03    3.84
  14 -13   0   46.44    3.42
 -14  13   0   45.40    3.58
  14 -13  -1   -0.95    1.62
  14 -13  -1    0.22    1.80
 -14  13   1    1.93    1.80
  14 -13  -2   19.14    2.83
 -14  13   2   22.96    2.67
  14 -13  -3   -0.63    1.69
 -14  13   3    1.01    1.72
  14 -13  -4    0.76    1.75
 -14  13   4   -1.57    1.70
  14 -13  -5    4.72    2.00
 -14  13   5    4.28    2.09
  14 -13  -6   30.92    3.51
 -14  13   6   27.74    3.33
 -14  13   7   -0.51    1.89
 -14  13   8    5.82    2.39
 -14  13   9    0.30    2.09
 -14  13  10    1.12    2.31
 -14  13  11    2.01    2.40
 -14  13  12    3.16    2.58
  14 -14  11   -1.09    2.06
  14 -14  11    2.16    2.58
  14 -14  10   -0.51    2.02
  14 -14  10    4.32    2.72
  14 -14   9    3.65    2.22
  14 -14   9    2.02    2.12
  14 -14   8    5.98    2.54
  14 -14   8    2.66    2.47
  14 -14   7    7.52    2.23
  14 -14   7    8.56    2.31
  14 -14   6    2.47    1.83
  14 -14   6    3.39    2.04
  14 -14   5    9.38    2.14
  14 -14   5    9.34    2.33
  14 -14   4    0.92    1.55
  14 -14   4   -0.06    1.84
  14 -14   3   -1.66    1.84
  14 -14   3   -0.29    1.78
 -14  14  -3   -0.25    1.55
  14 -14   2    5.37    2.21
  14 -14   2    3.85    1.98
 -14  14  -2    4.81    1.90
  14 -14   1   48.26    3.75
  14 -14   1   47.36    3.82
 -14  14  -1   41.74    3.42
  14 -14   0   18.07    2.78
  14 -14   0   16.10    2.65
 -14  14   0   18.41    2.38
  14 -14  -1   45.84    3.98
  14 -14  -1   42.82    4.01
 -14  14   1   51.41    3.75
  14 -14  -2    5.89    2.16
 -14  14   2    5.03    1.94
  14 -14  -3    0.82    1.75
 -14  14   3    3.60    1.83
  14 -14  -4    1.54    1.78
 -14  14   4   -0.48    1.76
  14 -14  -5    6.30    2.09
 -14  14   5    8.32    2.25
  14 -14  -6    3.39    1.93
 -14  14   6    1.33    2.06
 -14  14   7   10.13    2.56
 -14  14   8    6.24    2.31
 -14  14   9    5.41    2.83
 -14  14  10    0.82    2.26
 -14  14  11   -0.10    2.29
  14 -15  11    1.61    2.10
  14 -15  11   -1.13    2.26
  14 -15  10   -1.13    2.36
  14 -15  10   -1.62    2.50
  14 -15   9    3.45    2.47
  14 -15   9    5.78    2.37
  14 -15   8    3.27    2.14
  14 -15   8    4.43    2.53
  14 -15   7    8.42    2.34
  14 -15   7    6.90    2.30
  14 -15   6    0.32    2.13
  14 -15   6   -0.45    2.06
  14 -15   5    0.85    1.84
  14 -15   5    2.19    1.90
  14 -15   4    4.18    1.98
  14 -15   4    0.55    2.06
  14 -15   3   -1.04    1.28
  14 -15   3   -1.03    2.06
 -14  15  -3    0.17    1.61
  14 -15   2    0.74    1.99
  14 -15   2    0.70    1.83
 -14  15  -2    1.09    1.81
  14 -15   1   29.72    3.41
  14 -15   1   28.13    3.17
  14 -15   0   27.65    3.38
  14 -15   0   33.75    3.57
 -14  15   0   25.79    2.90
  14 -15  -1   26.41    3.18
  14 -15  -1   27.12    3.23
 -14  15   1   28.16    3.16
  14 -15  -2    1.45    1.84
 -14  15   2    0.45    2.06
  14 -15  -3    1.78    1.76
 -14  15   3   -1.00    2.01
  14 -15  -4    3.79    1.94
 -14  15   4    2.20    1.86
  14 -15  -5    1.03    1.79
 -14  15   5    0.68    1.90
  14 -15  -6    0.82    1.84
 -14  15   6    0.09    1.86
 -14  15   7   10.08    2.57
 -14  15   8    1.07    2.44
 -14  15   9    4.51    2.43
 -14  15  10    1.30    2.29
 -14  15  11   -0.97    2.26
  14 -16  10   -2.00    2.10
  14 -16  10   -1.94    2.17
  14 -16   9    0.39    1.89
  14 -16   9    1.65    2.64
  14 -16   8    4.59    2.29
  14 -16   8    2.32    2.33
  14 -16   7    4.77    2.09
  14 -16   7    2.81    2.21
  14 -16   6    2.97    2.12
  14 -16   6    5.51    2.04
  14 -16   5   -0.37    1.88
  14 -16   5    1.10    1.76
  14 -16   4    2.51    2.25
  14 -16   4    0.95    1.74
  14 -16   3    1.58    1.81
  14 -16   3   -0.09    1.60
 -14  16  -3    0.04    1.70
  14 -16   2   -3.21    1.96
  14 -16   2    0.13    1.74
 -14  16  -2    2.07    1.86
  14 -16   1    3.38    2.24
  14 -16   1    2.28    2.22
 -14  16  -1   -1.52    0.99
  14 -16   0   14.80    2.74
  14 -16   0   16.41    2.64
 -14  16   0   13.61    2.67
  14 -16  -1    2.82    1.90
  14 -16  -1   -0.55    2.02
 -14  16   1    1.73    1.78
  14 -16  -2    1.91    1.86
 -14  16   2    1.14    1.85
  14 -16  -3    4.95    1.95
 -14  16   3    1.56    2.26
  14 -16  -4   -0.42    1.64
 -14  16   4    2.02    1.94
  14 -16  -5   -1.84    1.69
 -14  16   5    2.08    2.41
 -14  16   6    1.23    2.16
 -14  16   7    0.64    2.09
 -14  16   8    6.50    2.55
 -14  16   9    1.22    2.24
 -14  16  10   -2.04    2.08
  14 -17  10    0.21    2.77
  14 -17   9   -1.72    2.22
  14 -17   8    0.71    2.77
  14 -17   8    1.10    2.21
  14 -17   7    6.60    2.58
  14 -17   7    6.97    2.38
  14 -17   6   -0.83    2.05
  14 -17   6    2.70    2.23
  14 -17   5    5.13    2.32
  14 -17   5    3.71    2.21
  14 -17   4   -1.15    2.02
  14 -17   4    2.57    2.41
  14 -17   3    4.09    2.18
  14 -17   3    3.58    2.40
 -14  17  -3    0.35    1.81
  14 -17   2   17.48    2.84
 -14  17  -2   11.94    2.52
  14 -17   1    5.51    2.02
  14 -17   1    3.59    2.38
 -14  17  -1    1.41    2.02
  14 -17   0   -0.67    1.61
  14 -17   0   -1.32    2.13
 -14  17   0   -1.18    1.64
  14 -17  -1    3.01    2.58
  14 -17  -1    2.18    1.73
 -14  17   1    2.11    1.96
  14 -17  -2   11.45    2.38
 -14  17   2   10.14    2.71
  14 -17  -3    2.45    1.84
 -14  17   3    6.75    2.20
  14 -17  -4    2.38    1.90
 -14  17   4   -0.13    1.96
  14 -17  -5    1.90    1.98
 -14  17   5    0.30    2.03
 -14  17   6    0.13    2.05
 -14  17   7    4.34    2.53
 -14  17   8    1.16    2.25
 -14  17   9    1.28    2.45
 -14  17  10    3.98    3.16
  14 -18   9    5.57    3.19
  14 -18   8    0.07    2.31
  14 -18   7    1.54    2.78
  14 -18   7    4.61    2.31
  14 -18   6    4.33    2.86
  14 -18   6    4.83    2.34
  14 -18   5    7.88    2.86
  14 -18   5    4.49    2.27
  14 -18   4   -1.29    2.48
  14 -18   4    1.68    1.72
  14 -18   3   21.55    3.06
  14 -18   3   15.25    3.28
 -14  18  -3   17.15    2.87
  14 -18   2    1.25    2.11
  14 -18   2    0.76    2.04
 -14  18  -2    0.82    1.42
  14 -18   1    1.60    1.94
  14 -18   1    5.53    2.33
 -14  18  -1    1.25    2.11
  14 -18   0   14.18    2.73
  14 -18   0    7.99    2.80
 -14  18   0   10.69    2.35
  14 -18  -1    2.48    1.88
  14 -18  -1    1.54    2.42
 -14  18   1    3.48    2.08
  14 -18  -2    1.45    1.80
 -14  18   2   -0.06    1.92
  14 -18  -3   13.58    2.57
 -14  18   3   19.15    3.01
  14 -18  -4    0.59    1.89
 -14  18   4   -1.89    1.92
 -14  18   5    7.78    2.56
 -14  18   6    1.00    2.64
 -14  18   7    2.34    2.37
 -14  18   8    1.04    2.40
 -14  18   9    4.54    2.65
  14 -19   8   -1.40    2.71
  14 -19   7    1.96    2.85
  14 -19   6    0.05    2.25
  14 -19   5    4.53    2.87
  14 -19   5    6.71    2.37
  14 -19   4   12.34    3.29
  14 -19   4   15.15    2.76
  14 -19   3    4.79    3.01
  14 -19   3    4.63    1.93
 -14  19  -3    3.10    2.24
  14 -19   2    1.24    2.15
  14 -19   2   -3.22    2.39
 -14  19  -2    1.83    1.56
  14 -19   1    3.00    2.11
  14 -19   1    8.00    2.21
 -14  19  -1    2.18    1.96
  14 -19   0    1.29    1.79
  14 -19   0    1.81    2.34
 -14  19   0   -1.02    1.84
  14 -19  -1    1.05    2.57
  14 -19  -1    3.85    2.32
 -14  19   1    5.02    2.24
  14 -19  -2   -0.30    1.74
 -14  19   2    4.34    2.62
  14 -19  -3    5.01    2.17
 -14  19   3    4.47    2.28
 -14  19   4   16.20    3.36
 -14  19   5   11.37    3.14
 -14  19   6   -3.13    2.06
 -14  19   7    0.21    2.32
 -14  19   8    2.23    2.40
  14 -20   7    3.69    3.05
  14 -20   6   -0.86    2.30
  14 -20   5    0.88    2.88
  14 -20   4    5.90    2.28
  14 -20   4    5.19    2.75
  14 -20   3    5.50    2.34
  14 -20   3    5.73    3.13
 -14  20  -3    3.00    2.31
  14 -20   2    5.22    2.32
  14 -20   2    1.89    2.49
 -14  20  -2    2.84    2.13
  14 -20   1    0.54    2.76
  14 -20   1   -1.00    1.61
 -14  20  -1   -2.68    1.84
  14 -20   0   -0.17    1.79
  14 -20   0    1.21    1.91
 -14  20   0    1.10    2.10
  14 -20  -1    2.00    2.51
  14 -20  -1    1.97    1.90
 -14  20   1   -0.54    2.02
  14 -20  -2    4.57    2.44
 -14  20   2    2.03    2.20
 -14  20   3    2.21    2.32
 -14  20   4    1.97    2.30
 -14  20   5   -1.51    2.17
 -14  20   6    1.48    2.79
 -14  20   7   -0.27    2.87
  14 -21   6   -0.23    3.04
  14 -21   5    4.51    2.90
  14 -21   4   -1.78    3.00
  14 -21   3    2.35    2.97
  14 -21   3    3.08    1.88
 -14  21  -3    1.20    0.99
  14 -21   2    1.79    2.99
  14 -21   2   -2.44    1.93
 -14  21  -2    0.32    2.40
  14 -21   1    1.41    2.88
  14 -21   1   -1.11    1.98
 -14  21  -1    1.65    2.59
  14 -21   0    2.50    2.17
  14 -21   0    4.18    3.10
 -14  21   0   -1.21    1.94
  14 -21  -1    1.68    2.31
 -14  21   1   -2.35    1.97
  14 -21  -2    4.57    2.21
 -14  21   2    2.15    2.27
 -14  21   3    4.12    2.44
 -14  21   4    0.66    2.32
 -14  21   5   -0.24    2.36
 -14  21   6    3.09    2.57
  14 -22   5   -0.81    2.72
  14 -22   4    6.88    3.62
  14 -22   3    7.68    3.37
 -14  22  -3   -1.07    2.08
  14 -22   2    2.80    2.65
 -14  22  -2    0.24    2.46
  14 -22   1    4.22    2.29
  14 -22   1   -0.71    2.62
 -14  22  -1    0.52    2.08
  14 -22   0   -2.17    2.27
  14 -22   0    0.05    1.80
 -14  22   0   -0.52    2.75
 -14  22   1    0.32    2.23
 -14  22   2    0.79    2.29
 -14  22   3    1.97    2.42
 -14  22   4    6.11    2.74
 -14  22   5    0.29    2.51
  14 -23   2    0.04    2.78
 -14  23  -2   -0.13    2.24
  14 -23   1    2.31    2.73
 -14  23  -1   -1.42    2.16
  14 -23   0   -1.50    2.93
 -14  23   0    0.48    2.31
 -14  23   1   -0.93    2.73
 -14  23   2    0.11    2.32
  15   8   0   -0.33    2.47
  15   7   4   -0.32    2.21
  15   7   4   -0.02    2.15
  15   7   3   -0.05    1.93
  15   7   2   -2.86    2.08
  15   7   1    5.96    2.67
  15   7   0   -0.88    1.97
  15   7  -1   -0.22    2.45
  15   7  -2   -2.36    1.89
  15   7  -3    5.25    2.44
  15   7  -4    2.49    2.29
  15   6   6   -0.69    2.22
  15   6   5   -1.08    2.57
  15   6   4    1.38    2.19
  15   6   4    1.44    2.59
  15   6   3    0.00    1.04
  15   6   3   -1.33    2.03
  15   6   2   -2.60    2.04
  15   6   1   -1.36    2.19
  15   6   0    4.37    2.18
  15   6  -1    4.87    2.58
  15   6  -2   -2.16    1.94
  15   6  -3    1.08    2.05
  15   6  -4    5.57    2.54
  15   6  -5    4.11    2.43
  15   6  -6   -2.11    2.44
  15   5   7    1.37    2.45
  15   5   6    3.73    2.87
  15   5   5    1.60    2.62
  15   5   4   -3.33    1.92
  15   5   4   -0.38    2.04
  15   5   3    6.12    2.13
  15   5   3    4.47    2.33
  15   5   2   -0.85    1.75
  15   5   2   -1.55    1.37
  15   5   1    0.85    1.95
  15   5   1   -1.19    2.17
  15   5   0    2.68    2.32
  15   5  -1    0.63    2.01
  15   5  -2    1.75    2.02
  15   5  -3   11.90    2.93
  15   5  -4   -0.78    1.87
  15   5  -5   -2.00    1.83
  15   5  -6    2.57    2.23
  15   5  -7    8.22    2.65
  15   4   8    2.58    2.55
  15   4   7   -0.88    2.39
  15   4   6   -5.13    2.58
  15   4   5   -1.87    2.38
  15   4   4    7.77    2.58
  15   4   4   11.67    2.49
  15   4   3    3.60    1.90
  15   4   3    1.59    2.11
  15   4   2    3.46    2.42
  15   4   2    4.11    1.92
  15   4   1    6.06    2.46
  15   4   1    4.49    2.06
  15   4   0   -0.25    1.77
  15   4   0    1.40    1.93
  15   4  -1    1.61    1.84
  15   4  -2    4.74    2.17
  15   4  -3    4.88    2.55
  15   4  -4    8.98    2.45
  15   4  -5   -1.48    1.82
  15   4  -6    0.24    1.99
  15   4  -7    2.84    2.11
  15   4  -8    5.42    2.33
  15   3   9   -1.27    2.48
  15   3   8    1.63    2.46
  15   3   7   -1.03    2.25
  15   3   6    2.25    2.30
  15   3   5    3.81    2.32
  15   3   4    9.30    2.28
  15   3   4    5.24    2.41
  15   3   3    2.59    2.01
  15   3   3   -1.23    2.38
  15   3   2    1.41    2.06
  15   3   2    3.90    2.52
  15   3   1    1.05    2.09
  15   3   1    0.93    2.00
  15   3   0    2.85    1.91
  15   3   0    2.56    2.28
  15   3  -1    3.77    2.36
  15   3  -1   -0.50    1.97
  15   3  -2    4.23    2.09
  15   3  -2    5.91    2.17
  15   3  -3    0.31    1.88
  15   3  -4    5.58    2.35
  15   3  -5   -1.19    1.84
  15   3  -6   -1.42    1.78
  15   3  -7    0.03    1.91
  15   3  -8    4.40    2.59
  15   3  -9    0.99    2.19
  15   2  10   -0.47    2.58
  15   2   9   -0.80    2.49
  15   2   8    1.71    2.43
  15   2   7   -0.82    2.28
  15   2   6    7.20    2.68
  15   2   5   -0.07    2.46
  15   2   4    4.23    1.90
  15   2   4    4.42    2.62
  15   2   3    4.87    2.00
  15   2   3    7.55    2.43
  15   2   2   -0.20    1.85
  15   2   2    0.85    2.42
  15   2   1    1.95    2.33
  15   2   1    0.33    1.60
  15   2   0   -0.46    1.64
  15   2   0    0.42    1.15
  15   2  -1    0.00    2.06
  15   2  -1    0.22    2.06
  15   2  -2    1.05    1.95
  15   2  -2    1.90    1.89
  15   2  -3    7.07    2.26
  15   2  -3    7.94    2.20
  15   2  -4    6.64    2.26
  15   2  -5    1.55    1.90
  15   2  -6    9.85    2.77
  15   2  -7    4.33    2.29
  15   2  -8    0.58    1.95
  15   2  -9    1.33    2.02
  15   2 -10    3.16    2.21
  15   1  10   -1.02    2.51
  15   1   9    0.49    2.50
  15   1   8    2.20    2.48
  15   1   7    6.59    2.70
  15   1   6   -1.22    2.10
  15   1   5    2.98    2.65
  15   1   4   -0.22    1.58
  15   1   4    0.64    2.42
  15   1   3   -1.55    2.27
  15   1   3   -0.92    1.63
  15   1   2   -0.38    2.39
  15   1   2    0.31    1.48
  15   1   1    9.52    2.74
  15   1   1    6.13    1.90
  15   1   0    2.03    1.83
  15   1   0    7.89    2.29
  15   1  -1    2.68    1.25
  15   1  -1    9.34    2.47
  15   1  -2    2.14    1.83
  15   1  -2   -1.49    1.83
  15   1  -3   -1.96    1.67
  15   1  -3   -2.50    1.68
  15   1  -4    0.13    1.70
  15   1  -4    2.83    1.85
  15   1  -5   -3.28    1.59
  15   1  -5    2.23    1.82
  15   1  -6   -1.03    1.72
  15   1  -7    9.58    2.49
  15   1  -8    2.96    2.12
  15   1  -9    0.76    2.10
  15   1 -10   -0.99    1.89
  15   0  11    3.04    2.78
  15   0  10   -1.22    2.32
  15   0   9    0.30    2.47
  15   0   8   11.56    3.00
  15   0   7    0.13    2.30
  15   0   6    3.26    2.22
  15   0   5   -0.81    2.00
  15   0   4    3.12    2.26
  15   0   4    5.36    1.73
  15   0   3    1.88    2.11
  15   0   3    1.02    1.68
  15   0   2    2.86    1.89
  15   0   2    2.41    2.05
  15   0   1   -1.95    1.91
  15   0   1    0.39    1.56
  15   0   0   88.68    5.57
  15   0   0   83.09    5.07
  15   0  -1   -0.69    2.20
  15   0  -1    0.42    1.72
  15   0  -2    2.84    1.80
  15   0  -2   -2.01    1.33
  15   0  -3    0.45    1.90
  15   0  -3   -0.57    1.64
  15   0  -4    8.08    2.16
  15   0  -4    2.13    1.67
  15   0  -5   -0.01    1.73
  15   0  -5   -0.90    1.75
  15   0  -6    3.29    1.89
  15   0  -6   -0.16    1.73
  15   0  -7    0.56    1.86
  15   0  -8   16.21    2.89
  15   0  -9    4.13    2.12
  15   0 -10    0.18    2.25
  15   0 -11    0.89    2.00
  15  -1  11    2.87    2.67
  15  -1  10    0.40    2.40
  15  -1   9   -0.15    2.41
  15  -1   8    4.42    2.59
  15  -1   7    7.58    2.66
  15  -1   6    2.62    2.18
  15  -1   5    1.43    2.18
  15  -1   4    4.76    2.35
  15  -1   4    2.60    1.57
  15  -1   3   -0.78    2.03
  15  -1   3    2.34    1.67
  15  -1   2   -2.00    1.93
  15  -1   2    0.06    1.77
  15  -1   1   29.26    3.03
  15  -1   1   25.93    3.34
  15  -1   0   35.34    3.39
  15  -1   0   25.50    3.35
  15  -1  -1   26.58    2.91
  15  -1  -1   22.30    3.21
  15  -1  -2   -0.22    1.95
  15  -1  -2   -1.12    1.65
  15  -1  -3    0.94    2.00
  15  -1  -3    2.06    1.73
  15  -1  -4    1.87    0.91
  15  -1  -4    4.67    1.94
  15  -1  -5   -1.11    1.66
  15  -1  -5    4.03    1.88
  15  -1  -6    5.86    2.03
  15  -1  -6    1.89    1.89
  15  -1  -7   10.61    2.35
  15  -1  -7    8.28    2.23
  15  -1  -8   11.32    2.49
  15  -1  -8    6.91    2.15
  15  -1  -9    1.59    2.04
  15  -1 -10    0.32    2.04
  15  -1 -11   -2.40    2.32
  15  -2  11    2.17    2.68
  15  -2  10    2.90    2.56
  15  -2   9    1.88    2.40
  15  -2   8    0.97    2.33
  15  -2   7   10.61    2.73
  15  -2   6    8.81    2.52
  15  -2   5   -0.23    2.14
  15  -2   4    9.07    2.54
  15  -2   4    9.26    1.92
  15  -2   3    0.18    1.50
  15  -2   3    2.82    2.29
  15  -2   2    7.86    2.47
  15  -2   2    9.18    1.98
  15  -2   1   13.42    2.31
  15  -2   1   11.12    2.64
  15  -2   0   -2.26    1.89
  15  -2   0    1.75    1.55
  15  -2  -1   16.18    2.82
  15  -2  -1   18.23    2.70
  15  -2  -2    9.07    2.34
  15  -2  -2   11.10    2.21
  15  -2  -3    0.41    1.67
  15  -2  -3    1.69    1.88
  15  -2  -4    8.69    2.25
  15  -2  -4   15.65    2.73
  15  -2  -5    1.04    1.77
  15  -2  -5    5.08    1.95
  15  -2  -6   13.29    2.72
  15  -2  -7    7.63    2.19
  15  -2  -7    8.39    2.31
  15  -2  -8   -0.37    1.71
  15  -2  -8   -0.25    1.55
  15  -2  -9    0.05    1.90
  15  -2 -10    2.33    2.00
  15  -2 -11   -0.56    1.88
  15  -3  12    2.51    2.81
  15  -3  11   -0.33    2.54
  15  -3  10    4.26    2.61
  15  -3   9   -1.54    2.27
  15  -3   8   -2.16    2.14
  15  -3   7    1.06    2.17
  15  -3   6    6.68    2.48
  15  -3   5    6.51    2.41
  15  -3   4   17.98    2.20
  15  -3   4   19.07    3.08
  15  -3   3    1.91    2.15
  15  -3   3    4.51    1.75
  15  -3   2    1.76    2.14
  15  -3   2    4.65    1.69
  15  -3   1    1.20    1.73
  15  -3   1    0.03    1.98
  15  -3   0    3.38    2.11
  15  -3   0    2.81    1.85
  15  -3  -1   -0.98    2.36
  15  -3  -1   -0.23    1.86
  15  -3  -2    2.17    1.71
  15  -3  -2    2.77    2.01
  15  -3  -3    2.33    1.98
  15  -3  -3    3.40    1.88
  15  -3  -4   19.54    2.66
  15  -3  -4   12.91    2.64
  15  -3  -5    4.42    1.92
  15  -3  -5    5.96    2.37
  15  -3  -6    7.73    2.18
  15  -3  -6    7.30    2.06
  15  -3  -7    0.56    1.55
  15  -3  -7    0.17    1.78
  15  -3  -8    0.21    1.09
  15  -3  -8   -0.32    1.75
  15  -3  -9   -0.54    2.10
  15  -3 -10    0.01    1.90
  15  -3 -11    1.67    2.14
  15  -3 -12   -0.48    1.97
  15  -4  12    1.52    2.62
  15  -4  11   -1.15    2.36
  15  -4  10    2.18    2.47
  15  -4   9    1.50    1.84
  15  -4   8    9.61    2.72
  15  -4   7   -0.18    2.08
  15  -4   6    3.79    2.30
  15  -4   5    0.96    2.12
  15  -4   4   36.49    3.83
  15  -4   4   37.83    2.77
  15  -4   3    4.87    1.94
  15  -4   3    9.68    1.78
  15  -4   2    0.82    2.10
  15  -4   2    0.88    1.54
  15  -4   1    0.10    1.61
  15  -4   1    3.89    2.23
  15  -4   0   27.06    3.26
  15  -4   0   24.19    2.74
  15  -4  -1    2.72    2.11
  15  -4  -1    6.14    1.82
  15  -4  -2    1.72    1.62
  15  -4  -2    0.51    2.28
  15  -4  -3   14.03    2.39
  15  -4  -3   11.97    2.54
  15  -4  -4   40.66    4.04
  15  -4  -4   43.41    3.90
  15  -4  -5   -2.68    1.60
  15  -4  -5    3.47    1.86
  15  -4  -6   -0.77    1.60
  15  -4  -6    1.35    1.85
  15  -4  -7    4.71    2.29
  15  -4  -7    4.09    2.19
  15  -4  -8    5.92    2.39
  15  -4  -8    7.55    2.26
  15  -4  -9    1.14    1.98
  15  -4 -10    1.70    2.01
  15  -4 -11   -0.48    1.91
  15  -4 -12    1.68    2.48
  15  -5  12    0.03    2.57
  15  -5  11    7.27    2.91
  15  -5  10    0.39    2.42
  15  -5   9    7.89    2.66
  15  -5   8    4.63    1.99
  15  -5   7    0.79    2.18
  15  -5   6    6.19    2.47
  15  -5   5    8.01    2.50
  15  -5   4    0.57    1.61
  15  -5   3   39.77    2.92
  15  -5   3   37.92    3.87
  15  -5   2   -0.91    2.03
  15  -5   2   -0.76    1.36
  15  -5   1    3.89    2.25
  15  -5   1    5.41    1.82
  15  -5   0   37.02    3.79
  15  -5   0   37.44    3.27
  15  -5  -1    6.88    2.06
  15  -5  -1    6.76    2.26
  15  -5  -2    0.36    1.90
  15  -5  -2    0.34    1.51
  15  -5  -3   34.56    3.31
  15  -5  -3   34.65    3.63
  15  -5  -4    0.13    1.71
  15  -5  -4    0.14    1.82
  15  -5  -5   10.48    2.44
  15  -5  -5   16.53    2.56
  15  -5  -6    4.11    1.95
  15  -5  -6    6.40    2.12
  15  -5  -7    2.76    1.92
  15  -5  -7    0.02    1.68
  15  -5  -8    6.91    2.15
  15  -5  -8    5.22    2.08
  15  -5  -9   10.04    2.44
  15  -5 -10    1.90    1.96
  15  -5 -11    7.24    2.41
  15  -5 -12    1.63    2.16
  15  -6  12   -1.59    2.54
  15  -6  11   -1.23    2.38
  15  -6  10    5.02    2.65
  15  -6   9    1.73    2.27
  15  -6   8   -1.95    2.01
  15  -6   7    3.23    2.33
  15  -6   6   -0.53    2.03
  15  -6   5    8.90    2.18
  15  -6   4    8.02    2.50
  15  -6   3   11.19    2.61
  15  -6   3    8.85    1.74
  15  -6   2   29.23    2.63
  15  -6   2   23.77    3.25
  15  -6   1   12.16    2.64
  15  -6   1   16.26    2.16
  15  -6   0   28.73    3.47
  15  -6   0   37.58    3.17
  15  -6  -1   15.07    2.41
  15  -6  -1   17.25    2.72
  15  -6  -2   18.96    2.89
  15  -6  -2   22.60    2.63
  15  -6  -3    7.51    2.26
  15  -6  -3    6.85    1.98
  15  -6  -4   12.47    2.30
  15  -6  -4    9.62    2.79
  15  -6  -5   11.15    2.56
  15  -6  -5   13.12    2.65
  15  -6  -6    1.65    1.82
  15  -6  -6    0.08    1.75
  15  -6  -7    4.85    2.16
  15  -6  -7    7.18    2.13
  15  -6  -8    2.09    1.87
  15  -6  -8    1.33    1.92
  15  -6  -9    0.69    1.87
  15  -6 -10    7.85    2.38
  15  -6 -11   -0.61    1.91
  15  -6 -12    1.14    2.11
  15  -7  12    1.83    3.00
  15  -7  11   -2.44    2.21
  15  -7  10   -1.53    2.21
  15  -7   9   -0.02    2.24
  15  -7   8    2.81    2.33
  15  -7   7    0.68    1.60
  15  -7   6    1.43    1.67
  15  -7   5    0.47    2.12
  15  -7   4   17.54    2.89
  15  -7   3   16.56    2.87
  15  -7   3   17.71    2.02
  15  -7   2    2.43    1.66
  15  -7   2    7.15    1.75
  15  -7   1   19.98    2.69
  15  -7   1   21.76    2.40
  15  -7   0    0.50    1.60
  15  -7   0    0.74    2.03
  15  -7  -1   14.92    2.65
  15  -7  -1   21.86    2.46
  15  -7  -2    3.07    2.05
  15  -7  -2    2.79    1.63
  15  -7  -3   13.09    2.34
  15  -7  -3   20.47    2.94
  15  -7  -4   13.00    2.34
  15  -7  -4   18.65    2.90
  15  -7  -5    0.37    1.73
  15  -7  -5    1.83    1.99
  15  -7  -6    3.24    1.89
  15  -7  -6    2.21    1.90
  15  -7  -7    0.41    1.79
  15  -7  -7   -1.58    1.69
  15  -7  -8    0.62    1.76
  15  -7  -8    3.45    2.03
  15  -7  -9   -1.32    1.78
  15  -7 -10    3.91    2.10
  15  -7 -11    0.75    2.00
  15  -7 -12    0.11    1.94
  15  -8  12   -0.11    2.40
  15  -8  11   -0.39    2.33
  15  -8  10    4.82    2.59
  15  -8   9   -1.70    2.02
  15  -8   8    1.02    2.12
  15  -8   7   -1.17    1.92
  15  -8   6    1.38    2.11
  15  -8   5    3.62    1.74
  15  -8   4   11.52    2.66
  15  -8   3   16.55    1.96
  15  -8   3   16.68    2.88
  15  -8   2    2.49    1.25
  15  -8   2    6.26    2.34
  15  -8   2   -0.24    1.38
  15  -8   1   17.21    1.82
  15  -8   1   19.39    2.34
  15  -8   1   23.22    3.03
  15  -8   0    0.24    1.81
  15  -8   0    2.22    1.67
  15  -8  -1   20.32    2.88
  15  -8  -1   13.14    2.11
  15  -8  -2    2.65    1.64
  15  -8  -2    1.71    1.98
  15  -8  -3   13.46    2.28
  15  -8  -3   14.56    2.71
  15  -8  -4   10.51    2.55
  15  -8  -4   14.57    2.39
  15  -8  -5    2.27    1.95
  15  -8  -5    2.38    1.89
  15  -8  -6    4.36    1.91
  15  -8  -6    4.72    2.05
  15  -8  -7    0.02    1.73
  15  -8  -7    0.22    1.75
  15  -8  -8    3.13    1.91
  15  -8  -8    2.78    1.93
  15  -8  -9    0.92    1.86
  15  -8 -10    0.88    2.00
  15  -8 -11   -0.68    1.89
  15  -8 -12    0.11    2.11
  15  -9  12    0.43    2.49
  15  -9  11    1.76    2.42
  15  -9  10    8.99    2.75
  15  -9   9    3.24    2.30
  15  -9   8   -0.56    2.11
  15  -9   7    5.44    2.34
  15  -9   6   -0.16    2.06
  15  -9   5    9.20    2.59
  15  -9   4   11.43    1.95
  15  -9   4   13.76    2.77
  15  -9   3    7.29    1.75
  15  -9   3   10.39    2.51
 -15   9  -3    8.21    1.60
  15  -9   2   27.56    3.30
  15  -9   2   27.88    2.37
 -15   9  -2   24.43    2.32
  15  -9   1   14.18    1.71
  15  -9   1   14.79    2.71
  15  -9   1   16.12    2.22
 -15   9  -1   16.38    2.02
  15  -9   0   28.95    3.29
  15  -9   0   32.58    2.96
  15  -9  -1   17.73    2.48
  15  -9  -1   12.84    2.58
  15  -9  -2   19.94    2.89
  15  -9  -2   25.29    2.91
  15  -9  -3    7.59    2.28
  15  -9  -3    5.66    2.22
  15  -9  -4    8.76    2.18
  15  -9  -4   15.09    2.75
  15  -9  -5    6.27    2.05
  15  -9  -5    8.13    2.41
  15  -9  -6   -0.23    1.64
  15  -9  -6    1.32    1.90
  15  -9  -7    5.05    2.03
  15  -9  -7    6.35    2.19
  15  -9  -8   -0.39    1.75
  15  -9  -8    1.30    1.96
  15  -9  -9    7.73    2.24
  15  -9 -10    9.90    2.52
  15  -9 -11   -0.41    1.93
 -15   9  11    4.77    2.45
 -15   9  12    0.31    2.28
  15 -10  12    1.59    2.51
  15 -10  11    3.02    2.55
  15 -10  10   -1.20    2.69
  15 -10   9    9.36    2.66
  15 -10   8    1.28    2.23
  15 -10   7   -0.41    1.99
  15 -10   6    0.03    2.03
  15 -10   6    9.93    2.17
  15 -10   5   10.59    2.62
  15 -10   5   10.76    2.14
  15 -10   4    4.29    2.31
  15 -10   4   -1.51    1.45
  15 -10   3   41.07    2.97
  15 -10   3   38.08    3.78
 -15  10  -3   35.36    2.78
  15 -10   2    0.70    1.35
  15 -10   2   -3.38    1.80
 -15  10  -2    0.57    1.24
  15 -10   1    8.70    2.31
  15 -10   1    6.87    1.52
 -15  10  -1    7.15    1.68
  15 -10   0   31.30    3.39
  15 -10  -1    6.32    2.19
 -15  10   1    7.96    1.78
  15 -10  -2    0.64    1.91
  15 -10  -2   -4.61    1.69
 -15  10   2    2.03    1.58
  15 -10  -3   40.65    3.49
  15 -10  -3   35.74    3.71
  15 -10  -4    1.70    1.83
  15 -10  -4    0.40    1.97
  15 -10  -5   10.98    2.47
  15 -10  -5    9.33    2.26
  15 -10  -6    2.35    2.01
  15 -10  -6    4.35    2.00
  15 -10  -7    1.26    1.86
  15 -10  -7   -1.07    1.65
 -15  10   7   -1.29    1.82
  15 -10  -8    3.48    2.12
  15 -10  -8    0.49    1.79
 -15  10   8    4.86    2.23
 -15  10   9   13.17    2.87
 -15  10  10   -0.10    2.05
 -15  10  11    4.36    2.53
 -15  10  12   -1.55    2.09
  15 -11  12   -0.58    2.32
  15 -11  12    1.25    2.26
  15 -11  11    0.06    2.57
  15 -11  11    0.03    2.24
  15 -11  10    4.34    2.45
  15 -11  10    1.98    2.07
  15 -11   9    5.53    2.19
  15 -11   9    2.42    2.27
  15 -11   8    6.80    2.45
  15 -11   8    7.11    2.42
  15 -11   7    4.95    2.14
  15 -11   7    3.44    2.22
  15 -11   6   -0.77    1.48
  15 -11   6   -0.57    1.93
  15 -11   5   -0.77    1.98
  15 -11   5   -1.22    1.52
  15 -11   4   40.77    3.27
  15 -11   4   34.56    3.77
  15 -11   3   10.16    2.03
  15 -11   3    9.28    2.50
 -15  11  -3   11.36    1.76
  15 -11   2   -1.15    1.91
  15 -11   2    0.74    1.41
 -15  11  -2    1.30    1.34
  15 -11   1    4.86    1.59
  15 -11   1    3.09    2.04
 -15  11  -1    4.98    1.67
  15 -11   0   25.13    3.13
  15 -11  -1    4.28    2.11
 -15  11   1    8.26    2.04
  15 -11  -2    0.94    1.94
 -15  11   2   -1.78    1.44
  15 -11  -3   14.08    2.34
 -15  11   3    6.99    2.09
  15 -11  -4   36.23    3.72
 -15  11   4   33.53    3.44
  15 -11  -5    1.29    1.87
 -15  11   5   -2.30    1.70
  15 -11  -6    3.65    2.04
 -15  11   6    1.96    1.89
  15 -11  -7    3.07    2.02
 -15  11   7   -0.55    1.94
  15 -11  -8    7.47    2.44
 -15  11   8    6.89    2.40
 -15  11   9   -0.28    1.99
 -15  11  10    3.03    2.37
 -15  11  11   -1.03    2.11
 -15  11  12    4.74    2.68
  15 -12  12    1.14    2.36
  15 -12  12    3.38    2.36
  15 -12  11    1.99    2.21
  15 -12  11   -1.99    2.26
  15 -12  10    2.39    2.37
  15 -12  10    5.33    2.27
  15 -12   9    0.67    2.09
  15 -12   9   -0.29    1.84
  15 -12   8   -1.04    2.00
  15 -12   8    2.05    2.18
  15 -12   7    0.61    2.06
  15 -12   7    2.76    1.86
  15 -12   6    6.71    2.30
  15 -12   6    7.02    1.98
  15 -12   5    1.52    1.05
  15 -12   5    7.17    2.34
  15 -12   4   19.77    2.55
  15 -12   4   14.45    2.71
  15 -12   3    3.75    2.19
  15 -12   3    4.33    1.73
 -15  12  -3    2.99    1.51
  15 -12   2    3.30    1.79
  15 -12   2    2.42    1.98
 -15  12  -2    2.46    1.45
  15 -12   1    2.83    2.01
  15 -12   1    1.81    1.56
 -15  12  -1    0.59    1.45
  15 -12   0    3.53    2.07
 -15  12   0    0.39    0.57
  15 -12  -1    1.01    1.90
 -15  12   1    3.37    1.65
  15 -12  -2    2.79    1.60
 -15  12   2    1.09    1.66
  15 -12  -3    1.39    1.48
 -15  12   3    2.33    2.15
  15 -12  -4   16.79    2.49
 -15  12   4   15.35    2.86
  15 -12  -5    8.96    2.35
 -15  12   5    3.94    2.05
  15 -12  -6    6.68    2.18
 -15  12   6    8.16    2.38
  15 -12  -7   -1.00    1.83
 -15  12   7    0.62    1.93
 -15  12   8    0.76    2.10
 -15  12   9    1.58    2.24
 -15  12  10    0.87    2.25
 -15  12  11    2.26    2.35
 -15  12  12    3.89    2.60
  15 -13  11   -0.84    2.61
  15 -13  11    0.44    2.11
  15 -13  10   -0.81    2.04
  15 -13  10    1.86    2.22
  15 -13   9    2.89    2.09
  15 -13   9   -1.49    2.10
  15 -13   8   -1.14    1.74
  15 -13   8    0.13    2.10
  15 -13   7    8.52    2.50
  15 -13   7    8.38    2.76
  15 -13   6   13.72    2.57
  15 -13   6    8.57    2.41
  15 -13   5    2.99    2.06
  15 -13   5    0.28    0.99
  15 -13   4    8.84    2.42
  15 -13   4    9.62    2.15
  15 -13   3    0.24    1.90
  15 -13   3    0.33    1.86
 -15  13  -3   -0.40    1.34
  15 -13   2    8.31    2.15
  15 -13   2    9.22    2.34
 -15  13  -2   10.51    1.94
  15 -13   1   13.59    2.57
  15 -13   1   12.29    2.21
 -15  13  -1   13.94    2.20
  15 -13   0    0.19    1.90
  15 -13   0    0.01    1.67
 -15  13   0   -1.07    1.19
  15 -13  -1   13.73    2.56
 -15  13   1   12.46    2.19
  15 -13  -2    6.14    2.25
 -15  13   2    8.11    2.28
  15 -13  -3   -0.44    1.81
 -15  13   3   -1.08    2.00
  15 -13  -4    9.73    2.27
 -15  13   4    6.47    2.22
  15 -13  -5    0.98    1.87
 -15  13   5    1.18    1.92
  15 -13  -6   12.14    2.50
 -15  13   6    4.71    2.25
  15 -13  -7   13.96    2.70
 -15  13   7    5.61    2.44
 -15  13   8   -3.11    2.24
 -15  13   9    2.21    2.25
 -15  13  10    3.13    2.34
 -15  13  11    0.98    2.38
  15 -14  11    1.37    2.65
  15 -14  11    0.82    2.66
  15 -14  10    2.76    2.66
  15 -14  10   -1.62    2.02
  15 -14   9    2.98    2.20
  15 -14   9    2.67    2.29
  15 -14   8    4.80    2.73
  15 -14   8    8.61    2.77
  15 -14   7    4.44    2.11
  15 -14   7    9.23    2.74
  15 -14   6   -0.15    1.91
  15 -14   6    1.19    1.85
  15 -14   5    2.06    2.11
  15 -14   5   -0.20    1.87
  15 -14   4    2.36    1.97
  15 -14   4    8.09    2.29
  15 -14   3   -0.64    1.84
  15 -14   3    0.56    1.76
 -15  14  -3    2.94    1.60
  15 -14   2    0.24    1.86
  15 -14   2    0.07    1.69
 -15  14  -2    0.69    1.56
  15 -14   1   31.10    3.01
  15 -14   1   30.32    3.36
 -15  14  -1   24.55    2.84
  15 -14   0   30.65    3.16
  15 -14   0   27.43    3.22
 -15  14   0   28.94    3.07
  15 -14  -1   24.36    3.19
 -15  14   1   28.17    3.08
  15 -14  -2    1.31    1.89
 -15  14   2    0.53    1.57
  15 -14  -3    0.77    1.83
 -15  14   3   -0.79    1.60
  15 -14  -4    2.91    1.88
 -15  14   4    6.26    2.43
  15 -14  -5    1.91    1.85
 -15  14   5    1.65    1.90
  15 -14  -6    2.21    1.91
 -15  14   6   -3.16    2.16
  15 -14  -7    8.85    2.42
 -15  14   7    6.79    2.44
 -15  14   8    5.42    2.52
 -15  14   9    4.71    2.54
 -15  14  10   -0.57    2.27
 -15  14  11    0.24    2.32
  15 -15  11    0.49    2.37
  15 -15  11   -2.01    2.54
  15 -15  10    0.13    2.47
  15 -15  10    0.74    2.54
  15 -15   9    1.35    2.24
  15 -15   9   -3.77    2.32
  15 -15   8   17.99    2.98
  15 -15   8   14.48    2.79
  15 -15   7    1.48    1.98
  15 -15   7    0.80    2.02
  15 -15   6   -1.35    2.05
  15 -15   6    3.74    2.51
  15 -15   5    1.42    1.88
  15 -15   5    1.36    2.11
  15 -15   4    6.23    2.15
  15 -15   3    2.76    2.01
  15 -15   3    0.27    1.95
 -15  15  -3    1.73    1.77
  15 -15   2   -0.91    1.79
  15 -15   2    0.48    1.83
 -15  15  -2    1.13    1.90
  15 -15   1   -2.09    1.66
  15 -15   1   -1.25    2.01
 -15  15  -1    2.80    1.76
  15 -15   0   81.00    5.22
  15 -15   0   88.85    5.49
 -15  15   0   87.34    5.29
  15 -15  -1    0.96    1.89
 -15  15   1   -1.15    1.91
  15 -15  -2    1.89    1.94
 -15  15   2    3.21    2.08
  15 -15  -3    3.17    1.90
 -15  15   3    0.89    2.04
  15 -15  -4    3.81    1.99
 -15  15   4    2.82    1.87
  15 -15  -5   -0.94    1.68
 -15  15   5    0.80    2.21
  15 -15  -6    1.95    1.97
 -15  15   6   -0.72    2.00
 -15  15   7    0.45    1.94
 -15  15   8   13.54    2.88
 -15  15   9    3.44    2.43
 -15  15  10   -0.46    2.31
 -15  15  11    0.82    2.52
  15 -16  10    2.87    2.16
  15 -16  10   -2.56    2.03
  15 -16   9    4.16    2.22
  15 -16   9    0.49    2.14
  15 -16   8    6.88    2.38
  15 -16   8    8.36    2.77
  15 -16   7    9.39    2.53
  15 -16   7    8.53    2.75
  15 -16   6    0.37    1.87
  15 -16   6    3.28    2.14
  15 -16   5    1.77    2.34
  15 -16   5   -1.14    1.75
  15 -16   4    1.32    1.92
  15 -16   4   -1.21    1.75
  15 -16   3    1.03    1.82
  15 -16   3   -2.19    1.87
 -15  16  -3   -1.45    1.73
  15 -16   2    1.00    2.04
  15 -16   2   -1.23    1.60
 -15  16  -2    1.57    1.85
  15 -16   1   11.75    2.64
  15 -16   1    8.09    2.18
 -15  16  -1    3.48    1.48
  15 -16   0    6.76    2.20
  15 -16   0    6.26    2.47
 -15  16   0    4.85    2.13
  15 -16  -1    8.52    2.26
 -15  16   1    9.96    2.50
  15 -16  -2   -1.55    1.67
 -15  16   2   -1.34    1.94
  15 -16  -3   -0.33    1.69
 -15  16   3    0.61    1.85
  15 -16  -4    0.54    1.77
 -15  16   4   -1.67    2.07
  15 -16  -5    1.12    1.89
 -15  16   5    1.92    1.98
  15 -16  -6   -0.86    1.76
 -15  16   6   -2.11    1.85
 -15  16   7    4.07    2.40
 -15  16   8    1.83    2.71
 -15  16   9   -0.03    2.27
 -15  16  10    0.81    2.70
  15 -17  10   -1.49    2.63
  15 -17   9    0.46    2.04
  15 -17   9    0.20    2.56
  15 -17   8   -1.29    2.16
  15 -17   8   -0.19    2.41
  15 -17   7   -0.23    2.15
  15 -17   7    3.38    2.44
  15 -17   6    5.85    2.22
  15 -17   6    7.74    2.54
  15 -17   5    1.21    1.92
  15 -17   5    2.21    2.05
  15 -17   4    3.29    2.34
  15 -17   4    5.07    2.53
  15 -17   3    4.47    2.05
  15 -17   3   -1.10    0.97
 -15  17  -3    5.29    2.06
  15 -17   2   -0.59    2.25
  15 -17   2    6.03    2.13
 -15  17  -2   -0.85    1.79
  15 -17   1    1.75    2.17
  15 -17   1   -1.87    1.69
 -15  17  -1   -0.98    0.84
  15 -17   0    0.09    2.37
  15 -17   0    0.61    1.74
 -15  17   0   -2.48    1.94
  15 -17  -1   -0.13    1.71
 -15  17   1   -0.31    2.08
  15 -17  -2    1.07    1.75
 -15  17   2    0.22    2.21
  15 -17  -3    4.54    2.29
 -15  17   3    6.29    2.24
  15 -17  -4    2.10    1.87
 -15  17   4    4.39    2.15
  15 -17  -5    0.04    1.88
 -15  17   5    0.46    2.04
 -15  17   6    6.22    2.55
 -15  17   7    2.37    2.40
 -15  17   8    5.11    2.50
 -15  17   9   -2.43    2.17
 -15  17  10   -2.55    2.24
  15 -18   9    3.57    2.61
  15 -18   8   -1.67    1.67
  15 -18   8    0.28    2.33
  15 -18   7    2.41    2.83
  15 -18   7    3.83    1.98
  15 -18   6    3.72    2.33
  15 -18   6    2.00    2.69
  15 -18   5    1.77    2.58
  15 -18   5    4.37    2.06
  15 -18   4    6.19    2.33
  15 -18   4   10.42    2.64
  15 -18   3   -0.45    2.28
  15 -18   3    1.55    1.82
 -15  18  -3    1.48    1.96
  15 -18   2    2.62    2.46
  15 -18   2    3.72    2.30
 -15  18  -2    4.73    2.19
  15 -18   1    2.26    2.27
  15 -18   1    2.37    2.38
 -15  18  -1    0.67    2.07
  15 -18   0    4.40    2.57
  15 -18   0    4.11    2.05
 -15  18   0    2.89    1.95
  15 -18  -1    1.92    1.83
 -15  18   1    2.12    1.97
  15 -18  -2    0.84    1.93
 -15  18   2    5.30    2.26
  15 -18  -3    1.30    1.85
 -15  18   3    2.02    2.42
  15 -18  -4    6.54    2.28
 -15  18   4    7.07    2.43
  15 -18  -5    6.50    2.34
 -15  18   5    4.79    2.34
 -15  18   6    0.82    2.23
 -15  18   7    3.28    2.36
 -15  18   8   -0.09    2.29
 -15  18   9    0.18    2.40
  15 -19   8    0.70    2.98
  15 -19   7   -0.54    2.33
  15 -19   6    0.22    1.83
  15 -19   6   -0.55    2.16
  15 -19   5    0.69    2.19
  15 -19   5    0.05    2.06
  15 -19   4    6.33    2.59
  15 -19   4    2.95    2.31
  15 -19   3    1.46    2.27
  15 -19   3    7.71    2.67
 -15  19  -3    3.04    2.25
  15 -19   2    1.04    1.07
  15 -19   2    3.42    2.00
 -15  19  -2    2.06    1.94
  15 -19   1    3.70    1.98
  15 -19   1    4.48    2.73
 -15  19  -1    1.78    1.91
  15 -19   0    1.06    2.65
  15 -19   0    3.10    1.98
 -15  19   0   -1.23    1.88
  15 -19  -1    2.13    1.95
  15 -19  -1    1.20    2.52
 -15  19   1    0.69    2.08
  15 -19  -2    2.70    2.37
 -15  19   2    2.39    2.14
  15 -19  -3    4.80    2.16
 -15  19   3    2.21    2.59
  15 -19  -4    7.20    2.40
 -15  19   4    9.80    2.73
 -15  19   5    1.93    2.28
 -15  19   6    5.21    2.57
 -15  19   7    3.71    2.55
 -15  19   8    1.23    2.55
  15 -20   7   -1.93    2.24
  15 -20   6   -2.84    2.15
  15 -20   5    1.37    1.79
  15 -20   5   -3.87    2.20
  15 -20   4    0.59    2.10
  15 -20   4   -3.52    2.65
  15 -20   3   11.64    3.35
  15 -20   3    5.71    2.44
 -15  20  -3    9.01    2.66
  15 -20   2   -1.80    1.69
  15 -20   2    1.11    2.31
 -15  20  -2    0.14    0.81
  15 -20   1   -1.73    0.90
  15 -20   1    2.86    2.04
 -15  20  -1   -0.19    2.31
  15 -20   0    3.62    2.09
  15 -20   0    4.59    2.79
 -15  20   0    2.45    2.52
  15 -20  -1   -0.16    2.16
  15 -20  -1   -3.10    2.40
 -15  20   1   -3.46    2.33
  15 -20  -2    0.48    1.87
 -15  20   2   -2.13    2.41
  15 -20  -3    9.96    2.64
 -15  20   3   11.32    2.83
 -15  20   4   -3.15    2.48
 -15  20   5   -2.35    2.18
 -15  20   6    2.04    2.50
 -15  20   7   -2.93    2.72
  15 -21   6   -3.40    2.91
  15 -21   5   -0.20    3.08
  15 -21   4    1.12    2.54
  15 -21   3   -0.64    2.74
  15 -21   3   -0.04    1.78
  15 -21   2    2.71    2.24
  15 -21   2   -2.19    2.70
 -15  21  -2   -1.01    2.28
  15 -21   1   -3.11    2.67
  15 -21   1    0.01    2.17
 -15  21  -1    2.50    2.45
  15 -21   0    3.64    2.00
  15 -21   0    6.75    2.53
 -15  21   0    2.57    2.52
  15 -21  -1   -0.61    1.76
 -15  21   1   -1.43    1.97
  15 -21  -2    1.90    2.02
 -15  21   2    1.07    2.24
 -15  21   3    0.72    2.64
 -15  21   4    0.82    2.32
 -15  21   5   -1.44    2.23
 -15  21   6   -2.56    2.71
  15 -22   4   -0.20    2.66
  15 -22   3   -0.69    2.59
  15 -22   2    3.92    2.86
  15 -22   2   -1.95    2.00
 -15  22  -2    1.01    2.08
  15 -22   1   -0.94    3.08
  15 -22   1    1.85    1.90
 -15  22  -1   -1.02    2.49
  15 -22   0    5.18    2.43
  15 -22   0   -1.67    2.51
 -15  22   0    1.32    2.76
  15 -22  -1    1.16    2.01
 -15  22   1   -1.32    2.52
 -15  22   2    0.27    2.29
 -15  22   3    2.30    2.80
 -15  22   4    1.73    2.47
  15 -23   1    0.81    3.14
 -15  23  -1   -1.69    2.12
  15 -23   0    1.78    1.98
  15 -23   0    2.52    3.16
 -15  23   0   -2.82    2.07
 -15  23   1    4.77    2.95
  16   6   3    0.49    1.98
  16   6   2    0.72    2.44
  16   6   1   -2.34    2.22
  16   6   0    4.03    2.25
  16   6  -1   -0.24    2.51
  16   6  -2   -4.71    1.77
  16   6  -3    0.45    2.62
  16   5   5   -2.41    2.16
  16   5   4    1.55    2.26
  16   5   4   -1.93    1.99
  16   5   3   -1.55    2.03
  16   5   3   -1.83    2.54
  16   5   2   -0.98    1.89
  16   5   2    3.63    2.02
  16   5   1    2.21    2.41
  16   5   0   -2.14    2.25
  16   5  -1    4.98    2.30
  16   5  -2   -1.66    2.00
  16   5  -3   -0.33    2.03
  16   5  -4    0.04    2.07
  16   5  -5    1.49    2.23
  16   4   7   -2.72    2.32
  16   4   6   -2.87    2.09
  16   4   5    4.36    2.48
  16   4   4    0.52    2.20
  16   4   4    0.54    1.94
  16   4   3    2.85    2.71
  16   4   3    0.79    2.17
  16   4   2   -1.40    2.30
  16   4   2    2.71    2.26
  16   4   1    3.65    2.41
  16   4   1    2.43    2.38
  16   4   0    8.26    2.72
  16   4  -1    2.38    2.05
  16   4  -2    3.75    2.22
  16   4  -3    2.27    2.15
  16   4  -4    3.33    2.26
  16   4  -5    2.76    2.53
  16   4  -6   -1.05    1.99
  16   4  -7    2.21    2.21
  16   3   8    3.17    3.07
  16   3   7   -2.81    2.11
  16   3   6   -0.50    2.21
  16   3   5   -1.22    2.14
  16   3   4   -0.09    1.87
  16   3   4   -0.14    2.16
  16   3   3    6.91    2.86
  16   3   3    5.05    2.36
  16   3   2    0.58    2.43
  16   3   2   -0.01    1.77
  16   3   1    4.16    2.09
  16   3   1    2.01    1.84
  16   3   0    4.54    2.12
  16   3   0    3.82    2.53
  16   3  -1    2.76    2.09
  16   3  -1    2.31    2.25
  16   3  -2   -0.64    2.30
  16   3  -3    6.36    2.37
  16   3  -4    2.25    2.06
  16   3  -5   -1.52    1.84
  16   3  -6    1.52    2.05
  16   3  -7   -0.21    1.97
  16   3  -8   -0.13    2.03
  16   2   8    0.26    2.51
  16   2   7    0.15    2.31
  16   2   6    0.27    2.26
  16   2   5    0.06    2.27
  16   2   4    6.21    2.80
  16   2   4    1.27    1.90
  16   2   3    6.32    1.94
  16   2   3    9.09    2.58
  16   2   2    0.06    2.02
  16   2   2    1.87    1.99
  16   2   1   -0.59    2.33
  16   2   1   -0.44    1.66
  16   2   0   -1.25    1.73
  16   2   0    0.67    1.43
  16   2  -1    1.32    2.20
  16   2  -1    3.52    2.03
  16   2  -2    0.06    1.89
  16   2  -2   -1.91    1.92
  16   2  -3    7.47    2.39
  16   2  -4    1.68    1.93
  16   2  -5   -2.43    2.11
  16   2  -6   -2.77    2.03
  16   2  -7    3.56    2.54
  16   2  -8   -0.56    1.97
  16   1   9   -1.18    2.47
  16   1   8   -0.36    2.38
  16   1   7    1.41    2.32
  16   1   6    4.80    2.55
  16   1   5   -0.88    2.59
  16   1   4    5.70    2.07
  16   1   4    3.62    2.36
  16   1   3    2.52    1.87
  16   1   3    3.29    2.29
  16   1   2   -1.67    1.94
  16   1   2    1.26    1.93
  16   1   1    2.14    2.06
  16   1   1    3.16    2.50
  16   1   0   -3.04    2.20
  16   1   0   -3.05    1.93
  16   1  -1   -0.35    0.95
  16   1  -1   -1.33    2.04
  16   1  -2   -1.34    1.96
  16   1  -2   -0.07    1.72
  16   1  -3    5.70    2.16
  16   1  -3    6.28    2.22
  16   1  -4    6.44    2.26
  16   1  -4    8.67    2.37
  16   1  -5    1.32    1.96
  16   1  -6    6.75    2.62
  16   1  -7    3.79    2.56
  16   1  -8   -2.16    1.83
  16   1  -9   -1.69    1.76
  16   0  10   -2.58    2.43
  16   0   9    2.93    2.71
  16   0   8    0.04    2.39
  16   0   7    9.59    2.81
  16   0   6    0.93    2.27
  16   0   5   -0.31    2.15
  16   0   4    1.64    1.83
  16   0   4    0.31    2.60
  16   0   3    1.53    1.76
  16   0   3    1.71    2.20
  16   0   2   -0.33    1.47
  16   0   2   -1.30    1.87
  16   0   1    4.59    2.06
  16   0   1    3.39    2.17
  16   0   0    2.67    1.84
  16   0   0    1.49    2.40
  16   0  -1    6.39    2.29
  16   0  -1    3.27    2.07
  16   0  -2    2.12    1.55
  16   0  -2   -0.85    1.63
  16   0  -3    0.39    1.84
  16   0  -3    0.35    1.78
  16   0  -4    3.22    2.02
  16   0  -4    2.48    2.22
  16   0  -5    0.25    1.87
  16   0  -5    0.69    1.87
  16   0  -6    5.51    2.30
  16   0  -7    6.03    2.31
  16   0  -8   -2.92    1.67
  16   0  -9   -0.87    1.87
  16   0 -10   -0.99    2.04
  16  -1  10    2.24    2.86
  16  -1   9   -1.81    2.31
  16  -1   8    6.30    2.81
  16  -1   7    6.32    2.65
  16  -1   6    2.70    2.36
  16  -1   5    1.47    2.16
  16  -1   4    2.37    2.12
  16  -1   3   -4.63    1.81
  16  -1   3   -0.27    1.57
  16  -1   2    1.33    1.74
  16  -1   2    0.06    2.01
  16  -1   1   11.17    2.61
  16  -1   1    8.66    2.19
  16  -1   0    0.74    1.64
  16  -1   0    4.37    2.23
  16  -1  -1   11.19    2.80
  16  -1  -1    9.34    2.43
  16  -1  -2    1.03    2.02
  16  -1  -2   -1.80    2.00
  16  -1  -3   -1.51    1.83
  16  -1  -3   -2.52    1.90
  16  -1  -4   -0.79    1.71
  16  -1  -4    2.28    1.12
  16  -1  -5   -1.59    1.66
  16  -1  -5   -1.10    1.85
  16  -1  -6   -0.75    1.79
  16  -1  -6   -1.44    1.79
  16  -1  -7    7.12    2.58
  16  -1  -7    4.82    2.15
  16  -1  -8    5.26    2.36
  16  -1  -9    1.00    2.04
  16  -1 -10    1.92    2.40
  16  -2  10    1.25    2.59
  16  -2   9    2.17    1.99
  16  -2   8    4.10    2.54
  16  -2   7    2.66    2.40
  16  -2   6    4.18    2.46
  16  -2   5    0.56    2.11
  16  -2   4    0.50    2.12
  16  -2   3    3.64    1.70
  16  -2   3    0.31    2.09
  16  -2   2   -2.27    1.88
  16  -2   2   -0.71    1.64
  16  -2   1    1.56    1.53
  16  -2   1    1.51    2.17
  16  -2   0    8.32    2.53
  16  -2   0   13.06    2.21
  16  -2  -1    2.18    2.18
  16  -2  -1    2.73    1.79
  16  -2  -2   -1.77    1.88
  16  -2  -2   -1.27    1.76
  16  -2  -3    1.18    2.10
  16  -2  -3    2.65    2.24
  16  -2  -4    4.97    2.21
  16  -2  -4    1.44    2.10
  16  -2  -5    0.95    1.23
  16  -2  -5   -0.60    1.70
  16  -2  -6    4.87    2.12
  16  -2  -6    1.43    1.19
  16  -2  -7    2.43    1.99
  16  -2  -7    2.46    2.01
  16  -2  -8    3.99    2.25
  16  -2  -8    8.28    2.31
  16  -2  -9   -0.29    1.96
  16  -2 -10    3.37    2.22
  16  -3  11   -0.73    2.54
  16  -3  10    1.21    2.60
  16  -3   9   -0.10    2.41
  16  -3   8    0.67    1.73
  16  -3   7    1.34    2.35
  16  -3   6    0.04    2.21
  16  -3   5   -1.65    2.05
  16  -3   4   -1.04    2.07
  16  -3   3    8.05    2.49
  16  -3   3    9.81    2.02
  16  -3   2   -0.77    2.11
  16  -3   2    1.84    1.70
  16  -3   1    0.42    1.67
  16  -3   1    5.69    2.38
  16  -3   0    3.33    2.31
  16  -3   0    0.54    1.93
  16  -3  -1   -0.44    1.95
  16  -3  -1   -0.35    2.03
  16  -3  -2    0.53    1.87
  16  -3  -2    2.75    2.07
  16  -3  -3    5.32    2.16
  16  -3  -3    7.50    2.10
  16  -3  -4   -0.46    1.62
  16  -3  -4   -1.11    1.65
  16  -3  -5    1.84    2.15
  16  -3  -5    2.30    1.81
  16  -3  -6    0.45    2.01
  16  -3  -6    1.88    1.89
  16  -3  -7    2.91    1.78
  16  -3  -7   -0.53    1.78
  16  -3  -8    2.85    2.06
  16  -3  -8    2.35    0.74
  16  -3  -9    4.82    2.26
  16  -3 -10   -2.24    1.82
  16  -3 -11   -0.84    2.03
  16  -4  11    4.75    2.88
  16  -4  10    3.14    2.61
  16  -4   9    5.77    2.15
  16  -4   8    3.43    2.45
  16  -4   7    2.09    2.25
  16  -4   6   -0.49    2.02
  16  -4   5    3.28    2.28
  16  -4   4   -0.20    2.14
  16  -4   3   10.16    2.58
  16  -4   3   12.03    2.07
  16  -4   2    5.72    2.39
  16  -4   2    4.86    1.79
  16  -4   1    2.58    1.80
  16  -4   1    6.77    2.43
  16  -4   0    1.73    2.26
  16  -4   0    1.58    1.57
  16  -4  -1    3.57    2.24
  16  -4  -1    1.99    1.94
  16  -4  -2    3.72    2.20
  16  -4  -2    5.91    1.92
  16  -4  -3   10.28    2.30
  16  -4  -3   12.05    2.59
  16  -4  -4    0.61    2.22
  16  -4  -4   -1.73    1.90
  16  -4  -5    3.17    1.94
  16  -4  -5    4.22    1.95
  16  -4  -6   -2.26    1.54
  16  -4  -6   -0.11    1.72
  16  -4  -7    0.83    2.13
  16  -4  -7    2.76    1.91
  16  -4  -8    1.66    2.17
  16  -4  -8    0.58    1.85
  16  -4  -9    2.39    1.92
  16  -4  -9    2.15    2.00
  16  -4 -10    0.65    2.03
  16  -4 -11    2.21    2.18
  16  -5  11   -0.09    2.42
  16  -5  10    7.04    2.77
  16  -5   9    2.62    2.48
  16  -5   8   -1.56    2.09
  16  -5   7   -0.05    2.23
  16  -5   6    2.99    2.28
  16  -5   5    1.87    2.21
  16  -5   4   14.07    2.82
  16  -5   3   10.12    1.94
  16  -5   3    7.04    2.58
  16  -5   2    5.55    1.77
  16  -5   2   -1.01    2.14
  16  -5   1   -2.56    1.61
  16  -5   1   -2.33    2.03
  16  -5   0   -2.89    1.71
  16  -5   0   -0.65    2.06
  16  -5  -1    3.82    1.78
  16  -5  -1    0.65    2.04
  16  -5  -2    3.85    2.24
  16  -5  -2    3.77    1.85
  16  -5  -3    5.72    1.99
  16  -5  -3    6.26    2.30
  16  -5  -4   10.28    2.53
  16  -5  -4   17.80    2.61
  16  -5  -5    1.08    1.80
  16  -5  -5    3.18    2.02
  16  -5  -6    0.50    1.84
  16  -5  -6    0.43    1.77
  16  -5  -7    2.00    1.83
  16  -5  -7    1.24    1.86
  16  -5  -8    0.60    1.97
  16  -5  -8    2.68    1.95
  16  -5  -9    5.68    2.21
  16  -5  -9    3.41    2.03
  16  -5 -10    1.16    2.03
  16  -5 -11    1.42    2.04
  16  -6  11   -2.70    2.30
  16  -6  10    1.88    2.44
  16  -6   9    3.11    2.49
  16  -6   8   -0.47    2.19
  16  -6   7    5.44    2.44
  16  -6   6    3.44    2.18
  16  -6   5    0.43    1.60
  16  -6   4    4.66    2.39
  16  -6   3   12.14    2.76
  16  -6   3   13.35    2.05
  16  -6   2   13.06    2.44
  16  -6   2   14.45    2.12
  16  -6   1   10.99    2.68
  16  -6   1   14.11    2.23
  16  -6   0   -3.21    1.89
  16  -6   0    0.28    1.76
  16  -6  -1    9.88    2.28
  16  -6  -1    9.24    2.46
  16  -6  -2   18.57    2.57
  16  -6  -2   14.64    2.83
  16  -6  -3   10.22    2.23
  16  -6  -3   17.27    2.94
  16  -6  -4    4.27    2.25
  16  -6  -4    3.15    2.03
  16  -6  -5    1.38    1.83
  16  -6  -5    2.51    2.01
  16  -6  -6    1.44    1.96
  16  -6  -6    1.78    2.19
  16  -6  -7    0.96    1.85
  16  -6  -7    5.03    2.22
  16  -6  -8   -0.08    1.85
  16  -6  -8   -0.66    2.10
  16  -6  -9    2.64    2.05
  16  -6 -10    2.76    2.42
  16  -6 -11   -0.33    1.96
  16  -7  12    0.22    2.52
  16  -7  11    3.05    2.58
  16  -7  10    0.43    2.37
  16  -7   9    4.01    2.53
  16  -7   8    3.20    2.47
  16  -7   7   -0.32    2.06
  16  -7   6    2.98    2.26
  16  -7   5    4.43    2.27
  16  -7   4   -0.03    2.14
  16  -7   3   10.68    2.70
  16  -7   3   11.85    1.91
  16  -7   2    0.21    2.19
  16  -7   2    3.55    1.74
  16  -7   1    8.26    1.91
  16  -7   1    8.22    2.16
  16  -7   0    9.93    2.11
  16  -7   0    8.37    2.49
  16  -7  -1   12.53    2.36
  16  -7  -1    7.11    2.37
  16  -7  -2    2.82    2.10
  16  -7  -2    5.07    1.89
  16  -7  -3   11.09    2.47
  16  -7  -3   12.32    2.65
  16  -7  -4   -0.14    2.04
  16  -7  -4   -0.59    1.87
  16  -7  -5    5.20    2.03
  16  -7  -5    2.07    2.03
  16  -7  -6    7.98    2.20
  16  -7  -6    8.11    2.33
  16  -7  -7    5.26    2.48
  16  -7  -7    2.06    1.98
  16  -7  -8    2.61    2.07
  16  -7  -8    0.62    1.88
  16  -7  -9    0.29    1.93
  16  -7 -10    1.49    2.02
  16  -7 -11    4.47    2.24
  16  -8  12   -2.21    2.50
  16  -8  11   -2.36    2.35
  16  -8  10   -1.62    2.14
  16  -8   9    4.98    2.52
  16  -8   8    1.89    2.20
  16  -8   7    2.81    2.32
  16  -8   6    6.14    2.47
  16  -8   5    7.45    2.52
  16  -8   4    8.55    2.48
  16  -8   3    3.88    2.33
  16  -8   3    7.15    1.72
  16  -8   2   -2.02    2.06
  16  -8   2    5.77    1.36
  16  -8   2    2.32    1.63
  16  -8   1    4.07    2.35
  16  -8   1    7.14    1.87
  16  -8   0   18.58    2.50
  16  -8   0   19.44    3.00
  16  -8  -1    2.94    2.05
  16  -8  -1    7.84    2.42
  16  -8  -2    4.83    2.15
  16  -8  -2    3.40    2.09
  16  -8  -3    4.41    2.26
  16  -8  -3    5.96    2.26
  16  -8  -4   10.28    2.56
  16  -8  -4    7.28    2.15
  16  -8  -5    3.65    1.98
  16  -8  -5    6.46    2.29
  16  -8  -6    7.96    2.36
  16  -8  -6    7.12    2.20
  16  -8  -7    3.91    2.06
  16  -8  -7   -0.11    1.82
  16  -8  -8   -3.29    1.63
  16  -8  -8    1.60    2.33
  16  -8  -9    1.27    2.07
  16  -8 -10   -2.11    2.19
  16  -8 -11   -1.69    1.89
  16  -8 -12   -2.46    1.98
  16  -9  11   -2.13    2.36
  16  -9  10    4.57    2.62
  16  -9   9   -0.09    2.21
  16  -9   8    0.11    2.09
  16  -9   7    2.46    2.33
  16  -9   6    5.96    2.34
  16  -9   5    2.30    2.21
  16  -9   4   -0.62    2.09
  16  -9   3    8.69    2.55
  16  -9   3   10.17    1.74
 -16   9  -3   10.18    1.67
  16  -9   2    3.95    2.19
  16  -9   2    3.84    1.37
 -16   9  -2    0.16    1.23
  16  -9   1   10.00    2.59
  16  -9   1    8.50    1.99
  16  -9   0   10.75    2.25
  16  -9   0    8.39    2.41
  16  -9  -1    5.83    2.35
  16  -9  -1    9.10    2.06
  16  -9  -2    1.30    2.05
  16  -9  -2    3.56    2.10
  16  -9  -3   10.21    2.54
  16  -9  -3    9.40    2.46
  16  -9  -4   -0.58    2.02
  16  -9  -4    0.82    1.95
  16  -9  -5    5.85    2.24
  16  -9  -5    4.49    1.99
  16  -9  -6    3.87    2.04
  16  -9  -6    4.47    2.12
  16  -9  -7    1.06    1.89
  16  -9  -7    1.57    2.00
  16  -9  -8    3.08    2.08
  16  -9  -8    3.36    2.15
  16  -9  -9   -0.56    2.27
  16  -9 -10   -2.78    1.79
  16  -9 -11    1.29    2.04
  16 -10  11   -1.44    2.32
  16 -10  10    4.75    2.51
  16 -10   9    4.97    2.59
  16 -10   8   -1.32    2.07
  16 -10   7    8.91    2.50
  16 -10   6    2.01    0.90
  16 -10   6    0.35    1.55
  16 -10   5    2.82    1.77
  16 -10   5    1.35    2.17
  16 -10   4    4.38    1.70
  16 -10   4    6.07    2.40
  16 -10   3   13.20    2.06
  16 -10   3   14.23    2.88
 -16  10  -3   11.35    1.80
  16 -10   2   18.58    3.00
  16 -10   2   16.73    2.02
 -16  10  -2   12.19    1.94
  16 -10   1    5.62    2.27
 -16  10  -1    9.39    1.78
  16 -10   0    1.62    2.05
 -16  10   0    1.12    1.16
  16 -10  -1   12.97    2.39
  16 -10  -1    8.94    2.49
 -16  10   1    5.34    1.73
  16 -10  -2   15.41    2.39
  16 -10  -2   13.81    2.69
  16 -10  -3   15.43    2.52
  16 -10  -3   13.75    2.73
  16 -10  -4    5.64    2.29
  16 -10  -4    1.46    1.86
  16 -10  -5    3.41    2.03
  16 -10  -5    0.42    1.88
  16 -10  -6   -0.09    2.10
  16 -10  -6    0.02    1.83
  16 -10  -7    5.77    2.21
  16 -10  -7    3.38    2.03
  16 -10  -8    1.63    2.13
  16 -10  -8    0.07    1.98
  16 -10  -9    4.63    2.24
 -16  10   9    7.13    2.38
  16 -10 -10    5.51    2.31
 -16  10  10    6.38    2.55
 -16  10  11    3.82    2.43
  16 -11  11    5.33    2.76
  16 -11  11    1.56    2.88
  16 -11  10    5.86    2.32
  16 -11  10    7.74    2.73
  16 -11   9    5.21    2.48
  16 -11   9    3.90    2.41
  16 -11   8    0.55    1.72
  16 -11   8    0.16    2.59
  16 -11   7    0.21    1.87
  16 -11   7    1.23    2.23
  16 -11   6    2.16    0.65
  16 -11   6    4.97    2.33
  16 -11   5    0.47    2.03
  16 -11   5    1.05    1.73
  16 -11   4   10.51    2.60
  16 -11   4   12.39    2.03
  16 -11   3    4.43    2.32
  16 -11   3    7.27    1.88
 -16  11  -3    6.22    1.62
  16 -11   2    9.43    2.50
  16 -11   2    6.92    1.62
 -16  11  -2    1.89    1.57
  16 -11   1    4.14    2.16
 -16  11  -1   -0.44    1.44
  16 -11   0    2.14    2.10
 -16  11   0    1.36    1.14
  16 -11  -1   -0.46    1.94
 -16  11   1   -1.81    1.63
  16 -11  -2    3.88    2.16
 -16  11   2    4.01    2.06
  16 -11  -3    4.11    2.18
 -16  11   3    8.23    2.38
  16 -11  -4   12.93    2.69
 -16  11   4   14.91    2.52
  16 -11  -5    3.38    1.98
 -16  11   5    3.07    1.96
  16 -11  -6    0.45    1.88
 -16  11   6    2.42    1.97
  16 -11  -7    0.30    1.87
 -16  11   7   -0.08    1.88
  16 -11  -8   -2.39    1.82
 -16  11   8    0.72    2.04
 -16  11   9    1.82    2.19
 -16  11  10    6.50    2.50
 -16  11  11    3.97    2.54
  16 -12  11    5.80    2.52
  16 -12  11    6.69    2.70
  16 -12  10    0.25    2.26
  16 -12  10   -0.45    1.94
  16 -12   9    4.98    2.18
  16 -12   9    5.59    2.50
  16 -12   8    1.11    2.26
  16 -12   8    0.94    1.83
  16 -12   7    0.89    2.08
  16 -12   7   -0.62    2.10
  16 -12   6   -1.24    1.97
  16 -12   6    1.10    1.29
  16 -12   5    3.61    2.18
  16 -12   5    3.86    1.90
  16 -12   4    0.73    1.69
  16 -12   4    1.46    2.11
  16 -12   3    9.27    2.54
  16 -12   3   13.09    2.13
 -16  12  -3   10.83    1.91
  16 -12   2    7.16    1.82
  16 -12   2    5.85    2.25
 -16  12  -2    6.31    1.62
  16 -12   1   -1.12    1.85
 -16  12  -1    1.77    1.58
  16 -12   0    0.28    1.97
 -16  12   0   -0.25    0.59
  16 -12  -1    1.20    1.96
 -16  12   1    0.74    1.83
  16 -12  -2   10.86    2.52
 -16  12   2    8.03    2.01
  16 -12  -3   13.57    2.70
 -16  12   3   10.96    2.53
  16 -12  -4   -1.36    1.75
 -16  12   4    2.64    1.85
  16 -12  -5    2.27    1.50
 -16  12   5    6.27    2.20
  16 -12  -6    0.29    1.82
 -16  12   6   -1.21    2.12
  16 -12  -7    2.29    2.08
 -16  12   7    3.70    2.24
  16 -12  -8   -2.95    1.78
 -16  12   8   -0.30    2.14
 -16  12   9    4.89    2.49
 -16  12  10   -0.74    2.25
 -16  12  11    1.21    2.49
  16 -13  11    3.85    2.56
  16 -13  11    4.06    2.81
  16 -13  10    0.37    2.26
  16 -13  10   -1.41    2.47
  16 -13   9    1.47    2.06
  16 -13   9    3.20    2.74
  16 -13   8    4.73    2.78
  16 -13   8    4.41    2.44
  16 -13   7    1.37    2.08
  16 -13   7    0.87    2.13
  16 -13   6   -1.44    1.97
  16 -13   6   -0.89    1.55
  16 -13   5    0.31    1.80
  16 -13   5   -0.49    1.95
  16 -13   4   -1.24    1.96
  16 -13   4   -1.76    1.55
  16 -13   3    6.22    1.87
  16 -13   3    8.63    2.34
  16 -13   2    2.36    1.63
  16 -13   2    3.85    2.03
 -16  13  -2   -0.91    1.42
  16 -13   1   -1.22    1.86
 -16  13  -1    0.06    1.48
  16 -13   0    1.76    2.01
 -16  13   0    0.19    0.55
  16 -13  -1    1.96    1.98
 -16  13   1    0.63    1.53
  16 -13  -2    2.03    1.58
 -16  13   2    0.56    1.57
  16 -13  -3    8.71    2.36
 -16  13   3    4.79    1.97
  16 -13  -4    0.69    1.77
 -16  13   4   -0.56    1.75
  16 -13  -5    0.87    1.77
 -16  13   5    2.64    2.02
  16 -13  -6    0.53    1.85
 -16  13   6    0.87    1.93
  16 -13  -7    2.65    2.12
 -16  13   7    0.18    1.95
 -16  13   8    4.77    2.45
 -16  13   9    0.11    2.22
 -16  13  10    1.50    2.44
 -16  13  11    1.53    2.46
  16 -14  10    0.26    2.54
  16 -14  10   -1.04    2.21
  16 -14   9   -0.55    2.27
  16 -14   9    2.37    2.35
  16 -14   8    5.23    2.43
  16 -14   8    6.02    2.29
  16 -14   7    3.92    2.29
  16 -14   7    4.31    2.40
  16 -14   6    2.69    2.13
  16 -14   6    3.86    2.25
  16 -14   5    1.08    2.05
  16 -14   5   -1.42    1.41
  16 -14   4    1.33    2.02
  16 -14   4    3.75    1.93
  16 -14   3   -2.16    1.88
  16 -14   3    0.18    1.83
  16 -14   2    0.42    1.81
  16 -14   2    3.27    2.06
 -16  14  -2    0.02    1.45
  16 -14   1    1.28    1.87
 -16  14  -1   -0.77    1.61
  16 -14   0   12.73    2.44
 -16  14   0    4.70    1.49
  16 -14  -1   -1.05    1.85
 -16  14   1    2.35    1.87
  16 -14  -2    0.56    1.92
 -16  14   2    1.18    1.56
  16 -14  -3    2.59    1.87
  16 -14  -4    2.67    1.93
 -16  14   4   -0.74    2.03
  16 -14  -5   -1.92    1.61
 -16  14   5    0.20    1.89
  16 -14  -6    3.52    2.08
 -16  14   6    3.63    2.21
  16 -14  -7    0.99    1.98
 -16  14   7    1.10    2.12
 -16  14   8    3.90    2.37
 -16  14   9    3.21    2.44
 -16  14  10    0.17    2.30
  16 -15  10    1.93    2.35
  16 -15  10    0.30    2.23
  16 -15   9   -1.03    2.52
  16 -15   9   -0.93    2.39
  16 -15   8    1.67    2.48
  16 -15   8    2.09    2.21
  16 -15   7   11.50    2.53
  16 -15   7   10.71    2.99
  16 -15   6    0.89    1.82
  16 -15   6    0.26    2.05
  16 -15   5    0.73    1.99
  16 -15   5    1.49    0.90
  16 -15   4   -0.14    1.88
  16 -15   4   -0.34    1.94
  16 -15   3    0.76    1.90
  16 -15   3    1.90    2.08
  16 -15   2    0.96    1.77
  16 -15   2   -2.33    1.70
 -16  15  -2   -0.91    1.72
  16 -15   1    8.83    2.29
 -16  15  -1    7.04    1.99
  16 -15   0    4.35    2.06
 -16  15   0    5.74    1.84
  16 -15  -1    6.50    2.33
 -16  15   1    7.10    2.19
  16 -15  -2   -0.20    1.83
 -16  15   2    0.11    1.60
  16 -15  -3    0.07    1.79
 -16  15   3   -1.33    1.55
  16 -15  -4   -1.84    1.62
 -16  15   4    0.19    2.11
  16 -15  -5    1.17    1.88
 -16  15   5    1.63    2.21
  16 -15  -6   -1.58    1.65
 -16  15   6    0.39    1.99
  16 -15  -7    5.39    2.37
 -16  15   7    7.76    2.53
 -16  15   8    4.66    2.50
 -16  15   9   -1.45    2.11
 -16  15  10    2.33    2.64
  16 -16  10    0.77    2.33
  16 -16  10    0.54    2.23
  16 -16   9   -0.65    2.07
  16 -16   9   -2.47    1.96
  16 -16   8    1.21    2.17
  16 -16   8   -0.59    2.29
  16 -16   7    6.19    2.44
  16 -16   7    7.82    2.76
  16 -16   6    3.53    2.20
  16 -16   6   -3.67    2.18
  16 -16   5    0.81    2.24
  16 -16   5   -1.16    1.84
  16 -16   4    0.59    2.08
  16 -16   4    1.44    1.95
  16 -16   3   -1.98    1.69
  16 -16   3   -1.62    1.86
  16 -16   2   -1.76    1.86
  16 -16   2   -1.50    2.16
 -16  16  -2   -0.83    1.67
  16 -16   1    2.23    2.06
 -16  16  -1    5.47    2.08
  16 -16   0    5.58    2.12
 -16  16   0    1.75    1.94
  16 -16  -1    5.07    2.10
 -16  16   1    6.71    2.26
  16 -16  -2   -0.52    1.70
 -16  16   2   -0.58    1.75
  16 -16  -3    0.02    1.71
 -16  16   3    2.87    1.90
  16 -16  -4    1.57    1.89
 -16  16   4    0.47    1.82
  16 -16  -5    4.13    2.11
 -16  16   5   -0.81    1.90
  16 -16  -6   -0.07    1.94
 -16  16   6    3.34    2.22
 -16  16   7    7.89    2.59
 -16  16   8   -0.16    2.13
 -16  16   9   -1.41    2.13
 -16  16  10    2.27    2.50
  16 -17   9    2.27    2.30
  16 -17   9   -1.73    2.01
  16 -17   8    1.92    2.54
  16 -17   8   -1.03    2.10
  16 -17   7    0.75    2.62
  16 -17   7    6.68    2.40
  16 -17   6    8.94    2.94
  16 -17   6    7.13    2.65
  16 -17   5    1.30    1.98
  16 -17   5   -2.74    2.20
  16 -17   4    6.26    2.21
  16 -17   3    2.52    2.03
  16 -17   3    1.14    2.20
  16 -17   2   -2.62    2.12
  16 -17   2   -0.65    1.75
 -16  17  -2    1.08    1.91
  16 -17   1    2.67    2.21
  16 -17   1    3.14    2.02
 -16  17  -1    0.42    1.49
  16 -17   0    0.58    1.87
 -16  17   0   -4.88    1.83
  16 -17  -1    1.69    2.18
 -16  17   1    0.95    2.01
  16 -17  -2    1.45    1.85
 -16  17   2    3.04    1.97
  16 -17  -3    1.84    1.90
 -16  17   3    3.72    2.04
  16 -17  -4    8.43    2.29
 -16  17   4    6.48    2.38
  16 -17  -5    2.76    2.06
 -16  17   5   -1.52    2.00
  16 -17  -6    6.53    2.38
 -16  17   6    7.03    2.83
 -16  17   7    3.53    2.42
 -16  17   8   -2.17    2.49
 -16  17   9   -1.81    2.17
  16 -18   8    2.48    2.43
  16 -18   8   -1.16    2.66
  16 -18   7   -0.54    1.93
  16 -18   7   -1.28    2.11
  16 -18   6    3.38    2.10
  16 -18   6    4.61    2.34
  16 -18   5    0.53    1.99
  16 -18   5   -1.59    2.36
  16 -18   4    2.72    2.05
  16 -18   4   -1.12    2.17
  16 -18   3    7.09    2.19
  16 -18   3    7.99    2.68
  16 -18   2    1.33    2.39
  16 -18   2   -0.15    1.84
 -16  18  -2   -1.45    1.86
  16 -18   1    1.99    2.02
  16 -18   1    0.37    2.35
 -16  18  -1   -0.94    0.82
  16 -18   0    0.46    1.85
 -16  18   0    1.40    2.14
  16 -18  -1   -0.35    1.85
 -16  18   1   -0.98    1.81
  16 -18  -2    1.64    1.95
 -16  18   2   -0.13    1.90
  16 -18  -3    4.78    2.15
 -16  18   3    9.96    2.53
  16 -18  -4    2.69    2.05
 -16  18   4    1.44    2.13
  16 -18  -5   -1.24    1.76
 -16  18   5    2.76    2.26
 -16  18   6   -0.12    2.16
 -16  18   7    2.49    2.32
 -16  18   8   -2.64    2.23
  16 -19   8    0.70    2.47
  16 -19   7    2.41    2.43
  16 -19   7    1.84    2.01
  16 -19   6   -0.14    1.94
  16 -19   6   -0.72    2.68
  16 -19   5    0.25    2.59
  16 -19   5    0.46    2.30
  16 -19   4   -3.58    2.54
  16 -19   4   -0.03    1.87
  16 -19   3   10.92    2.55
  16 -19   2    5.00    2.76
  16 -19   2    3.33    2.47
 -16  19  -2   -2.75    1.95
  16 -19   1    2.17    2.11
  16 -19   1   -0.73    2.31
 -16  19  -1   -1.49    1.93
  16 -19   0    0.76    2.29
 -16  19   0    6.64    2.51
  16 -19  -1    0.45    1.93
 -16  19   1    1.82    2.38
  16 -19  -2   -0.82    1.83
 -16  19   2    2.86    2.58
  16 -19  -3    7.90    2.40
 -16  19   3    7.17    2.44
  16 -19  -4    2.47    2.06
 -16  19   4    2.00    2.24
  16 -19  -5   -0.68    1.93
 -16  19   5    0.92    2.25
 -16  19   6    0.75    2.28
 -16  19   7   -0.57    2.27
 -16  19   8    2.63    2.48
  16 -20   7    4.20    3.12
  16 -20   6   -1.27    2.75
  16 -20   6    0.45    2.22
  16 -20   5    0.72    2.22
  16 -20   5   -0.37    2.81
  16 -20   4    1.02    1.93
  16 -20   4   -0.09    2.84
  16 -20   3    0.10    2.68
  16 -20   3    0.86    1.92
  16 -20   2    3.23    2.32
  16 -20   2    0.54    2.00
 -16  20  -2   -1.22    2.10
  16 -20   1    4.19    2.15
  16 -20   1   -3.98    2.38
 -16  20  -1    0.53    2.26
  16 -20   0    2.29    2.09
 -16  20   0    2.74    2.10
  16 -20  -1    0.07    2.27
 -16  20   1    2.14    2.11
  16 -20  -2    0.61    1.95
 -16  20   2    2.17    2.21
  16 -20  -3    1.20    2.01
 -16  20   3    1.19    2.26
  16 -20  -4    3.33    2.19
 -16  20   4   -1.23    2.67
 -16  20   5    3.81    2.85
 -16  20   6    2.67    2.50
 -16  20   7    1.08    2.41
  16 -21   5   -0.29    2.56
  16 -21   4    3.01    3.03
  16 -21   4    3.22    2.09
  16 -21   3   -0.46    2.23
  16 -21   3   -2.44    2.72
  16 -21   2    1.71    2.05
  16 -21   2   -0.45    2.18
 -16  21  -2   -1.86    0.85
  16 -21   1    1.66    1.98
  16 -21   1    2.64    2.78
 -16  21  -1   -0.57    1.99
  16 -21   0   -0.96    1.86
 -16  21   0   -0.61    2.36
  16 -21  -1    0.67    1.93
 -16  21   1    3.26    2.63
  16 -21  -2    3.12    2.19
 -16  21   2   -2.53    2.41
  16 -21  -3    2.74    2.14
 -16  21   3   -3.73    2.07
 -16  21   4    1.42    2.36
 -16  21   5   -0.95    2.28
  16 -22   3   -1.17    2.38
  16 -22   3    4.43    2.47
  16 -22   2    2.08    3.01
  16 -22   2    0.98    1.85
 -16  22  -2    1.04    1.81
  16 -22   1    1.19    2.35
  16 -22   1   -1.10    0.66
 -16  22  -1    0.57    2.53
  16 -22   0    1.83    2.04
 -16  22   0   -0.25    2.19
  16 -22  -1   -0.28    2.31
 -16  22   1    2.51    2.60
  16 -22  -2   -0.69    2.03
 -16  22   2    0.40    2.58
 -16  22   3   -2.23    2.68
  17   5   2   -0.86    2.28
  17   5   1    1.33    2.16
  17   5   0    4.85    2.30
  17   5  -1    1.23    2.14
  17   5  -2    0.51    2.21
  17   4   4    0.33    2.25
  17   4   3   -0.12    2.58
  17   4   3    1.41    2.23
  17   4   2   -1.26    2.17
  17   4   2    3.30    2.41
  17   4   1    3.48    2.07
  17   4   0    1.73    2.37
  17   4  -1    0.48    2.42
  17   4  -2   -2.98    1.91
  17   4  -3    3.19    2.33
  17   4  -4    0.47    2.07
  17   3   6   -2.20    2.23
  17   3   5    3.94    2.49
  17   3   4    1.38    2.26
  17   3   3   -1.35    2.58
  17   3   3   -0.37    2.04
  17   3   2    1.56    2.15
  17   3   2    0.75    2.17
  17   3   1    1.36    1.82
  17   3   1    3.09    2.02
  17   3   0   -0.41    2.33
  17   3   0    1.04    2.02
  17   3  -1    2.50    2.09
  17   3  -2    0.46    2.00
  17   3  -3    1.78    2.17
  17   3  -4    2.16    2.14
  17   3  -5    2.20    2.15
  17   3  -6   -4.36    1.86
  17   2   7   -0.01    2.86
  17   2   6   -3.32    2.22
  17   2   5    3.48    2.49
  17   2   4    3.95    2.78
  17   2   3   -0.05    2.01
  17   2   3   -2.21    2.00
  17   2   2    7.35    2.45
  17   2   2    2.33    2.69
  17   2   1    1.02    1.91
  17   2   1    0.91    2.12
  17   2   0    1.73    1.24
  17   2   0    2.97    2.36
  17   2  -1    0.22    2.30
  17   2  -1    1.33    2.32
  17   2  -2    6.36    2.72
  17   2  -3   -1.08    1.82
  17   2  -4    0.86    2.11
  17   2  -5   -3.49    1.84
  17   2  -6   -0.24    2.31
  17   2  -7    0.37    2.16
  17   1   8   -1.56    2.90
  17   1   7   -0.25    2.34
  17   1   6    2.58    2.46
  17   1   5    1.26    2.30
  17   1   4    2.01    2.43
  17   1   3    2.06    2.70
  17   1   3    2.97    2.12
  17   1   2    7.14    2.44
  17   1   2    4.79    2.47
  17   1   1   -2.75    2.29
  17   1   1    1.43    2.20
  17   1   0   -1.66    1.74
  17   1   0    4.32    2.27
  17   1  -1    2.15    2.31
  17   1  -1   -0.44    0.76
  17   1  -2    9.29    2.40
  17   1  -2    7.97    2.64
  17   1  -3    7.13    2.37
  17   1  -3    4.80    2.22
  17   1  -4    1.77    2.05
  17   1  -5   -0.05    1.97
  17   1  -6    0.48    1.99
  17   1  -7   -2.66    1.82
  17   1  -8    2.07    2.18
  17   0   8   -1.56    2.29
  17   0   7    1.09    2.49
  17   0   6    6.11    2.68
  17   0   5    2.58    2.44
  17   0   4    1.73    2.30
  17   0   3    6.23    2.11
  17   0   3    5.73    2.85
  17   0   2    9.41    2.66
  17   0   2    7.26    2.28
  17   0   1    0.35    1.91
  17   0   1   -5.09    2.19
  17   0   0    0.74    1.71
  17   0   0    1.23    2.50
  17   0  -1    1.45    2.31
  17   0  -1    3.89    2.23
  17   0  -2    3.03    2.00
  17   0  -2    3.05    1.67
  17   0  -3    9.23    2.40
  17   0  -3    9.28    2.30
  17   0  -4    0.68    1.93
  17   0  -4   -1.12    2.15
  17   0  -5   -0.14    1.88
  17   0  -6   10.57    2.86
  17   0  -7   -0.14    1.96
  17   0  -8   -0.95    1.84
  17  -1   9    2.62    3.07
  17  -1   8   -1.09    2.36
  17  -1   7    1.58    2.55
  17  -1   6    5.82    3.06
  17  -1   5   -1.18    2.64
  17  -1   4    6.33    2.53
  17  -1   3   -0.86    2.08
  17  -1   3    1.98    1.83
  17  -1   2   -0.83    2.04
  17  -1   2    0.42    1.50
  17  -1   1    1.82    1.98
  17  -1   1   -3.28    2.28
  17  -1   0    2.94    2.05
  17  -1   0    0.70    2.07
  17  -1  -1   -0.47    1.63
  17  -1  -1   -3.32    2.11
  17  -1  -2   -0.84    2.11
  17  -1  -2   -2.32    2.05
  17  -1  -3    5.62    2.16
  17  -1  -3    0.81    2.05
  17  -1  -4    2.38    1.49
  17  -1  -4    3.60    2.14
  17  -1  -5    3.99    2.17
  17  -1  -5    1.67    2.12
  17  -1  -6    9.80    2.58
  17  -1  -6    5.94    2.34
  17  -1  -7   -0.91    2.27
  17  -1  -8   -0.22    1.92
  17  -1  -9    1.99    2.16
  17  -2  10   -1.36    2.45
  17  -2   9   -1.63    2.37
  17  -2   8    2.36    2.54
  17  -2   7    1.65    2.40
  17  -2   6    2.27    2.34
  17  -2   5   -1.86    2.09
  17  -2   4    5.04    2.42
  17  -2   3    6.53    1.93
  17  -2   3    3.57    2.74
  17  -2   2    1.06    2.09
  17  -2   2    6.50    1.99
  17  -2   1   -0.46    1.74
  17  -2   1    1.41    2.13
  17  -2   0    4.36    1.80
  17  -2   0    2.51    2.13
  17  -2  -1    2.10    1.70
  17  -2  -1    5.18    2.30
  17  -2  -2    0.12    1.71
  17  -2  -2   -0.70    2.11
  17  -2  -3    2.73    2.36
  17  -2  -3    5.05    2.06
  17  -2  -4    5.76    2.09
  17  -2  -4    3.31    1.99
  17  -2  -5   -0.14    1.12
  17  -2  -5    1.77    1.98
  17  -2  -6    7.66    2.32
  17  -2  -6    7.34    2.38
  17  -2  -7    3.30    2.17
  17  -2  -7    5.86    2.30
  17  -2  -8   -2.85    1.82
  17  -2  -9   -1.73    2.21
  17  -2 -10    2.26    2.16
  17  -3  10    2.11    2.61
  17  -3   9    4.44    2.73
  17  -3   8   -0.67    2.34
  17  -3   7    8.72    2.85
  17  -3   6    1.99    2.35
  17  -3   5    2.76    2.34
  17  -3   4    0.62    2.17
  17  -3   3    4.94    2.72
  17  -3   3    4.82    2.00
  17  -3   2   14.38    2.34
  17  -3   2   12.76    2.74
  17  -3   1    3.14    1.91
  17  -3   1    4.54    2.35
  17  -3   0    1.65    2.15
  17  -3   0    0.63    1.54
  17  -3  -1    2.69    2.23
  17  -3  -1    4.31    2.14
  17  -3  -2    8.80    2.42
  17  -3  -2   11.81    2.33
  17  -3  -3    4.89    1.95
  17  -3  -3    5.94    2.28
  17  -3  -4    1.90    1.97
  17  -3  -4    1.11    2.15
  17  -3  -5    1.06    1.82
  17  -3  -5   -0.08    1.77
  17  -3  -6    5.82    2.42
  17  -3  -6    3.69    2.19
  17  -3  -7    4.70    1.64
  17  -3  -7    7.51    2.36
  17  -3  -8    0.52    1.06
  17  -3  -8   -0.12    1.94
  17  -3  -9    1.92    1.99
  17  -3  -9    2.65    2.14
  17  -3 -10    4.74    2.43
  17  -4  10    7.58    2.88
  17  -4   9    1.20    1.90
  17  -4   8    2.08    2.50
  17  -4   7    4.74    2.07
  17  -4   6   -1.41    2.12
  17  -4   5    2.82    2.29
  17  -4   4   -0.58    2.09
  17  -4   3    2.92    1.78
  17  -4   3    0.24    2.11
  17  -4   2   15.01    2.31
  17  -4   2   13.62    2.90
  17  -4   1    5.67    2.39
  17  -4   1    7.97    2.05
  17  -4   0   -0.97    1.46
  17  -4   0    3.64    2.18
  17  -4  -1    5.70    2.36
  17  -4  -1    6.61    1.98
  17  -4  -2   14.77    2.53
  17  -4  -2   18.30    2.95
  17  -4  -3    1.33    1.93
  17  -4  -3    1.73    1.85
  17  -4  -4    3.71    2.05
  17  -4  -4    4.85    2.27
  17  -4  -5    1.90    2.19
  17  -4  -5   -0.03    1.79
  17  -4  -6    1.33    1.80
  17  -4  -6    0.91    1.80
  17  -4  -7    3.74    2.15
  17  -4  -7    2.34    2.08
  17  -4  -8    0.37    1.99
  17  -4  -8    2.03    1.98
  17  -4  -9    1.67    2.43
  17  -4  -9    2.75    2.25
  17  -4 -10    8.54    2.55
  17  -5  10    0.09    2.49
  17  -5   9    1.88    2.55
  17  -5   8   -1.37    2.23
  17  -5   7    3.71    2.45
  17  -5   6    1.80    2.28
  17  -5   5   -1.78    2.02
  17  -5   4    1.83    2.12
  17  -5   3   12.54    2.87
  17  -5   3   12.29    2.19
  17  -5   2   -1.07    2.03
  17  -5   2   -2.66    1.48
  17  -5   1    3.23    2.30
  17  -5   1    4.86    1.95
  17  -5   0    4.18    2.29
  17  -5   0    7.97    2.20
  17  -5  -1    5.38    2.25
  17  -5  -1    3.82    1.84
  17  -5  -2   -0.29    1.96
  17  -5  -2   -2.17    1.85
  17  -5  -3   11.60    2.31
  17  -5  -3   13.14    2.70
  17  -5  -4   -0.28    1.82
  17  -5  -4    1.26    1.80
  17  -5  -5    0.96    1.81
  17  -5  -5   -2.39    2.14
  17  -5  -6    0.64    1.74
  17  -5  -6    3.06    2.06
  17  -5  -7    4.01    2.10
  17  -5  -7    1.26    2.33
  17  -5  -8    2.41    2.08
  17  -5  -8   -0.59    1.94
  17  -5  -9    7.73    2.38
  17  -5  -9    4.01    2.17
  17  -5 -10    2.19    2.20
  17  -6  11    0.19    2.50
  17  -6  10    2.11    2.00
  17  -6   9    3.02    2.47
  17  -6   8   -0.40    2.28
  17  -6   7    4.05    2.40
  17  -6   6    3.59    2.40
  17  -6   5    0.53    1.57
  17  -6   4    2.37    1.78
  17  -6   3    3.48    2.33
  17  -6   2   -1.41    1.47
  17  -6   2   -3.10    1.90
  17  -6   1   -2.29    1.57
  17  -6   1   -0.91    2.11
  17  -6   0    1.14    2.07
  17  -6   0   -0.58    1.69
  17  -6  -1    0.25    1.58
  17  -6  -1   -0.33    1.94
  17  -6  -2    1.00    2.05
  17  -6  -2    0.07    1.96
  17  -6  -3    6.95    2.34
  17  -6  -3    8.52    2.45
  17  -6  -4    3.53    2.09
  17  -6  -4    3.65    1.91
  17  -6  -5    1.11    1.92
  17  -6  -5   -0.84    1.68
  17  -6  -6    3.97    2.19
  17  -6  -6    1.86    1.82
  17  -6  -7    2.43    2.43
  17  -6  -7    4.36    2.15
  17  -6  -8    1.99    2.36
  17  -6  -8    0.93    1.98
  17  -6  -9    3.08    2.51
  17  -6  -9    0.92    2.36
  17  -6 -10    2.22    2.46
  17  -6 -11    1.37    2.23
  17  -7  11    2.25    2.68
  17  -7  10    0.22    2.38
  17  -7   9   -0.27    2.27
  17  -7   8    0.27    2.27
  17  -7   7   -2.46    2.04
  17  -7   6    7.59    2.60
  17  -7   5   -1.81    1.98
  17  -7   4    0.21    2.09
  17  -7   3   -0.95    2.08
  17  -7   2    1.69    1.73
  17  -7   2    0.45    2.16
  17  -7   1   -0.77    2.09
  17  -7   1    1.00    1.69
  17  -7   0    6.46    2.37
  17  -7   0    7.49    2.13
  17  -7  -1    1.91    1.67
  17  -7  -1    1.80    2.00
  17  -7  -2   -0.98    1.92
  17  -7  -2   -1.25    1.56
  17  -7  -3   -1.39    1.94
  17  -7  -3    0.70    1.92
  17  -7  -4    2.10    2.10
  17  -7  -4    1.52    2.02
  17  -7  -5   -2.88    1.57
  17  -7  -5   -0.97    1.91
  17  -7  -6    7.69    2.21
  17  -7  -6   12.20    2.72
  17  -7  -7    1.17    2.39
  17  -7  -7   -0.39    1.82
  17  -7  -8    5.71    2.25
  17  -7  -8    4.24    2.16
  17  -7  -9    2.25    2.07
  17  -7  -9   -2.11    1.88
  17  -7 -10    0.92    2.01
  17  -7 -11   -2.98    1.90
  17  -8  11   -0.63    2.48
  17  -8  10    4.65    2.61
  17  -8   9    4.12    2.56
  17  -8   8   -0.16    2.29
  17  -8   7    8.38    2.71
  17  -8   6    3.90    2.27
  17  -8   5    7.21    2.52
  17  -8   4   -2.55    1.97
  17  -8   3   -1.63    2.02
  17  -8   2   -0.70    2.08
  17  -8   2    2.74    1.60
  17  -8   1   11.60    2.22
  17  -8   1   14.70    2.83
  17  -8   0   -0.01    1.99
  17  -8   0    0.61    1.52
  17  -8  -1   12.94    2.70
  17  -8  -1   13.31    2.44
  17  -8  -2    1.74    1.71
  17  -8  -2    0.93    2.03
  17  -8  -3   -0.77    1.62
  17  -8  -3    3.47    2.06
  17  -8  -4    1.15    1.75
  17  -8  -4   -0.92    1.88
  17  -8  -5   11.13    2.53
  17  -8  -5    9.42    2.21
  17  -8  -6   -0.44    1.84
  17  -8  -6    0.73    1.91
  17  -8  -7    5.41    2.40
  17  -8  -7    8.59    2.38
  17  -8  -8   -1.12    1.79
  17  -8  -8   -1.65    1.74
  17  -8  -9    2.75    2.56
  17  -8  -9    1.61    2.48
  17  -8 -10   -1.26    1.96
  17  -8 -11   -0.74    2.20
  17  -9  11    2.62    2.61
  17  -9  10    0.69    2.40
  17  -9   9    2.60    2.55
  17  -9   8    0.33    2.26
  17  -9   7   10.62    2.67
  17  -9   6    2.92    2.32
  17  -9   5    4.74    2.43
  17  -9   4   -1.26    2.04
  17  -9   3    1.86    2.18
  17  -9   2   -0.94    1.61
  17  -9   2    0.21    2.05
  17  -9   1   14.86    2.88
  17  -9   1   13.54    2.28
  17  -9   0    2.46    2.05
  17  -9   0   -1.11    1.79
  17  -9  -1   11.53    2.69
  17  -9  -1   15.21    2.57
  17  -9  -2    0.92    2.01
  17  -9  -2   -0.57    1.61
  17  -9  -3    2.70    2.12
  17  -9  -3    2.20    2.12
  17  -9  -4   -0.81    1.86
  17  -9  -4    0.54    1.77
  17  -9  -5    7.62    2.29
  17  -9  -5    5.67    2.09
  17  -9  -6    0.68    1.93
  17  -9  -6    3.69    2.10
  17  -9  -7    9.79    2.43
  17  -9  -7    4.55    2.30
  17  -9  -8    2.58    2.13
  17  -9  -8   -0.25    1.92
  17  -9  -9    1.61    2.21
  17  -9 -10    3.14    2.17
  17  -9 -11   -3.02    1.97
  17 -10  11   -1.76    2.31
  17 -10  10   -0.46    2.36
  17 -10   9    2.63    2.96
  17 -10   8    6.28    2.50
  17 -10   7    0.18    2.24
  17 -10   6    9.93    2.71
  17 -10   5    1.60    2.15
  17 -10   5    0.66    1.54
  17 -10   4    2.57    2.22
  17 -10   4    1.10    1.41
  17 -10   3    1.38    2.07
  17 -10   2   -1.50    2.04
 -17  10  -2    2.60    1.50
  17 -10   1    0.49    1.99
 -17  10  -1    0.40    1.36
  17 -10   0    7.14    2.05
  17 -10   0    4.46    2.26
  17 -10  -1    0.16    1.45
  17 -10  -1    2.31    1.80
  17 -10  -2   -1.92    1.83
  17 -10  -2    0.14    1.69
  17 -10  -3    0.81    1.76
  17 -10  -3    1.64    2.05
  17 -10  -4   -0.15    1.46
  17 -10  -4   -0.42    2.07
  17 -10  -5    2.12    2.02
  17 -10  -5   -3.91    1.56
  17 -10  -6    9.05    2.39
  17 -10  -6   10.23    2.56
  17 -10  -7   -0.24    1.89
  17 -10  -7   -1.89    2.20
  17 -10  -8    6.54    2.45
  17 -10  -8    6.78    2.69
  17 -10  -9   -2.46    1.80
  17 -10 -10   -1.79    1.95
 -17  10  10   -0.07    2.16
  17 -10 -11    0.96    2.21
 -17  10  11    2.35    2.45
  17 -11  11   -2.17    2.33
  17 -11  11    0.78    2.51
  17 -11  10    1.15    2.43
  17 -11  10    0.66    1.99
  17 -11   9    4.22    2.47
  17 -11   9    0.61    2.31
  17 -11   8    1.89    2.38
  17 -11   8    1.79    1.83
  17 -11   7    3.41    2.37
  17 -11   7    4.19    2.07
  17 -11   6    3.62    2.01
  17 -11   6    1.84    2.24
  17 -11   5   -0.03    1.75
  17 -11   5    0.92    2.12
  17 -11   4    1.96    1.57
  17 -11   4    5.28    2.39
  17 -11   3    3.02    2.16
  17 -11   2   -0.37    1.96
 -17  11  -2    4.88    1.59
  17 -11   1    1.00    1.94
 -17  11  -1    0.63    1.55
  17 -11   0    0.15    1.95
 -17  11   0    0.20    1.37
  17 -11  -1   -2.54    1.78
 -17  11   1   -0.40    1.72
  17 -11  -2    0.03    1.86
 -17  11   2    0.37    1.50
  17 -11  -3    5.87    2.28
 -17  11   3    6.36    2.24
  17 -11  -4    5.84    2.01
  17 -11  -4    3.74    1.77
 -17  11   4    3.01    2.27
  17 -11  -5   -2.00    1.99
  17 -11  -5    0.23    1.86
 -17  11   5    1.82    1.93
  17 -11  -6    5.50    2.29
  17 -11  -6    2.38    2.01
 -17  11   6    0.77    1.95
  17 -11  -7    2.41    2.06
  17 -11  -7    5.27    2.26
 -17  11   7    4.29    2.25
  17 -11  -8    2.11    2.18
 -17  11   8    3.20    2.31
 -17  11   9   -1.40    1.95
 -17  11  10    2.10    2.34
 -17  11  11    3.85    2.58
  17 -12  10    3.85    2.26
  17 -12  10   -0.47    2.31
  17 -12   9    4.89    2.57
  17 -12   9    5.53    2.31
  17 -12   8    1.77    2.13
  17 -12   8   -1.13    2.15
  17 -12   7    0.71    2.22
  17 -12   7    1.88    2.02
  17 -12   6    2.19    1.90
  17 -12   6   -0.89    2.06
  17 -12   5    3.94    1.88
  17 -12   5    5.91    2.42
  17 -12   4   -1.32    1.94
  17 -12   4    0.61    1.56
  17 -12   3    7.78    2.09
  17 -12   2    2.56    2.06
 -17  12  -2    1.16    1.35
  17 -12   1    0.77    1.98
 -17  12  -1    3.86    1.68
  17 -12   0    1.90    1.97
 -17  12   0    5.74    1.60
  17 -12  -1    6.65    2.32
 -17  12   1    6.10    2.07
  17 -12  -2    1.72    1.94
 -17  12   2    3.70    1.73
  17 -12  -3   13.27    2.69
 -17  12   3    8.49    2.16
  17 -12  -4   -0.60    1.75
 -17  12   4    1.00    1.74
  17 -12  -5   -1.76    1.71
 -17  12   5    1.37    1.93
  17 -12  -6    1.52    2.01
 -17  12   6    3.22    2.12
  17 -12  -7    2.63    2.12
 -17  12   7    2.45    2.19
  17 -12  -8    3.54    2.28
 -17  12   8    5.90    2.40
 -17  12   9    4.54    2.52
 -17  12  10   -1.70    2.05
  17 -13  10    7.21    2.78
  17 -13  10    7.04    2.86
  17 -13   9    1.23    2.05
  17 -13   9   -1.13    2.18
  17 -13   8    2.00    2.32
  17 -13   8    1.07    2.33
  17 -13   7    7.02    2.56
  17 -13   7    1.75    2.11
  17 -13   6    0.19    1.37
  17 -13   6    0.71    2.18
  17 -13   5    0.15    2.08
  17 -13   5    2.60    1.92
  17 -13   4    3.59    2.21
  17 -13   4    3.07    1.79
  17 -13   3    3.71    2.10
  17 -13   2   11.45    2.63
 -17  13  -2   14.09    2.04
  17 -13   1    8.35    2.36
 -17  13  -1    5.27    1.74
  17 -13   0    1.52    1.56
 -17  13   0    1.35    1.10
  17 -13  -1    8.93    2.38
 -17  13   1    5.66    2.05
  17 -13  -2   17.23    2.85
 -17  13   2   12.56    2.32
  17 -13  -3    2.44    2.01
 -17  13   3    4.73    2.14
  17 -13  -4    1.89    1.94
 -17  13   4    3.80    2.00
  17 -13  -5    0.97    1.83
 -17  13   5    2.22    2.06
  17 -13  -6    0.03    1.96
 -17  13   6   -2.61    1.90
  17 -13  -7    4.09    2.24
 -17  13   7    6.23    2.46
  17 -13  -8    2.77    2.22
 -17  13   8   -1.36    2.56
 -17  13   9   -1.69    2.11
 -17  13  10    7.30    2.78
  17 -14  10    5.83    2.69
  17 -14  10    3.42    2.67
  17 -14   9   -1.48    2.14
  17 -14   9    0.04    1.95
  17 -14   8    1.28    2.30
  17 -14   8    1.00    2.32
  17 -14   7    7.98    2.57
  17 -14   7    5.21    2.48
  17 -14   6    4.25    2.38
  17 -14   6    0.65    0.82
  17 -14   5    1.97    2.19
  17 -14   5    3.04    1.96
  17 -14   4    3.24    1.86
  17 -14   4    2.48    2.15
  17 -14   3    2.40    2.03
  17 -14   3    3.04    2.03
  17 -14   2   10.76    2.51
 -17  14  -2   15.58    2.38
  17 -14   1   -0.01    1.92
 -17  14  -1    1.61    1.68
  17 -14   0   -0.89    1.86
 -17  14   0    0.33    0.49
  17 -14  -1    3.82    2.06
 -17  14   1    1.23    1.57
  17 -14  -2   13.04    2.67
 -17  14   2   10.80    2.24
  17 -14  -3    1.64    1.89
 -17  14   3    4.18    1.88
  17 -14  -4    3.98    1.64
 -17  14   4    1.51    1.93
  17 -14  -5    3.06    2.03
 -17  14   5    1.92    1.94
  17 -14  -6    3.68    2.13
 -17  14   6    2.90    2.58
  17 -14  -7    4.41    2.27
 -17  14   7    8.16    2.65
 -17  14   8   -0.15    2.19
 -17  14   9   -0.94    2.32
 -17  14  10    6.12    2.78
  17 -15   9   -0.27    2.10
  17 -15   9    2.71    2.32
  17 -15   8    4.77    2.51
  17 -15   8   -0.09    1.95
  17 -15   7   -0.63    2.23
  17 -15   7    0.51    2.20
  17 -15   6    2.52    2.29
  17 -15   6    5.38    2.04
  17 -15   5   -0.45    1.92
  17 -15   5    0.36    2.14
  17 -15   4    2.45    2.06
  17 -15   4    4.42    2.16
  17 -15   3    5.47    2.23
  17 -15   3   -0.97    1.88
  17 -15   2   -0.74    1.84
 -17  15  -2   -1.16    1.52
  17 -15   1    1.12    1.87
 -17  15  -1    0.40    1.65
  17 -15   0   -1.93    1.81
 -17  15   0   -1.23    0.85
  17 -15  -1    0.88    1.92
 -17  15   1   -3.12    1.58
  17 -15  -2    2.79    1.99
 -17  15   2    1.38    1.96
  17 -15  -3    2.44    1.60
 -17  15   3    6.71    2.08
  17 -15  -4    3.00    1.98
 -17  15   4    5.66    2.16
  17 -15  -5    1.56    1.94
 -17  15   5    1.20    2.01
  17 -15  -6    7.59    2.44
 -17  15   6    5.86    2.40
  17 -15  -7    1.96    2.20
 -17  15   7    1.88    2.21
 -17  15   8   -0.83    2.19
 -17  15   9    2.83    2.54
  17 -16   9   -2.86    2.02
  17 -16   9   -1.68    2.09
  17 -16   8   -2.54    1.86
  17 -16   8    1.18    2.20
  17 -16   7    5.86    2.43
  17 -16   7    0.80    1.90
  17 -16   6    1.58    2.26
  17 -16   6    5.12    2.20
  17 -16   5   -1.47    1.88
  17 -16   5    1.59    2.04
  17 -16   4    5.95    2.32
  17 -16   4    4.65    2.28
  17 -16   3    0.00    1.90
  17 -16   3   -1.20    1.81
  17 -16   2   -0.98    1.97
 -17  16  -2   -1.37    1.64
  17 -16   1   -0.69    1.81
 -17  16  -1   -0.83    1.69
  17 -16   0   -0.83    1.78
 -17  16   0    0.43    1.67
  17 -16  -1   -0.54    1.84
 -17  16   1    0.46    1.71
  17 -16  -2   -2.98    1.65
 -17  16   2    0.42    2.01
  17 -16  -3    3.93    1.98
 -17  16   3    2.64    1.87
  17 -16  -4    6.02    2.26
 -17  16   4    5.74    2.19
  17 -16  -5   -1.59    1.71
 -17  16   5    1.95    2.09
  17 -16  -6    2.44    1.70
 -17  16   6    6.38    2.41
  17 -16  -7   -0.71    1.93
 -17  16   7    0.07    2.12
 -17  16   8    1.75    2.70
 -17  16   9   -1.52    2.27
  17 -17   8    1.20    2.18
  17 -17   8   -5.13    2.27
  17 -17   7    2.74    2.23
  17 -17   7   -1.28    2.01
  17 -17   6    7.76    2.48
  17 -17   6    6.30    2.34
  17 -17   5   -1.83    0.72
  17 -17   5   -1.41    1.98
  17 -17   4   -1.00    2.11
  17 -17   4    0.21    2.38
  17 -17   3    6.73    2.35
  17 -17   3    9.08    2.73
  17 -17   2    4.85    2.22
 -17  17  -2    6.04    2.17
  17 -17   1   -0.19    1.87
 -17  17  -1    0.90    1.93
  17 -17   0   -2.25    1.81
 -17  17   0    0.50    1.59
  17 -17  -1    2.79    2.06
 -17  17   1   -0.33    1.75
  17 -17  -2    2.19    2.04
 -17  17   2    4.17    2.35
  17 -17  -3    4.18    2.06
 -17  17   3    8.00    2.48
  17 -17  -4    2.53    2.08
 -17  17   4    1.60    2.10
  17 -17  -5   -0.32    1.80
 -17  17   5   -2.06    2.30
  17 -17  -6    2.65    2.21
 -17  17   6    6.30    2.59
 -17  17   7    0.65    2.31
 -17  17   8   -2.90    2.10
  17 -18   8   -1.08    2.02
  17 -18   8   -0.38    2.68
  17 -18   7   -4.49    2.25
  17 -18   7    0.69    2.70
  17 -18   6    2.99    2.59
  17 -18   6    3.65    2.52
  17 -18   5    0.69    2.06
  17 -18   5    0.14    1.95
  17 -18   4    1.10    2.45
  17 -18   4    1.87    2.33
  17 -18   3    2.30    2.41
  17 -18   3    0.55    2.34
  17 -18   2   10.02    2.50
 -17  18  -2    4.60    2.14
  17 -18   1   -0.40    1.96
 -17  18  -1   -2.67    1.68
  17 -18   0   -1.12    1.82
 -17  18   0    0.87    2.18
  17 -18  -1   -0.98    1.77
 -17  18   1   -0.39    1.80
  17 -18  -2    7.50    2.35
 -17  18   2    5.64    2.22
  17 -18  -3    3.26    2.19
 -17  18   3    4.90    2.26
  17 -18  -4    2.39    2.02
 -17  18   4    1.96    2.16
  17 -18  -5   -2.44    1.67
 -17  18   5    2.42    2.72
  17 -18  -6    1.84    2.09
 -17  18   6    0.43    2.31
 -17  18   7    2.17    2.49
 -17  18   8   -0.57    2.87
  17 -19   7   -0.66    2.23
  17 -19   7    0.98    2.10
  17 -19   6    1.48    2.25
  17 -19   6    1.46    2.01
  17 -19   5    2.83    2.14
  17 -19   5   -2.20    2.39
  17 -19   4   -0.73    1.90
  17 -19   4   -2.58    0.84
  17 -19   3   -1.94    2.32
  17 -19   3   -0.78    2.01
  17 -19   2    5.94    2.70
 -17  19  -2    3.53    2.24
  17 -19   1    1.62    2.08
 -17  19  -1   -1.50    0.72
  17 -19   0    3.45    2.16
 -17  19   0    2.53    2.34
  17 -19  -1    2.10    2.03
 -17  19   1    0.34    2.10
  17 -19  -2    4.25    2.21
 -17  19   2    3.23    2.23
  17 -19  -3   -1.92    1.77
 -17  19   3   -2.49    1.92
  17 -19  -4   -0.89    1.85
 -17  19   4    0.52    2.20
  17 -19  -5    1.04    2.02
 -17  19   5   -0.54    2.18
 -17  19   6   -0.73    2.21
 -17  19   7   -1.42    2.31
  17 -20   6    1.90    2.42
  17 -20   6    3.17    2.81
  17 -20   5    0.80    2.72
  17 -20   5    1.25    2.27
  17 -20   4    0.27    2.60
  17 -20   4    0.45    1.97
  17 -20   3    1.53    2.60
  17 -20   3    2.94    2.13
  17 -20   2    0.86    2.41
  17 -20   1   -1.96    2.28
 -17  20  -1   -1.52    1.79
  17 -20   0    1.45    2.14
 -17  20   0    0.56    2.29
  17 -20  -1   -0.99    1.82
 -17  20   1   -0.71    2.01
  17 -20  -2    1.02    2.00
 -17  20   2   -2.11    1.88
  17 -20  -3   -1.10    1.83
 -17  20   3    1.70    2.23
  17 -20  -4    0.75    2.01
 -17  20   4    1.71    2.79
 -17  20   5   -2.16    2.22
 -17  20   6   -0.32    2.30
  17 -21   5    1.14    2.41
  17 -21   4    1.84    3.00
  17 -21   4    1.39    2.46
  17 -21   3   -2.27    1.87
  17 -21   3   -1.38    0.98
  17 -21   2    1.96    2.34
  17 -21   1    0.74    2.40
 -17  21  -1   -0.09    2.25
  17 -21   0    1.23    2.05
 -17  21   0    4.58    2.30
  17 -21  -1    1.00    2.01
 -17  21   1    0.29    2.54
  17 -21  -2   -2.63    1.75
 -17  21   2   -1.34    2.53
  17 -21  -3    1.00    2.05
 -17  21   3    1.02    2.73
  17 -21  -4    0.48    2.09
 -17  21   4   -2.49    2.10
 -17  21   5    1.00    2.44
  17 -22   2   -2.04    1.82
  17 -22   1   -0.18    2.28
 -17  22  -1    0.00    2.50
  17 -22   0    1.04    2.16
 -17  22   0   10.37    3.11
  17 -22  -1    0.48    2.40
 -17  22   1    3.46    2.76
  17 -22  -2   -0.25    2.00
 -17  22   2   -1.20    2.16
  18   3   3    1.53    2.65
  18   3   2    1.14    2.29
  18   3   2   -0.48    2.10
  18   3   1    0.78    1.07
  18   3   1   -0.39    2.38
  18   3   0    4.64    2.66
  18   3  -1   -1.78    2.30
  18   3  -2   -0.45    2.06
  18   3  -3    0.31    2.16
  18   2   5    3.27    2.96
  18   2   4    3.08    2.46
  18   2   3    5.37    2.87
  18   2   2    1.21    1.86
  18   2   2    1.28    2.22
  18   2   1    2.12    2.02
  18   2   1    1.13    2.13
  18   2   0    0.84    0.77
  18   2   0    3.41    2.46
  18   2  -1    0.73    1.99
  18   2  -2    0.91    2.36
  18   2  -3    0.60    2.47
  18   2  -4    5.56    2.41
  18   2  -5    1.11    2.17
  18   1   6    1.79    2.58
  18   1   5    2.92    2.55
  18   1   4   -0.52    2.61
  18   1   3    7.82    2.74
  18   1   2    0.58    2.19
  18   1   2    3.38    2.26
  18   1   1    5.92    2.87
  18   1   1    4.65    2.32
  18   1   0    9.08    2.68
  18   1   0    6.86    2.96
  18   1  -1    4.18    2.14
  18   1  -1    0.87    0.78
  18   1  -2   -2.96    2.00
  18   1  -2    1.03    2.36
  18   1  -3    1.75    2.44
  18   1  -4   -1.39    2.33
  18   1  -5    4.48    2.30
  18   1  -6    4.29    2.43
  18   0   7   -1.02    2.37
  18   0   6    0.48    2.39
  18   0   5    2.30    2.45
  18   0   4   -1.86    2.24
  18   0   3   -1.13    2.08
  18   0   2    5.46    2.28
  18   0   2    4.04    2.39
  18   0   1    2.90    1.89
  18   0   1    3.48    2.41
  18   0   0    2.96    2.38
  18   0   0    2.64    1.90
  18   0  -1    2.45    2.38
  18   0  -1    1.71    2.60
  18   0  -2    4.41    1.55
  18   0  -2    6.02    2.29
  18   0  -3    2.53    2.19
  18   0  -3    0.55    2.25
  18   0  -4    3.67    2.27
  18   0  -5    1.47    2.13
  18   0  -6    0.37    2.12
  18   0  -7    0.61    2.13
  18  -1   8    1.17    2.65
  18  -1   7   -2.35    2.29
  18  -1   6   -0.70    2.36
  18  -1   5    0.27    2.35
  18  -1   4    0.33    2.70
  18  -1   3    2.95    2.38
  18  -1   2    5.24    2.50
  18  -1   2    7.18    2.24
  18  -1   1   -0.47    2.04
  18  -1   1    0.63    2.22
  18  -1   0   -1.62    1.90
  18  -1   0    1.22    2.18
  18  -1  -1    0.69    2.15
  18  -1  -1   -3.98    1.75
  18  -1  -2    6.89    2.70
  18  -1  -2    4.77    2.12
  18  -1  -3    4.64    2.52
  18  -1  -3    4.96    2.06
  18  -1  -4    2.66    1.94
  18  -1  -4    1.83    2.01
  18  -1  -5   -1.76    1.94
  18  -1  -5    0.86    2.08
  18  -1  -6    0.71    2.39
  18  -1  -7    1.54    2.14
  18  -1  -8   -1.63    2.05
  18  -2   8    1.69    2.55
  18  -2   7    0.32    2.38
  18  -2   6    0.24    2.43
  18  -2   5    1.64    2.51
  18  -2   4   -0.18    2.24
  18  -2   3    7.98    2.76
  18  -2   2   -2.70    1.98
  18  -2   2   -1.57    1.71
  18  -2   1   -2.23    2.08
  18  -2   1   -0.43    1.83
  18  -2   0   -0.41    2.09
  18  -2   0    0.91    2.01
  18  -2  -1   -0.10    1.75
  18  -2  -1   -0.29    1.94
  18  -2  -2   -1.84    1.68
  18  -2  -2   -1.24    1.76
  18  -2  -3    6.84    2.66
  18  -2  -3    5.87    2.49
  18  -2  -4    1.63    1.98
  18  -2  -4    1.92    2.25
  18  -2  -5    1.24    0.78
  18  -2  -5    2.99    2.11
  18  -2  -6    0.42    2.02
  18  -2  -6    2.30    2.06
  18  -2  -7    0.34    2.05
  18  -2  -8    1.14    2.17
  18  -3   9   -1.20    2.55
  18  -3   8    2.47    2.65
  18  -3   7    2.62    2.47
  18  -3   6    3.89    2.52
  18  -3   5    3.95    2.57
  18  -3   4    7.46    3.01
  18  -3   3    0.93    2.31
  18  -3   2    4.13    2.00
  18  -3   2    6.67    2.56
  18  -3   1    2.26    2.27
  18  -3   1    1.96    1.94
  18  -3   0    0.68    1.65
  18  -3   0    2.61    2.62
  18  -3  -1    4.36    2.23
  18  -3  -1    0.50    2.17
  18  -3  -2    2.58    2.46
  18  -3  -2    2.94    1.99
  18  -3  -3    2.08    1.91
  18  -3  -3    1.76    2.27
  18  -3  -4    9.87    2.39
  18  -3  -4    3.42    2.43
  18  -3  -5    1.84    2.01
  18  -3  -5    2.50    2.11
  18  -3  -6    1.39    2.06
  18  -3  -6    2.27    1.98
  18  -3  -7    0.92    0.67
  18  -3  -7   -1.09    1.97
  18  -3  -8    0.55    1.64
  18  -3  -8   -0.07    1.93
  18  -3  -9    4.06    2.28
  18  -4   9    2.26    2.66
  18  -4   8    2.00    2.45
  18  -4   7   -2.50    2.21
  18  -4   6    0.57    2.31
  18  -4   5    4.25    2.57
  18  -4   4    3.32    2.33
  18  -4   3   12.07    2.87
  18  -4   2    1.23    1.77
  18  -4   2   -1.59    2.08
  18  -4   1    2.96    1.89
  18  -4   1    2.26    2.27
  18  -4   0    5.02    2.38
  18  -4   0    9.30    2.07
  18  -4  -1    2.22    1.78
  18  -4  -1    1.76    2.09
  18  -4  -2    1.75    2.09
  18  -4  -2    0.85    2.08
  18  -4  -3   15.46    2.98
  18  -4  -3   20.24    3.19
  18  -4  -4    0.01    2.22
  18  -4  -4   -1.08    2.23
  18  -4  -5    7.44    2.50
  18  -4  -5    7.40    2.35
  18  -4  -6    2.06    2.39
  18  -4  -6    1.34    2.28
  18  -4  -7    4.19    2.12
  18  -4  -7    5.29    2.25
  18  -4  -8    2.77    2.16
  18  -4  -8    7.04    2.54
  18  -4  -9    4.77    2.65
  18  -4  -9    5.48    2.03
  18  -5  10    6.62    3.00
  18  -5   9    0.38    2.66
  18  -5   8    0.06    2.37
  18  -5   7    3.51    2.44
  18  -5   6    3.41    2.48
  18  -5   5   -2.18    2.11
  18  -5   4    5.30    2.62
  18  -5   3    6.89    2.60
  18  -5   2    8.79    2.70
  18  -5   2   10.65    2.31
  18  -5   1    3.81    2.39
  18  -5   1    1.91    1.83
  18  -5   0    9.62    2.65
  18  -5   0    5.96    1.96
  18  -5  -1    1.95    2.11
  18  -5  -1   -1.80    1.86
  18  -5  -2    8.26    2.52
  18  -5  -2   12.05    2.58
  18  -5  -3    2.92    1.96
  18  -5  -3    6.87    2.81
  18  -5  -4    8.29    2.28
  18  -5  -4    8.31    2.61
  18  -5  -5    5.01    2.28
  18  -5  -5   -0.14    1.79
  18  -5  -6    1.82    1.98
  18  -5  -6    5.00    2.28
  18  -5  -7    4.02    2.17
  18  -5  -7    6.06    2.70
  18  -5  -8    1.73    2.19
  18  -5  -8    7.26    2.54
  18  -5  -9   -1.10    1.92
  18  -5  -9    0.82    2.29
  18  -5 -10    3.91    2.36
  18  -6  10    5.05    2.86
  18  -6   9   -1.44    2.44
  18  -6   8   -1.09    2.27
  18  -6   7    3.06    2.42
  18  -6   6    1.33    2.27
  18  -6   5    0.18    2.17
  18  -6   4    6.02    2.55
  18  -6   3    8.04    2.60
  18  -6   2    0.98    2.17
  18  -6   2   -0.97    1.73
  18  -6   1    3.15    2.26
  18  -6   1    7.20    2.11
  18  -6   0   -0.31    2.16
  18  -6   0   -0.31    1.82
  18  -6  -1    3.33    2.10
  18  -6  -1    7.48    2.44
  18  -6  -2    3.22    1.84
  18  -6  -2   -0.21    2.02
  18  -6  -3    5.93    2.70
  18  -6  -3    6.02    2.14
  18  -6  -4    8.51    2.54
  18  -6  -4    2.59    2.00
  18  -6  -5    2.31    1.96
  18  -6  -5   -0.12    1.96
  18  -6  -6    4.60    2.26
  18  -6  -6    2.88    2.42
  18  -6  -7    4.78    2.29
  18  -6  -7    3.73    2.15
  18  -6  -8   -1.15    1.89
  18  -6  -8    1.30    2.04
  18  -6  -9    6.44    2.40
  18  -6  -9    0.80    2.12
  18  -6 -10    0.57    2.17
  18  -7  10   -2.56    2.37
  18  -7   9    1.43    2.44
  18  -7   8   -1.19    2.18
  18  -7   7    7.17    2.74
  18  -7   6    2.27    2.34
  18  -7   5   -0.39    2.12
  18  -7   4    1.00    2.18
  18  -7   3    0.66    2.19
  18  -7   2    2.64    2.34
  18  -7   2    0.55    1.61
  18  -7   1    4.61    2.43
  18  -7   1    6.20    1.97
  18  -7   0    1.68    1.90
  18  -7   0    1.85    1.67
  18  -7  -1    6.05    2.36
  18  -7  -1    2.00    1.77
  18  -7  -2    2.46    2.16
  18  -7  -2    1.14    1.69
  18  -7  -3    0.13    1.93
  18  -7  -3   -0.08    1.73
  18  -7  -4    1.16    2.07
  18  -7  -4   -1.25    1.73
  18  -7  -5    3.99    2.29
  18  -7  -5   -0.12    1.84
  18  -7  -6    1.91    2.02
  18  -7  -6    2.51    2.54
  18  -7  -7    4.97    2.25
  18  -7  -7    4.52    2.39
  18  -7  -8   -0.14    1.94
  18  -7  -8   -1.07    1.81
  18  -7  -9    0.53    2.38
  18  -7  -9    3.32    2.42
  18  -7 -10    0.67    2.15
  18  -8  10   -1.18    2.39
  18  -8   9   -1.97    2.27
  18  -8   8    3.09    2.51
  18  -8   7   11.15    2.91
  18  -8   6    0.39    2.12
  18  -8   5    2.98    1.98
  18  -8   4    5.89    2.41
  18  -8   3    5.04    2.47
  18  -8   2    1.75    1.83
  18  -8   2    1.47    2.17
  18  -8   1   13.12    2.83
  18  -8   1   12.75    2.34
  18  -8   0   11.43    2.33
  18  -8   0   10.19    2.55
  18  -8  -1   11.90    2.21
  18  -8  -1    9.72    2.52
  18  -8  -2    2.23    2.10
  18  -8  -2    1.49    2.06
  18  -8  -3    3.14    2.18
  18  -8  -3   -1.26    1.96
  18  -8  -4    0.69    1.84
  18  -8  -4    0.52    2.01
  18  -8  -5    3.79    2.13
  18  -8  -5    7.52    2.54
  18  -8  -6   -0.37    1.88
  18  -8  -6    2.89    2.44
  18  -8  -7    7.42    2.50
  18  -8  -7   10.06    2.54
  18  -8  -8    6.95    2.48
  18  -8  -8    1.84    2.15
  18  -8  -9   -0.16    1.92
  18  -8  -9    0.88    2.05
  18  -8 -10   -2.39    1.97
  18  -9  10    0.89    2.56
  18  -9   9   -0.48    2.36
  18  -9   8   10.86    2.96
  18  -9   7    4.68    2.50
  18  -9   6   11.92    2.97
  18  -9   5    0.00    2.14
  18  -9   4    6.76    2.49
  18  -9   3   -0.62    2.07
  18  -9   2    3.04    1.90
  18  -9   2    1.39    2.16
  18  -9   1    7.08    2.50
  18  -9   1    3.58    1.91
  18  -9   0   24.15    3.36
  18  -9   0   31.26    3.24
  18  -9  -1    5.62    2.30
  18  -9  -2    2.73    2.15
  18  -9  -2    3.28    1.85
  18  -9  -3    0.60    2.14
  18  -9  -3   -0.52    1.95
  18  -9  -4    8.61    2.30
  18  -9  -4    6.98    2.45
  18  -9  -5   -1.21    1.82
  18  -9  -5    4.27    2.20
  18  -9  -6   11.72    2.79
  18  -9  -6   11.42    2.46
  18  -9  -7    0.91    2.05
  18  -9  -7    0.07    2.02
  18  -9  -8   13.86    3.03
  18  -9  -8    7.70    2.49
  18  -9  -9    1.18    2.13
  18  -9  -9   -1.16    2.38
  18  -9 -10    2.81    2.62
  18 -10  10    2.42    2.63
  18 -10   9    2.50    2.42
  18 -10   8    2.71    2.46
  18 -10   7   12.02    2.93
  18 -10   6    1.17    2.23
  18 -10   5    5.13    2.47
  18 -10   5    9.97    2.07
  18 -10   4    1.41    2.17
  18 -10   3    2.93    2.19
  18 -10   2    3.85    2.29
 -18  10  -2    2.74    1.52
  18 -10   1   15.76    2.41
  18 -10   1   12.75    2.64
 -18  10  -1   13.96    2.09
  18 -10   0    7.42    2.39
  18 -10   0   11.91    2.45
  18 -10  -1   17.53    2.75
  18 -10  -1    9.29    2.54
  18 -10  -2    2.54    2.14
  18 -10  -2    0.64    1.75
  18 -10  -3    0.73    1.99
  18 -10  -3    4.75    2.05
  18 -10  -4    2.81    2.18
  18 -10  -4    0.63    2.20
  18 -10  -5    5.13    2.29
  18 -10  -5    6.79    2.32
  18 -10  -6   -0.88    1.87
  18 -10  -6   -0.25    1.93
  18 -10  -7   11.45    2.67
  18 -10  -7   14.63    3.02
  18 -10  -8    4.01    2.45
  18 -10  -8    3.74    2.28
  18 -10  -9    5.31    2.49
  18 -10  -9   -0.17    2.01
  18 -10 -10    0.93    2.14
  18 -11  10    1.61    2.58
  18 -11  10    0.17    2.35
  18 -11   9   -0.82    1.76
  18 -11   9    0.05    2.34
  18 -11   8    0.05    2.06
  18 -11   8    5.31    2.66
  18 -11   7    1.69    1.24
  18 -11   7    2.25    2.32
  18 -11   6    3.60    2.01
  18 -11   6    0.56    2.23
  18 -11   5    3.56    2.32
  18 -11   5    0.75    1.62
  18 -11   4    1.39    2.16
  18 -11   3    4.51    2.36
  18 -11   2   -1.18    1.99
 -18  11  -2    1.28    1.36
  18 -11   1    2.63    2.10
 -18  11  -1    2.84    1.58
  18 -11   0    2.93    2.21
 -18  11   0    4.53    1.71
  18 -11  -1    3.41    2.22
 -18  11   1    4.32    1.90
  18 -11  -2    2.23    2.14
  18 -11  -2    2.60    2.15
 -18  11   2    1.42    1.84
  18 -11  -3    4.94    2.32
  18 -11  -3    4.00    1.96
 -18  11   3    0.59    1.73
  18 -11  -4   -0.21    2.14
  18 -11  -4    0.71    1.98
  18 -11  -5    1.24    1.95
  18 -11  -5   -2.46    1.70
  18 -11  -6    2.06    2.36
  18 -11  -6    2.58    2.09
  18 -11  -7    7.96    2.55
  18 -11  -7    6.20    2.41
 -18  11   7    2.23    2.16
  18 -11  -8    2.32    2.22
  18 -11  -8    0.20    1.95
 -18  11   8   -0.82    2.10
 -18  11   9   -1.85    2.06
 -18  11  10    0.27    2.27
  18 -12  10    3.20    2.67
  18 -12  10    1.54    2.07
  18 -12   9   -0.31    2.43
  18 -12   9    0.95    2.32
  18 -12   8   -2.64    2.59
  18 -12   8   -1.19    1.72
  18 -12   7    1.66    0.81
  18 -12   7    5.69    2.64
  18 -12   6    3.59    2.37
  18 -12   6    3.08    2.04
  18 -12   5    0.13    2.23
  18 -12   5    0.52    1.74
  18 -12   4   10.11    2.65
  18 -12   3    2.40    2.23
  18 -12   2    0.77    1.99
 -18  12  -2   -0.70    1.49
  18 -12   1    4.30    2.21
 -18  12  -1    2.02    1.76
  18 -12   0    0.74    1.47
 -18  12   0    1.36    1.59
  18 -12  -1    4.45    2.22
 -18  12   1    5.31    1.77
  18 -12  -2    0.53    1.91
 -18  12   2   -0.02    1.55
  18 -12  -3    3.27    2.22
 -18  12   3    2.00    1.74
  18 -12  -4    7.88    2.40
 -18  12   4    3.49    1.93
  18 -12  -5   -0.22    1.93
 -18  12   5    4.28    2.12
  18 -12  -6    4.10    2.28
 -18  12   6    3.13    2.15
  18 -12  -7    5.36    2.40
 -18  12   7    6.55    2.47
  18 -12  -8   -2.04    1.86
 -18  12   8    2.97    2.64
 -18  12   9    5.31    2.88
 -18  12  10    4.11    2.54
  18 -13   9    5.05    2.58
  18 -13   9    0.18    2.32
  18 -13   8    4.45    2.58
  18 -13   8    1.97    2.26
  18 -13   7    0.50    1.06
  18 -13   7    2.89    2.36
  18 -13   6    3.97    2.08
  18 -13   6    4.68    2.51
  18 -13   5    1.09    1.82
  18 -13   5    2.21    2.26
  18 -13   4   10.11    2.65
  18 -13   3    2.40    2.16
  18 -13   2   10.47    2.48
  18 -13   1    0.72    2.00
 -18  13  -1   -0.04    1.45
  18 -13   0   10.69    2.58
 -18  13   0    7.33    1.96
  18 -13  -1    0.00    1.84
 -18  13   1    1.68    1.57
  18 -13  -2    7.50    2.38
 -18  13   2   13.58    2.33
  18 -13  -3    6.43    2.34
 -18  13   3    4.99    2.29
  18 -13  -4    7.46    2.40
 -18  13   4    9.10    2.37
  18 -13  -5   -1.40    1.74
 -18  13   5    2.93    2.10
  18 -13  -6    5.49    2.32
 -18  13   6    0.51    2.51
  18 -13  -7    5.47    2.32
 -18  13   7    1.62    2.69
  18 -13  -8   -0.08    2.20
 -18  13   8    1.51    2.31
 -18  13   9    2.67    2.35
  18 -14   9    1.20    2.46
  18 -14   9    6.38    2.74
  18 -14   8    3.05    2.37
  18 -14   8   -0.51    2.28
  18 -14   7    0.39    2.35
  18 -14   7    2.25    2.00
  18 -14   6    2.40    2.11
  18 -14   6    3.91    2.43
  18 -14   5    9.06    2.69
  18 -14   5    8.28    2.26
  18 -14   4   -1.39    1.89
  18 -14   3   12.83    2.71
  18 -14   2    2.18    2.07
  18 -14   1    2.69    2.15
 -18  14  -1    2.45    1.77
  18 -14   0    9.67    2.49
 -18  14   0    4.17    1.55
  18 -14  -1    3.11    2.12
 -18  14   1    0.09    1.54
  18 -14  -2    2.45    2.08
 -18  14   2    2.84    2.04
  18 -14  -3   10.10    2.58
 -18  14   3   15.13    2.86
  18 -14  -4    1.99    1.97
 -18  14   4   -1.40    2.18
  18 -14  -5    5.85    2.30
 -18  14   5    4.85    2.29
  18 -14  -6    9.52    2.57
 -18  14   6    3.13    2.35
  18 -14  -7    2.20    2.23
 -18  14   7    0.30    2.07
  18 -14  -8    0.65    2.06
 -18  14   8    2.91    2.87
 -18  14   9   10.67    3.19
  18 -15   9    0.05    2.14
  18 -15   9   -0.14    2.35
  18 -15   8    0.40    2.68
  18 -15   8    0.05    1.92
  18 -15   7   -0.97    2.20
  18 -15   7    1.96    2.35
  18 -15   6    2.26    2.10
  18 -15   6    0.53    2.19
  18 -15   5    1.84    2.27
  18 -15   5    3.27    2.07
  18 -15   4    4.60    2.28
  18 -15   3    3.36    2.21
  18 -15   2   -1.29    1.91
  18 -15   1    2.93    2.15
 -18  15  -1    3.27    1.88
  18 -15   0    1.97    2.04
 -18  15   0    0.00    0.82
  18 -15  -1    4.28    2.20
 -18  15   1    1.24    1.86
  18 -15  -2    2.27    2.05
 -18  15   2    0.43    2.00
  18 -15  -3    1.05    1.98
 -18  15   3    1.83    2.20
  18 -15  -4   11.47    2.66
 -18  15   4   12.48    2.66
  18 -15  -5   -0.19    1.86
 -18  15   5    4.41    2.31
  18 -15  -6    2.32    2.08
 -18  15   6   -0.06    2.04
  18 -15  -7    3.02    2.18
 -18  15   7    0.80    2.31
 -18  15   8    2.52    2.44
 -18  15   9    6.34    3.16
  18 -16   8    1.16    2.29
  18 -16   8    1.96    2.14
  18 -16   7    2.19    2.41
  18 -16   7   -0.56    1.83
  18 -16   6   -0.86    0.95
  18 -16   6   -0.67    2.11
  18 -16   5   -5.21    1.95
  18 -16   5    3.20    2.25
  18 -16   4    0.12    2.07
  18 -16   3    4.83    2.29
  18 -16   2    0.07    2.03
  18 -16   1    3.56    2.12
 -18  16  -1    2.69    1.96
  18 -16   0   -0.29    1.88
 -18  16   0   -1.33    0.67
  18 -16  -1   -1.21    1.92
 -18  16   1    0.77    1.65
  18 -16  -2   -0.94    1.88
 -18  16   2   -2.90    1.54
  18 -16  -3    9.59    2.47
 -18  16   3    5.30    2.47
  18 -16  -4    1.78    1.95
 -18  16   4    3.93    2.12
  18 -16  -5    0.09    1.91
 -18  16   5    0.32    1.99
  18 -16  -6    1.09    2.06
 -18  16   6    3.25    2.33
  18 -16  -7    4.31    2.20
 -18  16   7    2.48    2.39
 -18  16   8   -1.62    2.28
  18 -17   8   -0.39    2.41
  18 -17   8    2.68    2.83
  18 -17   7    0.07    2.38
  18 -17   7   -1.76    2.03
  18 -17   6    1.27    1.38
  18 -17   6    5.49    2.79
  18 -17   5   -0.95    2.26
  18 -17   5    0.75    2.07
  18 -17   4    0.22    2.14
  18 -17   3    5.24    2.42
  18 -17   2    4.01    2.20
  18 -17   1   -0.58    2.01
 -18  17  -1   -0.37    1.94
  18 -17   0   -0.31    1.96
 -18  17   0   -0.71    1.54
  18 -17  -1   -0.22    2.01
 -18  17   1   -2.26    1.56
  18 -17  -2    7.22    2.39
 -18  17   2    3.35    2.42
  18 -17  -3    2.85    2.05
 -18  17   3    3.84    2.08
  18 -17  -4    4.58    2.25
 -18  17   4    0.23    1.93
  18 -17  -5    0.40    1.92
 -18  17   5    0.60    2.08
  18 -17  -6    2.60    2.18
 -18  17   6    3.64    2.70
  18 -17  -7   -0.12    2.01
 -18  17   7   -3.01    2.49
 -18  17   8   -2.37    2.12
  18 -18   7    3.39    2.67
  18 -18   7    0.93    2.67
  18 -18   6    2.56    2.55
  18 -18   6   -1.68    1.96
  18 -18   5    5.12    2.55
  18 -18   5    8.70    2.92
  18 -18   4    1.04    2.10
  18 -18   3    3.53    2.10
  18 -18   2    3.65    2.28
  18 -18   1    3.13    2.16
 -18  18  -1    3.95    2.24
  18 -18   0    0.24    2.01
 -18  18   0   -1.72    2.02
  18 -18  -1    4.74    2.25
 -18  18   1    6.46    2.54
  18 -18  -2    0.22    1.97
 -18  18   2    1.13    1.99
  18 -18  -3    0.88    1.92
 -18  18   3    5.18    2.63
  18 -18  -4    0.89    1.95
 -18  18   4    2.48    2.21
  18 -18  -5    4.65    2.22
 -18  18   5    9.10    2.71
  18 -18  -6    3.30    2.24
 -18  18   6   -3.25    1.96
 -18  18   7    1.25    2.42
  18 -19   6   -3.15    2.40
  18 -19   6    0.01    2.53
  18 -19   5    5.47    2.76
  18 -19   4    0.61    2.08
  18 -19   3    2.05    2.20
  18 -19   2    0.72    2.05
  18 -19   1    0.48    2.12
 -18  19  -1   -2.23    2.12
  18 -19   0    6.64    2.45
 -18  19   0    9.12    2.70
  18 -19  -1   -0.28    1.98
 -18  19   1   -0.06    2.00
  18 -19  -2   -0.64    1.89
 -18  19   2    0.78    2.07
  18 -19  -3    3.21    2.22
 -18  19   3    3.47    2.66
  18 -19  -4   -0.61    1.89
 -18  19   4    0.93    2.17
  18 -19  -5    1.67    2.05
 -18  19   5    2.60    2.30
  18 -19  -6    2.34    2.18
 -18  19   6   -2.07    2.16
  18 -20   5    0.55    2.47
  18 -20   5    2.13    2.60
  18 -20   4    7.33    2.82
  18 -20   3   -0.60    1.90
  18 -20   2    1.51    2.13
  18 -20   1   -0.84    2.38
 -18  20  -1   -1.96    1.32
  18 -20   0    2.71    2.55
 -18  20   0   -0.55    2.33
  18 -20  -1   -0.06    1.95
 -18  20   1   -3.11    1.89
  18 -20  -2    0.10    1.96
 -18  20   2   -2.88    1.94
  18 -20  -3    2.58    2.12
 -18  20   3   -0.27    2.18
  18 -20  -4    0.53    2.00
 -18  20   4    1.69    2.32
  18 -20  -5   -1.90    1.94
 -18  20   5    0.12    2.33
  18 -21   3   -0.34    2.06
  18 -21   2    3.06    2.60
  18 -21   1   -0.35    1.93
 -18  21  -1   -0.04    1.13
  18 -21   0    1.20    2.09
 -18  21   0    1.06    2.06
  18 -21  -1   -1.63    1.95
 -18  21   1   -3.39    2.43
  18 -21  -2    2.59    2.18
 -18  21   2   -3.31    2.44
  18 -21  -3   -3.24    2.28
 -18  21   3   -0.65    2.72
  18 -21  -4   -0.91    1.98
  19   2   2   -2.50    2.17
  19   2   2    1.33    2.79
  19   2   1   -0.67    2.19
  19   2   1   -0.73    1.99
  19   2   0    2.36    2.05
  19   2  -1    3.46    2.23
  19   2  -2   -0.90    2.04
  19   1   4    5.07    2.64
  19   1   3   -2.56    2.70
  19   1   2   -0.87    2.12
  19   1   2   -0.10    2.75
  19   1   1    5.11    2.46
  19   1   1    1.26    1.98
  19   1   0    1.68    2.65
  19   1   0    0.66    1.98
  19   1  -1   -1.15    1.89
  19   1  -1    1.89    0.65
  19   1  -2   -1.06    2.34
  19   1  -3    4.30    2.27
  19   1  -4    2.29    2.22
  19   0   5    0.92    2.49
  19   0   4    2.33    2.48
  19   0   3   -0.62    2.17
  19   0   2    0.32    1.95
  19   0   2    5.61    2.57
  19   0   1   -1.35    2.03
  19   0   1    4.70    2.90
  19   0   0    7.14    2.35
  19   0   0    1.99    2.40
  19   0  -1    3.46    2.15
  19   0  -1   -1.11    2.37
  19   0  -2    2.27    1.05
  19   0  -2   -2.25    2.27
  19   0  -3    2.47    2.16
  19   0  -4    5.22    2.37
  19   0  -5    1.01    2.15
  19  -1   6   -2.78    2.35
  19  -1   5    6.94    2.76
  19  -1   4    0.97    2.76
  19  -1   3    1.49    2.46
  19  -1   2   -1.69    1.93
  19  -1   2   -1.03    2.08
  19  -1   1    3.53    2.55
  19  -1   1    0.11    2.13
  19  -1   0    5.72    2.20
  19  -1   0    8.43    2.72
  19  -1  -1   -2.08    1.99
  19  -1  -1    2.43    2.00
  19  -1  -2    0.60    1.95
  19  -1  -2    2.33    2.50
  19  -1  -3    0.92    1.87
  19  -1  -3    2.50    2.55
  19  -1  -4    2.96    2.27
  19  -1  -4    0.29    2.04
  19  -1  -5    6.84    2.50
  19  -1  -6    0.59    2.07
  19  -2   7    0.62    2.49
  19  -2   6    3.96    2.72
  19  -2   5   -0.10    2.32
  19  -2   4   -0.60    2.25
  19  -2   3    0.75    2.34
  19  -2   2    7.23    2.64
  19  -2   2    4.96    2.22
  19  -2   1    3.18    2.83
  19  -2   1   -1.68    1.97
  19  -2   0    4.91    2.43
  19  -2   0    3.13    2.86
  19  -2  -1    4.04    2.34
  19  -2  -1   -3.81    2.44
  19  -2  -2    4.91    2.16
  19  -2  -2    3.28    2.25
  19  -2  -3   -3.29    1.62
  19  -2  -3    0.14    2.36
  19  -2  -4   -1.92    2.18
  19  -2  -4    2.22    2.13
  19  -2  -5    2.41    0.95
  19  -2  -5    1.81    2.45
  19  -2  -6    2.69    2.16
  19  -2  -7   -1.46    2.54
  19  -3   8    4.31    2.79
  19  -3   7    1.81    2.55
  19  -3   6    0.16    2.34
  19  -3   5   -0.89    2.25
  19  -3   4    2.67    2.50
  19  -3   3   12.79    3.02
  19  -3   2    1.28    2.23
  19  -3   2   -0.89    1.88
  19  -3   1   -0.43    1.70
  19  -3   1    3.47    2.48
  19  -3   0    5.16    2.36
  19  -3   0    1.76    2.27
  19  -3  -1   -1.39    1.71
  19  -3  -1    2.94    2.26
  19  -3  -2    2.31    2.29
  19  -3  -2    2.52    1.97
  19  -3  -3    9.28    2.38
  19  -3  -3    3.71    2.35
  19  -3  -4    0.57    2.07
  19  -3  -4    1.08    1.98
  19  -3  -5   -1.64    2.05
  19  -3  -5   -3.28    2.25
  19  -3  -6   -2.21    1.93
  19  -3  -6    4.55    2.03
  19  -3  -7   -1.46    1.91
  19  -3  -7    1.87    0.87
  19  -3  -8    1.37    2.11
  19  -4   8   -3.84    2.29
  19  -4   7    1.53    2.56
  19  -4   6    0.56    2.49
  19  -4   5   -1.82    2.13
  19  -4   4    4.17    2.60
  19  -4   3    3.47    2.45
  19  -4   2    3.10    2.06
  19  -4   2    0.35    2.33
  19  -4   1    2.32    2.46
  19  -4   1    5.09    2.14
  19  -4   0    2.44    2.08
  19  -4   0    9.17    3.01
  19  -4  -1   -2.65    2.04
  19  -4  -1    3.05    2.30
  19  -4  -2    1.01    2.22
  19  -4  -2    2.62    1.98
  19  -4  -3    2.14    2.19
  19  -4  -3    3.53    2.41
  19  -4  -4   10.30    2.81
  19  -4  -4   11.29    2.99
  19  -4  -5   -1.22    1.90
  19  -4  -5   -2.16    1.70
  19  -4  -6    2.14    2.14
  19  -4  -6    3.90    2.34
  19  -4  -7    0.07    2.11
  19  -4  -7    1.52    2.15
  19  -4  -8    0.98    1.89
  19  -4  -8    0.91    2.07
  19  -5   8   -2.64    2.28
  19  -5   7    5.51    2.80
  19  -5   6   -0.89    2.33
  19  -5   5    8.11    2.78
  19  -5   4   11.43    2.98
  19  -5   3    5.80    2.59
  19  -5   2    0.85    2.31
  19  -5   1    1.17    2.26
  19  -5   1    8.63    2.20
  19  -5   0   -0.34    2.12
  19  -5   0   -2.52    1.49
  19  -5  -1    3.06    2.26
  19  -5  -1    6.72    2.35
  19  -5  -2    2.97    2.23
  19  -5  -2    0.21    2.06
  19  -5  -3   -0.23    2.13
  19  -5  -3    2.16    2.01
  19  -5  -4   12.31    2.87
  19  -5  -4   10.45    2.70
  19  -5  -5    7.46    2.55
  19  -5  -5    4.25    2.53
  19  -5  -6    1.56    2.05
  19  -5  -6    1.04    1.94
  19  -5  -7    3.62    2.31
  19  -5  -7    3.69    2.15
  19  -5  -8    2.58    2.24
  19  -5  -8    2.34    2.04
  19  -6   9    2.63    2.67
  19  -6   8   -2.41    2.32
  19  -6   7    1.65    2.36
  19  -6   6    4.28    2.52
  19  -6   5    7.08    2.71
  19  -6   4    0.51    2.22
  19  -6   3   11.97    2.92
  19  -6   2    1.00    2.30
  19  -6   1   -1.11    2.60
  19  -6   1    0.58    1.90
  19  -6   0    2.22    2.31
  19  -6   0    6.01    1.95
  19  -6  -1   -0.30    1.70
  19  -6  -1    1.09    2.09
  19  -6  -2    2.91    2.26
  19  -6  -2    4.17    2.38
  19  -6  -3    8.54    2.57
  19  -6  -3    8.65    2.71
  19  -6  -4   -2.35    1.73
  19  -6  -4   -0.68    1.98
  19  -6  -5    5.55    2.49
  19  -6  -5    1.62    2.40
  19  -6  -6   -2.70    2.25
  19  -6  -6    1.56    2.07
  19  -6  -7    0.41    2.33
  19  -6  -7   -1.06    1.81
  19  -6  -8    1.93    2.14
  19  -6  -8    0.59    2.13
  19  -6  -9   -0.56    2.08
  19  -6  -9    5.49    2.73
  19  -7   9   -1.26    2.48
  19  -7   8   -1.52    2.31
  19  -7   7    2.92    2.57
  19  -7   6    2.19    2.42
  19  -7   5    1.71    2.40
  19  -7   4    1.81    2.40
  19  -7   3   -1.65    2.12
  19  -7   2   -0.28    2.28
  19  -7   1    2.46    1.89
  19  -7   1    5.56    2.48
  19  -7   0    1.60    2.01
  19  -7   0    0.29    2.07
  19  -7  -1    5.29    2.29
  19  -7  -1    6.29    2.51
  19  -7  -2   -2.87    1.87
  19  -7  -2    3.53    1.97
  19  -7  -3    3.53    2.29
  19  -7  -3    2.34    2.33
  19  -7  -4    2.25    2.27
  19  -7  -4    1.78    2.14
  19  -7  -5    2.06    2.12
  19  -7  -5    1.51    1.98
  19  -7  -6    0.72    2.06
  19  -7  -6    3.23    2.47
  19  -7  -7    4.88    2.42
  19  -7  -7   -0.80    1.89
  19  -7  -8   -2.11    1.92
  19  -7  -8    3.91    2.61
  19  -7  -9   -0.87    2.06
  19  -7  -9    2.83    2.32
  19  -8   9   -0.06    2.48
  19  -8   8    3.40    2.57
  19  -8   7    2.02    2.39
  19  -8   6    3.61    2.57
  19  -8   5   -2.51    2.12
  19  -8   4   -2.63    1.99
  19  -8   3    2.39    2.30
  19  -8   2    6.21    2.42
  19  -8   1    2.50    1.92
  19  -8   1   -0.80    2.16
  19  -8   0   14.52    2.88
  19  -8   0   19.49    2.75
  19  -8  -1   -0.30    1.66
  19  -8  -1   -0.15    1.99
  19  -8  -2    3.80    2.18
  19  -8  -2    0.32    2.04
  19  -8  -3    1.44    1.81
  19  -8  -3    1.46    2.11
  19  -8  -4    1.87    2.29
  19  -8  -4   -0.53    2.01
  19  -8  -5    0.89    1.95
  19  -8  -5   -1.77    1.94
  19  -8  -6    4.58    2.25
  19  -8  -6    4.78    2.30
  19  -8  -7   -2.91    1.88
  19  -8  -7    0.04    2.10
  19  -8  -8    2.03    2.23
  19  -8  -8    3.65    2.24
  19  -8  -9   -3.67    2.26
  19  -8  -9    0.11    2.22
  19  -9   9    3.34    2.62
  19  -9   8    0.30    2.32
  19  -9   7    8.24    2.79
  19  -9   6    3.51    2.65
  19  -9   5   -0.78    2.20
  19  -9   4    0.92    2.16
  19  -9   3   -0.43    2.17
  19  -9   2    2.36    1.85
  19  -9   1    7.51    2.56
  19  -9   1   10.52    2.33
  19  -9   0    4.70    2.28
  19  -9   0    2.11    2.08
  19  -9  -1    8.24    2.52
  19  -9  -1    8.53    2.40
  19  -9  -2    1.86    2.15
  19  -9  -2    3.25    2.19
  19  -9  -3    0.46    2.12
  19  -9  -3    1.38    2.21
  19  -9  -4   -1.52    2.00
  19  -9  -4    1.07    2.25
  19  -9  -5   -0.94    2.02
  19  -9  -5    3.28    2.08
  19  -9  -6    1.81    2.06
  19  -9  -6    1.77    2.14
  19  -9  -7   12.40    3.22
  19  -9  -7    8.67    2.58
  19  -9  -8    1.30    2.01
  19  -9  -8   -0.81    2.06
  19  -9  -9    4.02    2.49
  19  -9  -9    0.58    2.17
  19 -10   9   -0.48    2.40
  19 -10   8    4.79    2.64
  19 -10   7    6.49    2.75
  19 -10   6    1.56    2.42
  19 -10   5    4.04    2.45
  19 -10   4    1.96    2.24
  19 -10   3    1.69    2.26
  19 -10   2    2.84    2.34
  19 -10   1    9.11    2.31
  19 -10   1   10.56    2.60
  19 -10   0    4.27    1.87
  19 -10   0    1.88    2.11
  19 -10  -1   10.13    2.64
  19 -10  -1   13.40    2.70
  19 -10  -2    0.51    2.07
  19 -10  -2   -1.50    1.71
  19 -10  -3    1.59    1.89
  19 -10  -3    4.53    2.38
  19 -10  -4    2.37    2.22
  19 -10  -4   -2.06    1.74
  19 -10  -5    3.17    2.18
  19 -10  -5   -2.52    1.86
  19 -10  -6    9.93    3.00
  19 -10  -6    0.38    2.05
  19 -10  -7   12.23    2.94
  19 -10  -7   14.75    2.95
  19 -10  -8   -2.03    1.95
  19 -10  -8    0.83    2.16
  19 -10  -9    3.85    2.39
  19 -10  -9    0.86    2.19
  19 -11   9    0.11    2.09
  19 -11   9   -2.77    2.27
  19 -11   8    2.10    2.50
  19 -11   8    6.26    1.74
  19 -11   7   -1.80    1.84
  19 -11   7    0.89    2.27
  19 -11   6    3.98    2.48
  19 -11   5   -1.68    2.10
  19 -11   4    0.89    2.17
  19 -11   3    2.46    2.29
  19 -11   2    2.73    2.20
  19 -11   1   -2.68    1.86
 -19  11  -1    1.55    1.45
  19 -11   0   14.05    2.88
 -19  11   0   18.04    2.49
  19 -11  -1   -5.49    1.85
  19 -11  -1    0.81    1.56
 -19  11   1    1.61    1.75
  19 -11  -2    1.81    2.10
  19 -11  -2    2.60    2.27
  19 -11  -3    0.72    2.06
  19 -11  -3    2.23    1.96
  19 -11  -4    1.00    2.13
  19 -11  -4   -1.13    2.21
  19 -11  -5   -2.91    2.28
  19 -11  -5    1.00    2.10
  19 -11  -6    8.39    2.51
  19 -11  -6    5.29    2.42
  19 -11  -7   -3.41    2.41
  19 -11  -7    4.30    2.42
  19 -11  -8   -0.30    2.42
  19 -11  -8    0.40    2.18
  19 -11  -9    0.89    2.13
  19 -11  -9   -1.77    2.02
 -19  11   9   -0.19    2.19
  19 -12   9   -3.23    2.27
  19 -12   9    4.37    2.41
  19 -12   8    1.22    1.84
  19 -12   8    1.12    2.34
  19 -12   7   -3.30    2.18
  19 -12   7    2.94    2.10
  19 -12   6   -1.55    2.22
  19 -12   5    0.61    2.30
  19 -12   4    4.37    2.37
  19 -12   3   -0.28    2.06
  19 -12   2   -1.26    1.91
  19 -12   1    3.59    2.19
 -19  12  -1    2.46    1.57
  19 -12   0    0.52    2.04
 -19  12   0    1.48    1.73
  19 -12  -1    3.83    2.17
 -19  12   1    5.44    1.76
  19 -12  -2   -0.01    1.99
 -19  12   2    0.99    1.86
  19 -12  -3   -1.28    2.01
 -19  12   3   -1.24    1.63
  19 -12  -4    3.02    2.24
 -19  12   4    2.32    1.96
  19 -12  -5   -1.56    1.83
 -19  12   5    2.28    2.05
  19 -12  -6    1.06    2.03
 -19  12   6    0.08    2.00
  19 -12  -7    2.52    2.25
 -19  12   7   -0.02    2.11
  19 -12  -8    0.66    2.11
 -19  12   8   -0.43    2.57
 -19  12   9    1.74    2.37
  19 -13   9    6.97    2.82
  19 -13   9    7.22    2.63
  19 -13   8    0.91    1.87
  19 -13   8    1.64    2.48
  19 -13   7    3.85    2.51
  19 -13   7    1.91    2.06
  19 -13   6    3.23    2.42
  19 -13   5    4.25    2.43
  19 -13   4    0.76    2.25
  19 -13   3    7.22    2.49
  19 -13   2   -1.78    1.83
  19 -13   1   -0.83    1.93
 -19  13  -1    0.73    1.64
  19 -13   0    4.02    2.28
 -19  13   0    4.45    1.66
  19 -13  -1   -0.35    1.88
 -19  13   1   -0.20    1.48
  19 -13  -2    1.03    2.08
 -19  13   2    1.24    1.70
  19 -13  -3   12.04    2.81
 -19  13   3   10.96    2.47
  19 -13  -4    1.46    2.13
 -19  13   4    1.62    1.86
  19 -13  -5    2.78    2.14
 -19  13   5    5.58    2.58
  19 -13  -6    2.16    2.22
 -19  13   6    2.77    2.26
  19 -13  -7    2.00    2.28
 -19  13   7   -0.20    2.13
  19 -13  -8   -1.32    1.97
 -19  13   8    3.07    2.35
 -19  13   9    4.10    2.54
  19 -14   8    3.91    2.58
  19 -14   8   -0.02    2.24
  19 -14   7    0.40    2.02
  19 -14   7    3.18    2.49
  19 -14   6    2.29    2.46
  19 -14   5    5.61    2.90
  19 -14   4    5.18    2.48
  19 -14   3    4.34    2.30
  19 -14   2    3.47    2.24
  19 -14   1    4.08    2.27
 -19  14  -1    5.48    2.03
  19 -14   0    1.78    2.07
 -19  14   0   -0.10    1.62
  19 -14  -1    7.23    2.46
 -19  14   1    4.10    2.02
  19 -14  -2    4.22    2.25
 -19  14   2    0.38    1.70
  19 -14  -3    5.33    2.42
 -19  14   3    1.34    2.23
  19 -14  -4    9.18    2.57
 -19  14   4   11.65    2.58
  19 -14  -5    9.25    2.57
 -19  14   5    5.56    2.30
  19 -14  -6    0.51    2.10
 -19  14   6    0.92    2.07
  19 -14  -7    2.44    2.20
 -19  14   7    2.17    2.31
  19 -14  -8   -0.03    2.18
 -19  14   8    2.34    2.30
  19 -15   8   -0.03    2.39
  19 -15   8    4.75    2.61
  19 -15   7    3.80    2.87
  19 -15   7   -0.62    1.33
  19 -15   6   -0.74    2.18
  19 -15   5    0.90    2.26
  19 -15   4    8.99    2.61
  19 -15   3    3.85    2.69
  19 -15   2    2.93    2.26
  19 -15   1    3.47    2.19
 -19  15  -1    0.87    1.73
  19 -15   0    1.30    2.11
 -19  15   0    3.96    1.54
  19 -15  -1    3.46    2.18
 -19  15   1    5.34    1.89
  19 -15  -2   -0.24    2.00
 -19  15   2    1.72    2.11
  19 -15  -3    2.79    2.13
 -19  15   3    4.11    2.38
  19 -15  -4    9.66    2.57
 -19  15   4    9.40    2.79
  19 -15  -5    2.61    2.17
 -19  15   5   -0.30    2.03
  19 -15  -6    1.68    1.98
 -19  15   6    2.64    2.26
  19 -15  -7   -1.56    1.97
 -19  15   7    1.44    2.37
  19 -15  -8    4.87    2.64
 -19  15   8    5.04    2.56
  19 -16   8   -2.38    2.24
  19 -16   7   -2.17    2.58
  19 -16   7    0.06    0.97
  19 -16   6    2.59    2.42
  19 -16   5    1.39    2.18
  19 -16   4    1.06    2.15
  19 -16   3    5.69    2.47
  19 -16   2    0.59    2.19
  19 -16   1   -0.10    1.98
 -19  16  -1   -1.48    1.65
  19 -16   0    7.36    2.48
 -19  16   0   -0.66    1.19
  19 -16  -1   -3.23    1.89
 -19  16   1   -1.14    1.93
  19 -16  -2   -1.34    1.91
 -19  16   2   -1.33    1.89
  19 -16  -3    8.49    2.54
 -19  16   3    4.20    2.13
  19 -16  -4    1.65    2.03
 -19  16   4   -2.14    1.71
  19 -16  -5   -0.82    1.96
 -19  16   5   -0.59    1.93
  19 -16  -6    2.19    1.67
 -19  16   6   -3.51    1.90
  19 -16  -7    0.92    2.12
 -19  16   7    1.43    2.28
 -19  16   8    2.09    2.56
  19 -17   7    0.72    2.83
  19 -17   7   -3.76    1.85
  19 -17   6    1.57    2.32
  19 -17   5    4.28    2.34
  19 -17   4    5.31    2.78
  19 -17   3    1.21    2.19
  19 -17   2    7.21    2.48
  19 -17   1    3.67    2.33
 -19  17  -1    1.87    2.17
  19 -17   0    4.06    2.34
 -19  17   0   -0.83    0.70
  19 -17  -1   -0.42    2.03
 -19  17   1    1.02    2.27
  19 -17  -2    2.14    2.15
 -19  17   2    4.61    2.13
  19 -17  -3    1.01    2.05
 -19  17   3    2.10    2.22
  19 -17  -4   -0.09    1.91
 -19  17   4    1.01    2.01
  19 -17  -5   -1.08    1.92
 -19  17   5    1.94    2.20
  19 -17  -6   -3.30    1.75
 -19  17   6    1.16    2.61
  19 -17  -7   -2.02    1.83
 -19  17   7   -1.17    2.23
  19 -18   6    2.07    2.68
  19 -18   5   10.93    3.11
  19 -18   4    5.14    2.42
  19 -18   3    0.09    2.07
  19 -18   2   -2.00    2.00
  19 -18   1    2.99    2.24
  19 -18   0    9.50    2.69
  19 -18  -1   -0.50    1.97
 -19  18   1    2.75    1.95
  19 -18  -2   -1.58    1.86
 -19  18   2    1.44    2.37
  19 -18  -3    2.51    2.16
 -19  18   3    4.70    2.33
  19 -18  -4   -1.36    1.84
 -19  18   4    0.62    2.01
  19 -18  -5    3.87    2.11
 -19  18   5    3.20    2.32
  19 -18  -6   -0.16    1.94
 -19  18   6    1.74    2.30
  19 -19   5    1.47    2.26
  19 -19   4    4.76    2.49
  19 -19   3    0.17    2.47
  19 -19   2    2.62    2.19
  19 -19   1    0.43    2.11
  19 -19   0    6.07    2.48
 -19  19   0   -0.14    2.22
  19 -19  -1   -0.45    2.05
 -19  19   1    2.08    2.37
  19 -19  -2    1.47    2.06
 -19  19   2    1.04    2.35
  19 -19  -3    0.20    1.93
 -19  19   3    2.60    2.18
  19 -19  -4    4.80    2.32
 -19  19   4    6.19    2.52
  19 -19  -5    1.31    2.17
 -19  19   5    1.96    2.79
  19 -20   4    4.33    2.34
  19 -20   3    2.23    2.22
  19 -20   2    0.06    2.53
  19 -20   1   -3.76    1.85
  19 -20   0    2.43    2.25
 -19  20   0   -0.95    2.26
  19 -20  -1   -0.93    1.92
 -19  20   1    2.73    2.60
  19 -20  -2   -1.39    1.87
 -19  20   2   -0.59    2.36
  19 -20  -3   -1.42    1.93
 -19  20   3   -1.67    2.51
  19 -20  -4    6.28    2.47
 -19  20   4    7.04    3.05
  19 -21   2    2.07    2.27
  19 -21   1    5.39    2.90
  19 -21   0   -0.64    2.07
 -19  21   0   -1.23    2.54
  19 -21  -1    2.44    2.28
 -19  21   1    1.03    2.22
  19 -21  -2   -1.64    2.02
 -19  21   2    2.84    2.35
  20   0   2    2.54    2.51
  20   0   1    1.31    2.32
  20   0   1   -1.95    1.80
  20   0   0    0.50    2.34
  20   0   0    0.93    2.77
  20   0  -1    0.55    2.08
  20   0  -1    0.38    2.39
  20   0  -2   -0.27    2.46
  20  -1   4    2.20    2.56
  20  -1   3   -2.42    2.25
  20  -1   2   -0.95    2.23
  20  -1   1    3.71    2.41
  20  -1   1    3.06    2.49
  20  -1   0    0.00    1.87
  20  -1   0   -0.43    2.26
  20  -1  -1   -0.30    2.51
  20  -1  -1    2.00    2.48
  20  -1  -2    0.20    2.40
  20  -1  -2   -2.63    2.25
  20  -1  -3    1.32    2.17
  20  -1  -3    1.35    1.32
  20  -1  -4    3.99    2.39
  20  -2   5    0.13    2.35
  20  -2   4    4.87    3.06
  20  -2   3   -1.27    2.79
  20  -2   2   -0.79    2.33
  20  -2   1   -0.46    2.10
  20  -2   1   -0.47    2.75
  20  -2   0    0.49    2.26
  20  -2   0   -1.13    2.71
  20  -2  -1    0.66    2.18
  20  -2  -1    1.48    2.43
  20  -2  -2   -3.06    1.91
  20  -2  -2    0.32    2.40
  20  -2  -3   -0.23    2.00
  20  -2  -3   -1.36    2.31
  20  -2  -4    1.68    2.07
  20  -2  -4    1.92    2.53
  20  -2  -5    0.07    2.13
  20  -3   6   -0.31    2.39
  20  -3   5   -0.56    2.43
  20  -3   4    1.82    2.54
  20  -3   3    3.07    2.61
  20  -3   2    2.78    2.45
  20  -3   1   -0.61    2.00
  20  -3   1    3.56    2.48
  20  -3   0    2.32    1.91
  20  -3   0    4.90    2.93
  20  -3  -1   -2.63    1.65
  20  -3  -1   -4.18    1.83
  20  -3  -2    1.01    2.12
  20  -3  -2    3.18    2.39
  20  -3  -3    1.83    2.52
  20  -3  -3    0.88    2.53
  20  -3  -4    0.54    2.10
  20  -3  -4    0.20    2.41
  20  -3  -5    2.83    2.27
  20  -3  -5    4.23    2.21
  20  -3  -6   -1.75    1.98
  20  -3  -6   -1.89    1.25
  20  -4   7    1.22    2.58
  20  -4   6    2.46    2.49
  20  -4   5    1.20    2.51
  20  -4   4    2.79    2.57
  20  -4   3    0.16    2.36
  20  -4   2    1.18    2.42
  20  -4   1    3.56    1.89
  20  -4   1    0.03    2.26
  20  -4   0    3.10    2.26
  20  -4   0    2.20    2.43
  20  -4  -1    3.30    2.35
  20  -4  -1    0.81    1.95
  20  -4  -2    3.78    2.33
  20  -4  -2    0.35    2.04
  20  -4  -3   -0.61    1.94
  20  -4  -3   -1.05    1.97
  20  -4  -4   -1.02    2.33
  20  -4  -4   -1.33    2.39
  20  -4  -5    1.35    2.43
  20  -4  -5   -0.83    1.94
  20  -4  -6    0.24    2.13
  20  -4  -6    0.04    2.18
  20  -4  -7    2.22    2.36
  20  -5   7   -2.17    2.35
  20  -5   6    3.62    2.67
  20  -5   5    0.12    2.38
  20  -5   4    1.60    2.48
  20  -5   3    8.33    2.80
  20  -5   2    0.17    2.28
  20  -5   1    1.12    2.38
  20  -5   1    0.66    2.01
  20  -5   0    1.12    2.23
  20  -5   0    0.55    2.06
  20  -5  -1   -0.51    2.14
  20  -5  -1   -0.79    2.57
  20  -5  -2    0.43    2.15
  20  -5  -2    0.97    2.21
  20  -5  -3    9.31    2.76
  20  -5  -3   10.98    2.82
  20  -5  -4    3.22    2.65
  20  -5  -4    1.04    1.98
  20  -5  -5   -1.65    1.92
  20  -5  -5    4.13    2.26
  20  -5  -6   -0.86    1.78
  20  -5  -6    1.52    2.14
  20  -5  -7    0.20    2.21
  20  -5  -7   -0.95    2.39
  20  -6   7   -0.11    2.48
  20  -6   6    3.16    2.64
  20  -6   5    0.92    2.35
  20  -6   4    6.42    2.75
  20  -6   3    3.15    2.49
  20  -6   2    2.93    2.50
  20  -6   1   -1.52    1.88
  20  -6   1   -0.94    2.23
  20  -6   0   -0.10    2.03
  20  -6   0    0.87    2.27
  20  -6  -1    0.85    2.20
  20  -6  -1   -1.40    2.07
  20  -6  -2    1.10    2.24
  20  -6  -2    2.32    2.07
  20  -6  -3    3.90    2.17
  20  -6  -3    5.02    2.83
  20  -6  -4    5.41    2.54
  20  -6  -4    4.07    2.26
  20  -6  -5    4.95    2.45
  20  -6  -5    0.31    1.99
  20  -6  -6    4.95    2.61
  20  -6  -6    4.84    2.79
  20  -6  -7   -0.42    1.93
  20  -6  -7   -1.41    1.99
  20  -7   8   -2.22    2.35
  20  -7   7    3.01    2.56
  20  -7   6   -1.18    2.34
  20  -7   5    2.19    2.44
  20  -7   4    3.17    2.59
  20  -7   3    0.85    2.50
  20  -7   2   -0.14    2.24
  20  -7   1   -1.19    2.21
  20  -7   1   -0.02    1.90
  20  -7   0    7.27    2.43
  20  -7   0    4.52    2.48
  20  -7  -1    2.85    1.91
  20  -7  -1    1.58    2.24
  20  -7  -2    2.57    1.99
  20  -7  -2   -0.88    2.10
  20  -7  -3   -2.19    1.87
  20  -7  -3    1.07    2.37
  20  -7  -4    1.14    2.43
  20  -7  -4    3.03    2.37
  20  -7  -5    2.43    2.25
  20  -7  -5   -0.90    1.98
  20  -7  -6    1.69    2.08
  20  -7  -6   -0.69    2.07
  20  -7  -7   -1.55    2.34
  20  -7  -7   -0.79    2.02
  20  -7  -8   -0.62    2.04
  20  -7  -8    0.72    2.52
  20  -8   8    6.08    2.59
  20  -8   7    4.37    2.65
  20  -8   6    1.34    2.43
  20  -8   5    1.67    2.47
  20  -8   4   -2.20    2.20
  20  -8   3    0.42    2.33
  20  -8   2   -2.08    2.05
  20  -8   1    3.79    2.14
  20  -8   1    0.93    2.33
  20  -8   0    4.96    2.16
  20  -8   0    4.84    2.38
  20  -8  -1    1.20    2.16
  20  -8  -1    2.93    2.69
  20  -8  -2    0.53    2.18
  20  -8  -2    1.52    2.29
  20  -8  -3    1.29    2.14
  20  -8  -3    2.64    2.34
  20  -8  -4    0.60    1.97
  20  -8  -4    1.35    2.23
  20  -8  -5    1.99    2.09
  20  -8  -5    1.78    2.25
  20  -8  -6    2.87    2.65
  20  -8  -6    0.41    2.04
  20  -8  -7    0.71    2.22
  20  -8  -7    2.56    2.65
  20  -8  -8    2.48    2.28
  20  -8  -8   -0.05    2.21
  20  -9   8    0.47    2.44
  20  -9   7    5.28    2.69
  20  -9   6    4.26    2.60
  20  -9   5    2.09    2.49
  20  -9   4   -1.28    2.25
  20  -9   3    3.91    2.53
  20  -9   2    3.84    2.46
  20  -9   1    3.94    2.42
  20  -9   0   -2.42    1.99
  20  -9   0    2.35    2.05
  20  -9  -1   -2.00    2.02
  20  -9  -1    4.61    2.29
  20  -9  -2   -0.09    2.10
  20  -9  -2    1.28    1.88
  20  -9  -3   -0.76    2.15
  20  -9  -3   -2.13    2.16
  20  -9  -4    3.44    2.43
  20  -9  -4   -0.86    1.90
  20  -9  -5    1.24    2.48
  20  -9  -5    2.31    2.43
  20  -9  -6    8.34    2.68
  20  -9  -6    2.42    2.60
  20  -9  -7    2.79    2.28
  20  -9  -7    4.85    2.95
  20  -9  -8    0.87    2.68
  20  -9  -8    0.82    2.15
  20 -10   8    0.80    2.48
  20 -10   7   -3.57    2.09
  20 -10   6    9.72    3.00
  20 -10   5    0.45    2.38
  20 -10   4   -0.12    2.23
  20 -10   3   -0.14    2.28
  20 -10   2    4.28    2.49
  20 -10   1   -0.63    2.06
  20 -10   0    4.78    2.43
  20 -10   0   10.31    2.48
  20 -10  -1    2.11    2.16
  20 -10  -1   -2.06    2.01
  20 -10  -2    3.35    2.33
  20 -10  -2    4.48    2.42
  20 -10  -3   -1.23    1.99
  20 -10  -3    0.15    2.02
  20 -10  -4    3.40    2.44
  20 -10  -4   -2.75    1.84
  20 -10  -5   -0.07    2.16
  20 -10  -5    0.42    2.03
  20 -10  -6   11.65    2.97
  20 -10  -6    9.33    2.69
  20 -10  -7   -1.11    2.10
  20 -10  -7   -0.19    2.02
  20 -10  -8    4.95    2.47
  20 -10  -8    2.53    2.22
  20 -11   8    0.27    2.42
  20 -11   7    6.62    2.80
  20 -11   6    3.31    2.58
  20 -11   5    1.25    2.33
  20 -11   4    1.25    2.32
  20 -11   3   -2.47    1.98
  20 -11   2   -0.22    2.08
  20 -11   1    5.09    2.38
  20 -11   0    2.42    2.33
 -20  11   0   -0.17    1.61
  20 -11  -1    3.88    2.31
  20 -11  -1    0.79    2.17
  20 -11  -2   -0.58    2.17
  20 -11  -2    4.98    2.35
  20 -11  -3    0.71    2.26
  20 -11  -3   -1.35    2.27
  20 -11  -4    3.36    2.40
  20 -11  -4   -1.24    1.96
  20 -11  -5    0.65    2.20
  20 -11  -5    2.82    2.22
  20 -11  -6    6.25    2.58
  20 -11  -6    2.55    2.33
  20 -11  -7    7.84    2.73
  20 -11  -7    1.80    2.25
  20 -11  -8    4.52    2.56
  20 -11  -8    1.30    2.30
  20 -12   8    0.88    2.52
  20 -12   7    5.88    2.68
  20 -12   6   -0.94    2.16
  20 -12   5   -0.81    2.19
  20 -12   4   -2.76    2.10
  20 -12   3    0.87    2.28
  20 -12   2    0.51    2.03
  20 -12   1    3.26    2.26
  20 -12   0    2.97    2.39
 -20  12   0    3.17    1.91
  20 -12  -1    6.00    2.42
 -20  12   1    4.30    2.01
  20 -12  -2    1.89    2.21
 -20  12   2   -0.19    1.91
  20 -12  -3    5.68    2.47
 -20  12   3    2.29    1.73
  20 -12  -4    2.01    2.25
 -20  12   4    0.36    1.78
  20 -12  -5    0.33    2.10
 -20  12   5    2.02    2.39
  20 -12  -6    2.28    2.53
 -20  12   6    0.92    1.97
  20 -12  -7   -3.31    1.93
 -20  12   7    1.50    2.23
  20 -12  -8    0.39    2.06
 -20  12   8    0.78    2.22
  20 -13   8    1.76    2.50
  20 -13   7   -2.40    2.22
  20 -13   6   -0.49    2.31
  20 -13   5    1.56    2.27
  20 -13   4    3.29    2.44
  20 -13   3   -2.80    1.96
  20 -13   2    2.39    2.15
  20 -13   1    0.69    2.16
  20 -13   0    4.50    2.40
 -20  13   0    5.30    1.96
  20 -13  -1   -0.14    2.00
 -20  13   1    1.69    1.87
  20 -13  -2   -3.22    1.81
 -20  13   2    0.88    2.05
  20 -13  -3   -3.03    1.89
 -20  13   3    4.38    2.27
  20 -13  -4    3.80    2.42
 -20  13   4    2.09    1.99
  20 -13  -5   -0.22    2.01
 -20  13   5    2.95    2.48
  20 -13  -6    1.84    2.21
 -20  13   6    0.36    2.06
  20 -13  -7    1.12    2.22
 -20  13   7    2.73    2.78
  20 -13  -8    0.18    2.36
 -20  13   8    0.21    2.26
  20 -14   7    2.16    2.47
  20 -14   6    3.18    2.49
  20 -14   5    2.72    2.40
  20 -14   4    0.02    2.23
  20 -14   3    4.80    2.46
  20 -14   2    6.96    2.49
  20 -14   1    2.87    2.18
  20 -14   0    1.83    1.73
 -20  14   0   -0.96    1.62
  20 -14  -1   -2.20    1.92
 -20  14   1    3.18    2.08
  20 -14  -2    5.61    2.43
 -20  14   2    3.49    2.17
  20 -14  -3    4.67    2.35
 -20  14   3    2.50    1.94
  20 -14  -4    2.29    2.23
 -20  14   4    2.63    2.36
  20 -14  -5    3.88    2.35
 -20  14   5    2.63    2.47
  20 -14  -6   -1.46    2.05
 -20  14   6    1.41    2.22
  20 -14  -7    2.49    2.35
 -20  14   7   -2.45    2.10
  20 -15   7    1.59    2.45
  20 -15   6   -0.19    2.21
  20 -15   5    0.25    2.21
  20 -15   4   -1.68    1.98
  20 -15   3    4.14    2.33
  20 -15   2    1.01    2.17
  20 -15   1    1.54    2.23
  20 -15   0    4.02    2.27
 -20  15   0    2.09    1.89
  20 -15  -1    1.94    2.12
 -20  15   1   -0.30    1.54
  20 -15  -2   -0.80    2.00
 -20  15   2   -3.96    1.87
  20 -15  -3    4.29    2.36
 -20  15   3    5.79    2.24
  20 -15  -4    0.17    2.00
 -20  15   4   -1.99    1.86
  20 -15  -5    0.36    2.01
 -20  15   5    0.61    2.43
  20 -15  -6    0.26    2.17
 -20  15   6    1.73    2.39
  20 -15  -7   -2.48    1.90
 -20  15   7    1.08    2.75
  20 -16   7    3.02    2.58
  20 -16   6    2.17    2.38
  20 -16   5    0.37    2.19
  20 -16   4   -3.31    1.92
  20 -16   3    1.32    2.24
  20 -16   2    2.91    2.33
  20 -16   1    0.81    2.15
  20 -16   0    4.55    2.35
 -20  16   0    0.24    1.55
  20 -16  -1   -0.33    1.97
 -20  16   1    1.07    1.66
  20 -16  -2    2.30    2.15
 -20  16   2    1.32    2.12
  20 -16  -3    1.27    2.09
 -20  16   3   -1.73    2.12
  20 -16  -4    1.82    2.08
 -20  16   4    1.47    2.05
  20 -16  -5   -0.28    1.98
 -20  16   5    0.03    2.45
  20 -16  -6    4.94    2.34
 -20  16   6   -1.25    2.68
  20 -16  -7    0.58    2.14
  20 -17   6   -0.02    2.24
  20 -17   5   -2.33    2.05
  20 -17   4    2.03    2.27
  20 -17   3    3.06    2.33
  20 -17   2    8.13    2.68
  20 -17   1   -0.71    1.98
  20 -17   0   -0.15    2.03
 -20  17   0   -1.10    1.74
  20 -17  -1    0.53    2.16
 -20  17   1    0.78    1.71
  20 -17  -2    0.34    2.09
 -20  17   2   -2.22    1.57
  20 -17  -3    1.45    2.10
 -20  17   3    1.56    2.26
  20 -17  -4    1.00    2.00
 -20  17   4   -1.83    1.81
  20 -17  -5    0.37    2.03
 -20  17   5   -1.20    1.92
  20 -17  -6    2.25    2.09
 -20  17   6    0.47    2.27
  20 -18   5   -2.68    2.14
  20 -18   4    3.18    2.40
  20 -18   3    0.46    2.19
  20 -18   2    0.44    2.12
  20 -18   1   -0.01    2.08
  20 -18   0    2.14    2.33
 -20  18   0   -0.07    1.31
  20 -18  -1    1.84    2.32
 -20  18   1    4.35    2.45
  20 -18  -2   -1.70    1.86
 -20  18   2   -0.33    2.30
  20 -18  -3    3.03    2.17
 -20  18   3   -1.09    1.87
  20 -18  -4    1.14    2.08
 -20  18   4    0.14    2.03
  20 -18  -5   -1.46    1.88
 -20  18   5   -1.78    2.02
  20 -19   4    2.43    2.33
  20 -19   3    3.23    2.34
  20 -19   2   -0.17    2.09
  20 -19   1    3.39    2.31
  20 -19   0   -3.39    1.86
 -20  19   0   -1.81    0.68
  20 -19  -1    7.27    2.57
 -20  19   1    0.39    2.23
  20 -19  -2    2.03    2.56
 -20  19   2   -1.23    2.25
  20 -19  -3   -2.66    1.75
 -20  19   3   -0.30    2.64
  20 -19  -4    5.62    2.42
 -20  19   4    2.40    2.45
  20 -20   2    0.04    2.13
  20 -20   1   -1.40    2.13
  20 -20   0    0.61    2.18
 -20  20   0    0.00    1.80
  20 -20  -1   -0.34    2.12
 -20  20   1   -3.03    2.22
  20 -20  -2   -1.07    1.95
 -20  20   2    2.30    2.55
  21  -2   2   -1.30    2.42
  21  -2   1   -2.42    2.21
  21  -2   0   -0.10    1.96
  21  -2   0   -1.78    2.59
  21  -2  -1   -1.65    2.40
  21  -2  -1    0.73    2.15
  21  -2  -2    0.11    2.54
  21  -2  -2    1.42    2.64
  21  -3   3   -1.63    2.26
  21  -3   2   -1.01    2.81
  21  -3   1   -2.29    2.65
  21  -3   0    0.45    2.24
  21  -3   0   -1.12    2.29
  21  -3  -1    1.98    2.08
  21  -3  -1    1.99    2.30
  21  -3  -2    1.87    2.20
  21  -3  -2    1.32    2.47
  21  -3  -3    0.00    2.16
  21  -3  -3    0.46    2.22
  21  -3  -4    4.76    2.70
  21  -4   4   -2.14    2.29
  21  -4   3    1.07    2.90
  21  -4   2   -1.63    2.29
  21  -4   1   -0.07    2.49
  21  -4   0   -0.91    2.20
  21  -4   0    2.51    2.42
  21  -4  -1   -0.97    2.08
  21  -4  -1   -0.44    2.33
  21  -4  -2   -2.32    1.97
  21  -4  -2   -0.14    2.60
  21  -4  -3    3.04    2.63
  21  -4  -3   -2.57    1.88
  21  -4  -4    2.20    2.28
  21  -4  -4    0.73    2.50
  21  -4  -5    4.99    2.30
  21  -5   5    0.38    2.45
  21  -5   4    3.36    2.71
  21  -5   3    4.18    2.65
  21  -5   2    0.95    2.50
  21  -5   1    2.28    2.52
  21  -5   0    3.28    2.31
  21  -5   0   -0.34    2.66
  21  -5  -1    3.25    2.82
  21  -5  -1    1.00    1.96
  21  -5  -2    3.53    2.58
  21  -5  -2    0.44    2.25
  21  -5  -3   -2.34    2.39
  21  -5  -3    3.36    2.18
  21  -5  -4    0.50    2.15
  21  -5  -4   -0.72    2.44
  21  -5  -5   -0.40    2.08
  21  -5  -5   -1.92    2.22
  21  -6   6    4.22    2.83
  21  -6   5    2.52    2.52
  21  -6   4    4.27    2.61
  21  -6   3   -1.88    2.28
  21  -6   2    2.35    2.55
  21  -6   1    0.86    2.43
  21  -6   0    4.78    2.52
  21  -6   0    0.09    2.15
  21  -6  -1    0.44    2.24
  21  -6  -1    0.79    2.24
  21  -6  -2   -0.46    2.18
  21  -6  -2    0.29    2.33
  21  -6  -3    1.08    2.46
  21  -6  -3    5.68    2.90
  21  -6  -4   -0.26    2.02
  21  -6  -4    5.32    2.39
  21  -6  -5    2.86    2.30
  21  -6  -5   -1.49    2.04
  21  -6  -6   -3.13    1.94
  21  -6  -6    0.91    2.45
  21  -7   6    2.77    2.66
  21  -7   5    0.81    2.52
  21  -7   4    2.38    2.55
  21  -7   3    2.98    2.63
  21  -7   2    4.09    2.64
  21  -7   1   -1.24    2.24
  21  -7   0   -1.99    1.98
  21  -7   0   -1.83    2.01
  21  -7  -1   -0.63    2.19
  21  -7  -1    0.96    2.23
  21  -7  -2   -0.62    2.14
  21  -7  -2   -0.26    2.28
  21  -7  -3    4.25    2.36
  21  -7  -3    4.39    2.24
  21  -7  -4    4.36    2.84
  21  -7  -4    0.64    2.39
  21  -7  -5    2.30    2.21
  21  -7  -5    0.80    2.12
  21  -7  -6   -0.10    2.57
  21  -7  -6    0.41    2.18
  21  -8   6    2.40    2.58
  21  -8   5    1.93    2.52
  21  -8   4   -2.91    2.20
  21  -8   3    7.97    2.79
  21  -8   2    2.26    2.45
  21  -8   1   -2.72    2.06
  21  -8   0    1.22    2.29
  21  -8   0    2.20    2.23
  21  -8  -1   -2.18    2.05
  21  -8  -1    0.65    2.27
  21  -8  -2    0.38    2.26
  21  -8  -2    1.21    2.75
  21  -8  -3    2.27    2.29
  21  -8  -3    6.65    2.65
  21  -8  -4   -1.39    1.98
  21  -8  -4    0.77    2.30
  21  -8  -5    1.91    2.18
  21  -8  -5    3.01    2.78
  21  -8  -6    1.48    2.27
  21  -8  -6   -0.83    2.06
  21  -8  -7   -1.00    2.04
  21  -9   7    0.74    2.55
  21  -9   6   -1.91    2.39
  21  -9   5   -0.58    2.30
  21  -9   4    3.00    2.52
  21  -9   3   -1.48    2.24
  21  -9   2   -2.32    2.15
  21  -9   1    1.63    2.26
  21  -9   0    4.14    2.36
  21  -9   0    0.96    2.16
  21  -9  -1    1.28    2.26
  21  -9  -1    0.64    2.20
  21  -9  -2    0.74    2.23
  21  -9  -2    1.14    2.42
  21  -9  -3   -0.72    1.96
  21  -9  -3    0.26    2.67
  21  -9  -4   -1.14    2.47
  21  -9  -4    2.09    2.41
  21  -9  -5    0.66    2.08
  21  -9  -5    2.99    2.47
  21  -9  -6    2.40    2.69
  21  -9  -6   -2.10    1.94
  21  -9  -7   -1.39    2.51
  21  -9  -7   -2.71    1.93
  21 -10   7    3.00    2.70
  21 -10   6    0.38    2.39
  21 -10   5    2.71    2.57
  21 -10   4    0.02    2.26
  21 -10   3    3.53    2.41
  21 -10   2   -0.71    2.26
  21 -10   1    4.06    2.45
  21 -10   0    0.95    2.21
  21 -10   0   -2.97    1.92
  21 -10  -1   -0.81    2.04
  21 -10  -1    0.57    2.24
  21 -10  -2    0.95    2.15
  21 -10  -2   -3.08    1.72
  21 -10  -3    0.18    2.27
  21 -10  -3   -1.43    1.88
  21 -10  -4    4.95    2.49
  21 -10  -4    2.44    2.21
  21 -10  -5    1.97    2.33
  21 -10  -5    3.99    2.68
  21 -10  -6    0.02    2.22
  21 -10  -6   -3.14    2.00
  21 -10  -7    2.12    2.38
  21 -10  -7    2.44    2.43
  21 -11   7   -1.60    2.27
  21 -11   6   -1.33    2.38
  21 -11   5   -1.95    2.24
  21 -11   4   -0.07    2.27
  21 -11   3   -0.56    2.27
  21 -11   2   -1.90    1.93
  21 -11   1    1.99    2.30
  21 -11   0   -1.83    2.01
  21 -11   0    1.47    2.36
 -21  11   0   -0.16    1.66
  21 -11  -1    4.66    2.43
  21 -11  -1   -1.41    2.17
  21 -11  -2   -3.03    1.90
  21 -11  -2    3.33    2.52
  21 -11  -3   -0.30    2.11
  21 -11  -3   -0.37    2.43
  21 -11  -4    3.87    2.46
  21 -11  -4   -2.38    1.95
  21 -11  -5   -3.57    1.95
  21 -11  -5   -0.21    2.10
  21 -11  -6   -1.40    2.12
  21 -11  -6    1.13    2.33
  21 -11  -7    4.84    2.56
  21 -11  -7   -1.84    2.16
  21 -12   7    0.66    2.54
  21 -12   6   -1.17    2.37
  21 -12   5    2.72    2.48
  21 -12   4    2.56    2.52
  21 -12   3    1.11    2.32
  21 -12   2    0.63    2.22
  21 -12   1    1.79    2.18
  21 -12   0    8.11    2.70
 -21  12   0    2.28    1.87
  21 -12  -1    2.01    2.32
 -21  12   1    1.65    1.56
  21 -12  -2    3.18    2.45
 -21  12   2    2.64    1.94
  21 -12  -3    1.65    2.19
 -21  12   3    1.93    2.18
  21 -12  -4    2.62    2.23
  21 -12  -4    1.19    2.24
 -21  12   4   -1.63    2.13
  21 -12  -5    1.90    2.31
  21 -12  -5   -2.86    2.45
 -21  12   5    0.93    1.94
  21 -12  -6   -0.55    2.09
  21 -12  -6   -0.24    2.55
 -21  12   6    2.89    2.55
  21 -12  -7    1.76    2.40
  21 -12  -7    0.06    2.16
 -21  12   7    4.04    2.52
  21 -13   6   -0.09    2.33
  21 -13   5    1.82    2.42
  21 -13   4   -0.98    2.21
  21 -13   3    0.93    2.22
  21 -13   2    0.60    2.13
  21 -13   1   -2.56    1.94
  21 -13   0    2.50    2.25
 -21  13   0    2.04    1.79
  21 -13  -1    1.47    2.15
 -21  13   1    3.02    1.89
  21 -13  -2   -0.04    2.11
 -21  13   2    3.29    2.14
  21 -13  -3    8.60    2.76
 -21  13   3    2.03    2.16
  21 -13  -4    1.89    2.25
 -21  13   4    0.43    2.24
  21 -13  -5    2.16    2.38
 -21  13   5    1.94    2.11
  21 -13  -6   -2.06    1.89
 -21  13   6    2.59    2.24
  21 -13  -7    2.36    2.49
  21 -14   6   -0.32    2.37
  21 -14   5    1.34    2.33
  21 -14   4    0.31    2.22
  21 -14   3    4.57    2.45
  21 -14   2    2.55    2.35
  21 -14   1    0.53    2.18
  21 -14   0    2.48    2.28
 -21  14   0   -1.48    1.70
  21 -14  -1    1.52    2.14
 -21  14   1   -0.90    1.76
  21 -14  -2    1.56    2.17
 -21  14   2    2.20    2.08
  21 -14  -3    4.68    2.43
 -21  14   3    5.73    2.09
  21 -14  -4    2.62    2.33
 -21  14   4    1.10    2.36
  21 -14  -5    0.17    2.12
 -21  14   5    0.85    2.41
  21 -14  -6    5.80    2.58
 -21  14   6    4.09    2.40
  21 -15   6    3.63    2.58
  21 -15   5    2.08    2.44
  21 -15   4    4.32    2.36
  21 -15   3    0.30    2.20
  21 -15   2   -1.86    2.01
  21 -15   1    0.20    2.09
  21 -15   0    4.15    2.34
 -21  15   0    1.84    1.96
  21 -15  -1   -2.00    2.02
 -21  15   1   -0.52    1.89
  21 -15  -2   -2.34    2.04
 -21  15   2   -0.28    1.73
  21 -15  -3    1.25    2.25
 -21  15   3   -2.42    2.11
  21 -15  -4    0.73    2.11
 -21  15   4    3.73    2.58
  21 -15  -5    0.43    2.16
 -21  15   5    2.18    2.55
  21 -15  -6   -1.45    2.07
 -21  15   6    1.02    2.21
  21 -16   5    2.08    2.30
  21 -16   4    2.27    2.32
  21 -16   3   -2.28    2.11
  21 -16   2   -0.05    2.17
  21 -16   1    2.31    2.17
  21 -16   0   -0.68    2.11
  21 -16  -1    1.83    2.24
 -21  16   1    4.16    2.17
  21 -16  -2    0.94    2.23
 -21  16   2    2.35    2.26
  21 -16  -3   -0.75    1.92
 -21  16   3    0.06    1.90
  21 -16  -4   -0.75    1.91
 -21  16   4   -1.59    2.26
  21 -16  -5    0.17    2.03
 -21  16   5   -2.78    1.89
  21 -17   4   -1.00    2.19
  21 -17   3   -1.66    2.15
  21 -17   2    1.63    2.28
  21 -17   1    0.75    2.14
  21 -17   0    2.05    2.27
  21 -17  -1    5.65    2.48
 -21  17   1    2.07    1.80
  21 -17  -2    1.87    2.22
 -21  17   2   -0.34    1.67
  21 -17  -3    2.64    2.22
 -21  17   3   -0.22    1.82
  21 -17  -4    0.75    2.11
 -21  17   4   -0.42    2.39
  21 -17  -5    1.28    2.15
  21 -18   3    0.70    2.71
  21 -18   2   -0.21    2.16
  21 -18   1   -1.32    2.04
  21 -18   0    0.88    2.30
  21 -18  -1    2.65    2.30
 -21  18   1   -3.06    2.14
  21 -18  -2    1.69    2.16
 -21  18   2   -0.03    2.20
  21 -18  -3    1.64    2.16
 -21  18   3   -3.01    1.68
  21 -18  -4    0.82    2.03
  21 -19   2    3.87    2.87
  21 -19   1    1.86    2.35
  21 -19   0    2.74    2.41
  21 -19  -1   -2.51    1.95
 -21  19   1    2.62    2.44
  21 -19  -2    4.92    2.43
 -21  19   2    1.79    2.49
  22  -5   2    0.04    2.40
  22  -5   1   -0.48    2.44
  22  -5   0    6.31    2.72
  22  -5  -1    0.27    2.78
  22  -5  -1   -1.85    2.23
  22  -5  -2    0.28    2.03
  22  -5  -2   -2.78    2.66
  22  -6   3    1.78    2.53
  22  -6   2    0.56    2.40
  22  -6   1    0.77    2.33
  22  -6   0    0.24    2.26
  22  -6  -1    1.22    2.46
  22  -6  -1    3.64    2.58
  22  -6  -2    0.03    2.02
  22  -6  -2   -4.21    2.46
  22  -6  -3   -2.68    2.37
  22  -6  -3   -1.88    2.02
  22  -7   4   -2.58    2.31
  22  -7   3    2.14    2.58
  22  -7   2    1.14    2.41
  22  -7   1    4.00    2.57
  22  -7   0    1.29    2.42
  22  -7  -1   -0.12    2.27
  22  -7  -1   -0.68    1.89
  22  -7  -2   -0.22    2.23
  22  -7  -2   -2.58    1.84
  22  -7  -3    2.84    2.53
  22  -7  -3    2.55    2.64
  22  -7  -4    1.96    2.32
  22  -7  -4   -0.75    2.09
  22  -8   5   -1.05    2.49
  22  -8   4    4.27    2.76
  22  -8   3   -0.43    2.28
  22  -8   2   -2.69    2.18
  22  -8   1    0.74    2.30
  22  -8   0    1.76    2.42
  22  -8  -1    4.09    2.12
  22  -8  -1    1.93    2.44
  22  -8  -2   -3.55    2.52
  22  -8  -2   -3.10    2.18
  22  -8  -3    0.40    2.51
  22  -8  -3   -0.39    2.18
  22  -8  -4    6.23    3.04
  22  -8  -4   -0.07    2.16
  22  -8  -5    0.71    2.28
  22  -9   5    1.31    2.54
  22  -9   4    6.22    2.85
  22  -9   3    1.14    2.39
  22  -9   2    1.25    2.44
  22  -9   1    3.77    2.41
  22  -9   0   -2.19    2.00
  22  -9  -1   -1.06    2.25
  22  -9  -1    1.09    2.25
  22  -9  -2    1.66    2.34
  22  -9  -2   -1.21    2.37
  22  -9  -3   -0.22    2.18
  22  -9  -3    1.27    2.25
  22  -9  -4    5.53    2.52
  22  -9  -4    7.47    2.80
  22  -9  -5    1.26    2.21
  22  -9  -5   -0.24    2.37
  22 -10   5   -1.83    2.40
  22 -10   4   -1.29    2.26
  22 -10   3    3.53    2.62
  22 -10   2   -1.55    2.14
  22 -10   1   -0.94    2.14
  22 -10   0    1.75    2.39
  22 -10  -1    2.87    2.38
  22 -10  -1   -1.39    2.29
  22 -10  -2   -2.34    2.29
  22 -10  -2    3.13    2.47
  22 -10  -3    1.29    2.34
  22 -10  -3    5.54    2.86
  22 -10  -4    2.00    2.41
  22 -10  -4   -1.43    2.52
  22 -10  -5    1.49    2.35
  22 -10  -5   -2.04    2.08
  22 -11   5    3.75    2.68
  22 -11   4    1.48    2.52
  22 -11   3    2.62    2.55
  22 -11   2    0.21    2.23
  22 -11   1    1.05    2.26
  22 -11   0    3.24    2.45
  22 -11  -1   -4.80    2.07
  22 -11  -1    1.01    2.33
  22 -11  -2    2.10    2.36
  22 -11  -2    1.81    2.52
  22 -11  -3   -0.30    2.48
  22 -11  -3    0.75    2.28
  22 -11  -4    0.71    2.25
  22 -11  -4   -1.08    2.19
  22 -11  -5   -0.12    2.30
  22 -11  -5   -0.69    2.15
  22 -12   5   -0.38    2.37
  22 -12   4    2.86    2.57
  22 -12   3    3.24    2.54
  22 -12   2   -0.02    2.17
  22 -12   1   -0.63    2.15
  22 -12   0   -0.79    2.22
  22 -12  -1    2.80    2.50
 -22  12   1    1.51    1.59
  22 -12  -2   -2.06    2.16
 -22  12   2    2.43    2.05
  22 -12  -3    3.11    2.67
  22 -12  -3    1.49    2.45
 -22  12   3    3.22    2.26
  22 -12  -4   -0.14    2.09
  22 -12  -4   -2.97    2.04
 -22  12   4    3.65    2.42
  22 -12  -5   -1.71    2.04
  22 -12  -5   -3.57    2.53
 -22  12   5    2.34    2.01
  22 -13   5   -0.26    2.40
  22 -13   4    2.96    2.60
  22 -13   3    1.73    2.27
  22 -13   2   -3.71    1.88
  22 -13   1   -0.39    2.21
  22 -13   0   -2.56    1.94
  22 -13  -1    0.14    2.13
 -22  13   1    2.10    1.50
  22 -13  -2    5.75    2.58
 -22  13   2    1.99    1.81
  22 -13  -3    3.42    2.56
 -22  13   3    1.72    2.21
  22 -13  -4    7.43    2.77
 -22  13   4    4.76    2.16
  22 -13  -5    1.76    2.37
 -22  13   5    5.23    2.59
  22 -14   5    3.48    2.68
  22 -14   4    3.75    2.48
  22 -14   3   -0.68    2.18
  22 -14   2    2.79    2.35
  22 -14   1    0.03    2.24
  22 -14   0   -0.06    2.26
  22 -14  -1    2.60    2.45
 -22  14   1    1.11    1.40
  22 -14  -2    0.72    2.18
 -22  14   2    2.19    2.12
  22 -14  -3    0.26    2.31
 -22  14   3    4.34    2.43
  22 -14  -4   12.97    3.02
 -22  14   4    2.95    2.21
  22 -14  -5    2.86    2.48
  22 -15   4   -1.14    2.25
  22 -15   3    2.72    2.31
  22 -15   2    0.47    2.22
  22 -15   1   -0.79    2.09
  22 -15   0   -2.94    1.85
  22 -15  -1    1.66    2.29
 -22  15   1   -1.97    1.34
  22 -15  -2    2.36    2.47
 -22  15   2   -2.56    1.58
  22 -15  -3    2.19    2.33
 -22  15   3    1.75    2.30
  22 -15  -4   -0.49    2.23
 -22  15   4   -0.72    2.01
  22 -16   3    1.65    2.36
  22 -16   2    1.92    2.41
  22 -16   1    0.83    2.21
  22 -16   0    1.71    2.25
  22 -16  -1    2.66    2.40
 -22  16   1    1.53    1.78
  22 -16  -2    1.09    2.21
 -22  16   2   -0.87    2.09
  22 -16  -3    2.11    2.38
 -22  16   3   -1.92    2.14
  22 -17   2   -0.79    2.28
  22 -17   1   -2.76    1.97
  22 -17   0    2.88    2.36
  22 -17  -1   -1.84    2.12
 -22  17   1    0.37    1.90
  22 -17  -2    1.00    2.25
 -22  17   2    1.70    2.20
  23  -8   1    2.58    2.55
  23  -8   0   -3.65    2.58
  23  -8  -1    8.79    3.30
  23  -9   2   -2.34    2.26
  23  -9   1    0.93    2.44
  23  -9   0    6.40    2.69
  23  -9  -1    0.14    2.36
  23  -9  -1   -3.37    2.30
  23  -9  -2   -0.30    2.23
  23  -9  -2   -0.44    2.45
  23 -10   2    3.44    2.47
  23 -10   1    4.19    2.66
  23 -10   0    1.41    2.47
  23 -10  -1   -1.56    2.58
  23 -10  -1    1.82    2.55
  23 -10  -2    0.08    2.25
  23 -10  -2   -1.19    2.42
  23 -11   3    4.53    2.68
  23 -11   2    2.59    2.46
  23 -11   1    3.01    2.55
  23 -11   0   -2.04    2.15
  23 -11  -1    0.20    2.30
  23 -11  -2    2.03    2.31
  23 -11  -2    2.22    2.58
  23 -11  -3    1.78    2.59
  23 -12   3    1.99    2.41
  23 -12   2    3.76    2.55
  23 -12   1    0.12    2.30
  23 -12   0   -2.73    2.11
  23 -12  -1    3.95    2.43
 -23  12   1    2.85    1.10
  23 -12  -2    0.49    2.40
  23 -12  -2    0.65    2.19
 -23  12   2    3.90    2.23
  23 -12  -3    1.10    2.39
  23 -13   2   -1.06    2.23
  23 -13   1    0.87    2.33
  23 -13   0   -0.35    2.40
  23 -13  -1    0.24    2.27
  23 -13  -2    2.08    2.46
 -23  13   2    2.59    1.93
  23 -14   2    3.52    2.55
  23 -14   1   -0.93    2.19
  23 -14   0    3.55    2.52
  23 -14  -1    1.19    2.31
  23 -14  -2   -0.54    2.16
  23 -15   1    0.46    2.34
  23 -15   0    2.79    2.38
  23 -15  -1    2.22    2.43
   0   0   0    0.00    0.00
;
_shelx_hkl_checksum              15006
_shelx_fab_file
;
    0    0    2    -11.81     -0.48
    0    0    4    -22.24     -0.85
    0    0    6     -7.03     -0.91
    0    0    8      1.60     -0.16
    0    0   10     -2.91      0.13
    0    0   12      0.75      0.93
    0    0   14     -0.26     -0.91
    0    0   16     -4.70      1.69
    0    1   16     -1.52     -0.41
    0    1   15     -1.36      1.38
    0    1   14      0.95      0.07
    0    1   13     -1.38      0.40
    0    1   12     -1.31      0.62
    0    1   11      0.68     -0.10
    0    1   10     -2.46     -0.95
    0    1    9     -0.01     -0.06
    0    1    8      1.87     -0.64
    0    1    7     -1.11     -0.57
    0    1    6      5.86     -0.19
    0    1    5      3.06      0.21
    0    1    4     -0.49      1.16
    0    1    3      1.50      0.00
    0    1    1    -48.07      1.18
    0    1    0    402.71     -0.83
    0    1    2      4.86     -0.09
    0    2   16     -2.65     -0.55
    0    2   15     -4.25      2.50
    0    2   14      0.49      0.58
    0    2   13     -0.35      0.37
    0    2   12     -0.29     -0.17
    0    2   11      0.50      0.05
    0    2   10      0.83     -0.02
    0    2    9      0.06     -0.30
    0    2    8      1.52      0.43
    0    2    7      3.26     -0.98
    0    2    6     12.91      0.61
    0    2    5     -5.64     -0.34
    0    2    4      6.94      0.02
    0    2    3      2.27      0.11
    0    2    2      1.49     -0.23
    0    2    1    -84.87      0.89
    0    2    0    -49.35      1.57
    0    3   15     -1.99      0.20
    0    3   14     -2.36      0.10
    0    3   13      1.89      0.05
    0    3   12      3.32     -1.39
    0    3   11      0.82     -0.13
    0    3   10     -0.05      0.22
    0    3    9     -0.15     -0.54
    0    3    8     -0.26      2.44
    0    3    7     -1.15      0.15
    0    3    6     -5.85     -0.17
    0    3    5     -1.58      0.34
    0    3    4    -11.11     -0.59
    0    3    3     -7.85     -1.15
    0    3    2     11.90     -0.56
    0    3    1     27.04     -0.97
    0    3    0    -42.31      0.02
    0    3   16     -4.25      0.49
    0    4   16     -0.23     -0.22
    0    4   15     -2.95     -0.63
    0    4   14     -3.05     -0.38
    0    4   13      1.42      0.03
    0    4   12      0.20     -0.47
    0    4   11     -0.97     -0.13
    0    4   10      0.80     -0.35
    0    4    9      0.49     -0.36
    0    4    8      0.00      1.09
    0    4    7      0.49      0.13
    0    4    6     -5.09      0.43
    0    4    5     -0.76      0.56
    0    4    4     -9.27      3.25
    0    4    3     -8.58     -0.93
    0    4    2     14.00      0.51
    0    4    1     51.65      0.71
    0    4    0     -5.60     -4.64
    0    5   15      0.26     -0.13
    0    5   14     -0.40     -0.09
    0    5   13     -0.43     -0.25
    0    5   12     -0.14      0.53
    0    5   11      0.04      0.29
    0    5   10      0.42     -0.17
    0    5    9     -0.68     -0.49
    0    5    8     -1.52     -0.90
    0    5    7      0.46     -0.34
    0    5    6     -1.45      1.05
    0    5    5     -5.15      0.08
    0    5    4      8.44      6.85
    0    5    3     -0.68      0.16
    0    5    2      0.78      0.23
    0    5    1     15.68     -0.20
    0    5    0     -4.28     -3.86
    0    6   15      2.16      0.09
    0    6   14      1.00      0.04
    0    6   13      1.02      0.21
    0    6   12     -0.04     -0.10
    0    6   11     -0.28      0.16
    0    6   10     -0.15      0.18
    0    6    9     -1.77     -0.23
    0    6    8     -1.21     -0.06
    0    6    7     -0.51     -0.36
    0    6    6      4.72      0.02
    0    6    5     -1.11     -0.98
    0    6    4     -1.99      2.33
    0    6    3      7.19      1.62
    0    6    2     -1.47     -0.47
    0    6    1     -0.65     -0.22
    0    6    0     10.77     -0.19
    0    7   15      0.42      0.27
    0    7   14      0.19     -0.19
    0    7   13     -0.07      0.36
    0    7   12      1.19     -0.13
    0    7   11      1.73     -0.27
    0    7   10      1.26      0.22
    0    7    9      0.86      0.09
    0    7    8      0.34      0.34
    0    7    7     -2.65      0.00
    0    7    6      0.46      0.16
    0    7    5     -1.86     -0.87
    0    7    4     -2.51     -0.88
    0    7    3     10.21      0.97
    0    7    2      2.66      0.65
    0    7    1     -3.58      0.35
    0    7    0     17.79     -0.31
    0    8   15     -0.58      0.44
    0    8   14     -0.86      0.20
    0    8   13      0.18      0.01
    0    8   12      0.49     -0.15
    0    8   11      0.60     -0.04
    0    8   10     -2.11     -0.33
    0    8    9      1.81     -0.27
    0    8    8     -0.83     -0.39
    0    8    7     -0.69      0.25
    0    8    6     -4.17      0.92
    0    8    5     -0.35      0.23
    0    8    4      1.32      0.46
    0    8    3      2.79     -0.39
    0    8    2      7.53      0.52
    0    8    1     -2.28     -0.13
    0    8    0      6.13     -1.22
    0    9   14      0.58      0.24
    0    9   13     -0.46     -0.10
    0    9   12     -2.15     -0.12
    0    9   11      1.19      0.54
    0    9   10     -0.52     -0.09
    0    9    9     -1.32     -0.21
    0    9    8      2.40     -0.41
    0    9    7      2.70     -0.24
    0    9    6      0.82     -0.26
    0    9    5      0.78     -0.17
    0    9    4     -1.75      0.39
    0    9    3     -3.27      0.38
    0    9    2      3.27      0.09
    0    9    1     -4.21     -0.30
    0    9    0      1.19      2.18
    0   10   14     -0.52     -0.16
    0   10   13      0.40     -0.55
    0   10   12      2.12      0.19
    0   10   11     -0.77      0.58
    0   10   10      0.80      0.17
    0   10    9     -1.17      0.26
    0   10    8     -0.78      0.27
    0   10    7      2.45      0.35
    0   10    6      2.50     -0.59
    0   10    5      1.21      0.03
    0   10    4      2.28     -0.36
    0   10    3     -1.53      0.08
    0   10    2     -2.03      0.36
    0   10    1      0.06     -0.38
    0   10    0     -3.08      3.28
    0   11   13     -1.06     -0.07
    0   11   12      1.69     -0.23
    0   11   11      1.34     -0.13
    0   11   10      1.45     -0.14
    0   11    9      4.66     -0.28
    0   11    8     -2.22     -0.11
    0   11    7      0.26      0.51
    0   11    6      0.89      0.38
    0   11    5     -0.04      0.25
    0   11    4      2.01     -0.64
    0   11    3      1.05      0.25
    0   11    2     -1.08      0.12
    0   11    1      1.59     -0.23
    0   11    0     -0.53     -0.68
    0   12   13      0.26      0.20
    0   12   12      2.37      0.24
    0   12   11      3.46      0.00
    0   12   10      1.37     -0.71
    0   12    9      1.62     -0.41
    0   12    8      0.05     -0.65
    0   12    7     -0.46     -0.02
    0   12    6      1.94      0.42
    0   12    5     -2.57      0.21
    0   12    4      2.58     -1.54
    0   12    3      1.04      0.08
    0   12    2      0.61     -0.26
    0   12    1      1.62     -0.38
    0   12    0      1.56     -0.51
    0   13   12      1.53      0.39
    0   13   11      0.90      1.00
    0   13   10      2.41     -0.06
    0   13    9     -1.47      0.27
    0   13    8      3.00      0.10
    0   13    7      0.55     -0.51
    0   13    6      1.81      0.11
    0   13    5      1.31     -0.14
    0   13    4      0.27     -1.08
    0   13    3      1.08      0.04
    0   13    2     -2.27     -0.20
    0   13    1     -0.31      0.07
    0   13    0      1.64      0.13
    0   14   11      1.48      0.76
    0   14   10      1.57      1.65
    0   14    9      1.28     -0.16
    0   14    8      0.84      0.23
    0   14    7      1.66      0.57
    0   14    6      0.09     -0.62
    0   14    5      1.55     -0.07
    0   14    4      0.58      0.02
    0   14    3      2.34      0.41
    0   14    2     -1.27     -0.20
    0   14    1     -0.61     -1.35
    0   14    0     -0.69     -0.21
    0   15   11     -3.27     -0.43
    0   15   10     -5.72      2.00
    0   15    9     -1.28      0.46
    0   15    8     -0.90     -0.07
    0   15    7      4.27      1.03
    0   15    6      0.14     -1.04
    0   15    5     -5.41      0.88
    0   15    4     -0.95      0.26
    0   15    3      0.22      0.20
    0   15    2     -0.21      0.09
    0   15    1      0.46     -2.97
    0   15    0      0.60     -0.06
    0   16   10     -5.37      0.43
    0   16    9     -0.66     -0.05
    0   16    8     -2.72     -0.89
    0   16    7      2.44      0.24
    0   16    6     -0.28      0.86
    0   16    5     -6.10     -0.28
    0   16    4     -0.69     -0.17
    0   16    3     -0.80      0.12
    0   16    2      1.05      0.57
    0   16    1      1.27     -0.97
    0   16    0     -0.08     -0.70
    0   17    8     -0.81     -0.61
    0   17    7      2.80     -0.70
    0   17    6      2.02     -0.07
    0   17    5     -2.09     -2.54
    0   17    4     -0.65      0.32
    0   17    3     -0.02      0.25
    0   17    2      1.91      0.49
    0   17    1      0.69      1.27
    0   17    0      3.57     -0.60
    0   18    7      1.62     -0.78
    0   18    6      3.86     -0.71
    0   18    5     -0.06     -0.30
    0   18    4      2.49      0.25
    0   18    3      1.24     -0.58
    0   18    2     -0.32     -0.16
    0   18    1     -0.55      0.63
    0   18    0      1.34     -0.12
    0   19    5     -2.34      1.61
    0   19    4     -0.69     -0.49
    0   19    3      0.28     -0.21
    0   19    2     -3.08     -0.14
    0   19    1     -0.11     -0.70
    0   19    0     -1.54      0.37
    0   20    2      0.65     -0.10
    0   20    1     -0.81      0.11
    0   20    0     -1.19      0.68
   -1   20    4     -2.95     -0.08
   -1   20    3      0.14     -1.69
   -1   20    2      0.92     -0.91
   -1   20    1     -0.22     -0.02
   -1   20    0     -2.75      1.22
   -1   19    6      2.16      1.02
   -1   19    5      0.83     -0.43
   -1   19    4      0.18      1.77
   -1   19    3      1.41     -0.67
   -1   19    2     -1.37      0.44
   -1   19    1     -2.41      2.95
   -1   19    0     -1.59      0.96
   -1   18    8      1.79      2.31
   -1   18    7      1.97     -1.16
   -1   18    6      1.83     -0.25
   -1   18    5     -0.92     -0.02
   -1   18    4     -0.24      4.03
   -1   18    3      2.68      2.32
   -1   18    2      0.19      1.54
   -1   18    1     -0.91      1.20
   -1   18    0      2.19      1.52
   -1   17    9      0.10     -1.66
   -1   17    8     -0.20      1.07
   -1   17    7      2.18      0.11
   -1   17    6     -0.63      0.00
   -1   17    5     -3.29      0.20
   -1   17    4      0.04     -0.43
   -1   17    3      0.22      1.80
   -1   17    2      0.15     -2.26
   -1   17    1      1.14     -0.30
   -1   17    0      0.79      1.04
   -1   16   10     -3.20      0.97
   -1   16    9      0.63      2.67
   -1   16    8     -0.64      0.88
   -1   16    7      0.70      0.64
   -1   16    6     -1.18     -1.72
   -1   16    5     -4.51      0.39
   -1   16    4      1.07     -2.36
   -1   16    3     -0.26     -1.10
   -1   16    2      0.37     -3.79
   -1   16    1      1.57     -0.33
   -1   16    0     -1.07      0.54
   -1   15   11      2.19      2.39
   -1   15   10     -1.86      0.09
   -1   15    9     -0.31      1.47
   -1   15    8     -2.64      0.74
   -1   15    7      0.85     -0.03
   -1   15    6      1.10     -4.15
   -1   15    5      0.06     -0.43
   -1   15    4      0.52      0.94
   -1   15    3      0.38     -0.32
   -1   15    2     -0.39     -0.12
   -1   15    1     -0.45      0.15
   -1   15    0     -0.65      0.32
   -1   14   12      0.30     -3.08
   -1   14   11      1.71     -1.74
   -1   14   10     -0.23     -2.92
   -1   14    9     -0.65     -0.26
   -1   14    8      0.67     -1.17
   -1   14    7     -0.07     -3.23
   -1   14    6      0.67      0.72
   -1   14    5      1.34      0.06
   -1   14    4      0.33      2.03
   -1   14    3      1.54      0.90
   -1   14    2     -0.15     -1.17
   -1   14    1      1.02     -0.22
   -1   14    0     -1.27      0.28
   -1   13   12      1.28     -3.47
   -1   13   11      0.12     -3.09
   -1   13   10     -0.59     -2.17
   -1   13    9     -2.26      1.89
   -1   13    8      0.63     -2.06
   -1   13    7     -0.04     -0.05
   -1   13    6      1.49      3.36
   -1   13    5      0.85     -0.28
   -1   13    4      0.08      0.85
   -1   13    3      0.40     -0.61
   -1   13    2      0.40     -0.57
   -1   13    1     -1.20      1.25
   -1   13    0      0.20      0.43
   -1   12   13      0.30     -0.07
   -1   12   12      0.93     -3.55
   -1   12   11      1.99     -0.28
   -1   12   10      0.66      2.19
   -1   12    9      2.70      2.25
   -1   12    8     -0.51     -1.17
   -1   12    7      0.50      1.91
   -1   12    6      0.43     -1.19
   -1   12    5     -0.96      0.33
   -1   12    4     -0.60      1.70
   -1   12    3      1.03     -0.85
   -1   12    2     -0.17      3.53
   -1   12    1      0.56      1.00
   -1   12    0      2.39     -0.57
   -1   11   14     -0.63     -1.56
   -1   11   13     -0.88      0.14
   -1   11   12      0.42     -3.28
   -1   11   11     -0.05     -0.49
   -1   11   10      0.55      1.68
   -1   11    9      2.06      1.49
   -1   11    8     -0.98      2.60
   -1   11    7      0.73     -0.24
   -1   11    6     -1.02     -1.25
   -1   11    5      1.58      3.33
   -1   11    4      0.71     -1.80
   -1   11    3     -0.14      0.46
   -1   11    2     -0.32      0.55
   -1   11    1      0.26     -1.13
   -1   11    0     -1.72      2.49
   -1   10   14     -2.10      0.29
   -1   10   13     -2.46     -1.99
   -1   10   12      0.00      0.25
   -1   10   11      1.28      0.80
   -1   10   10      0.45     -2.29
   -1   10    9     -0.53     -1.05
   -1   10    8     -0.12      0.62
   -1   10    7      0.06     -0.66
   -1   10    6      1.07      3.34
   -1   10    5      0.83     -0.06
   -1   10    4     -1.73     -3.90
   -1   10    3      0.20      4.55
   -1   10    2      1.10     -4.14
   -1   10    1     -2.07      1.27
   -1   10    0     -0.31      4.24
   -1    9   14     -1.67      1.11
   -1    9   13      0.19     -2.37
   -1    9   12     -1.03      4.01
   -1    9   11     -0.01      1.95
   -1    9   10     -2.39     -0.73
   -1    9    9      0.06     -0.27
   -1    9    8     -0.17      0.47
   -1    9    7     -0.33      0.96
   -1    9    6      0.48      3.64
   -1    9    5      0.19     -5.45
   -1    9    4     -1.41      2.28
   -1    9    3      2.60      4.28
   -1    9    2      2.61     -0.03
   -1    9    1     -3.03      1.66
   -1    9    0      0.75      0.65
   -1    8   15     -0.69      0.39
   -1    8   14      1.00     -1.03
   -1    8   13      0.36     -1.13
   -1    8   12      1.90      3.65
   -1    8   11      0.04     -1.82
   -1    8   10     -1.89      1.32
   -1    8    9      1.78      0.90
   -1    8    8      0.43      6.72
   -1    8    7     -1.92     -1.43
   -1    8    6      0.29      3.49
   -1    8    5     -4.06     -2.58
   -1    8    4      2.04      9.03
   -1    8    3      4.81     -1.16
   -1    8    2     -0.36     -1.70
   -1    8    1      1.27     -2.88
   -1    8    0      6.30     -0.59
   -1    7   15      2.59     -0.56
   -1    7   14      0.63     -0.15
   -1    7   13     -0.21     -1.04
   -1    7   12     -0.98     -0.65
   -1    7   11     -0.98     -2.31
   -1    7   10      3.21      2.07
   -1    7    9      0.21      0.37
   -1    7    8      0.89      2.47
   -1    7    7      0.20     -4.04
   -1    7    6      0.45      3.41
   -1    7    5     -1.45      0.13
   -1    7    4     -2.21      2.15
   -1    7    3      2.00     -5.27
   -1    7    2     -0.41     -2.81
   -1    7    1     -2.99      8.69
   -1    7    0      2.67      0.80
   -1    6   15      1.08     -0.64
   -1    6   14     -1.16      2.97
   -1    6   13      0.29     -2.09
   -1    6   12      0.73     -3.54
   -1    6   11      0.83      1.16
   -1    6   10      1.75     -0.60
   -1    6    9     -3.67      1.55
   -1    6    8     -2.19     -3.94
   -1    6    7     -0.74      0.93
   -1    6    6     -1.17      0.59
   -1    6    5      3.02      1.87
   -1    6    4      2.16     -0.98
   -1    6    3      0.08     -8.37
   -1    6    2      3.33     10.28
   -1    6    1     -2.63      8.99
   -1    6    0     -0.89     -0.57
   -1    5   16      0.22     -1.27
   -1    5   15     -2.89     -0.17
   -1    5   14     -0.33      0.52
   -1    5   13      2.31     -3.22
   -1    5   12      1.83     -1.96
   -1    5   11      0.50      3.42
   -1    5   10     -0.36     -4.01
   -1    5    9     -1.24      2.30
   -1    5    8      0.29      1.08
   -1    5    7      1.72      3.67
   -1    5    6     -1.86      2.74
   -1    5    5     -2.77      3.38
   -1    5    4      0.14      1.94
   -1    5    3      2.31      1.30
   -1    5    2      9.53      8.02
   -1    5    1     17.89     -9.89
   -1    5    0      1.23     -3.07
   -1    4   16     -2.09     -1.34
   -1    4   15     -0.78      1.32
   -1    4   14     -2.16     -5.24
   -1    4   13      4.11     -2.09
   -1    4   12      0.90     -0.54
   -1    4   11     -1.50      2.36
   -1    4   10     -2.05     -2.41
   -1    4    9      0.50      0.67
   -1    4    8     -0.13      8.83
   -1    4    7     -1.43     -0.59
   -1    4    6     -7.73      9.80
   -1    4    5      2.53      2.73
   -1    4    4     -6.17     -5.17
   -1    4    3     -2.17     13.70
   -1    4    2      7.58    -22.49
   -1    4    1     34.83    -17.33
   -1    4    0      4.04     -1.06
   -1    3   16     -5.63      0.57
   -1    3   15     -2.01      0.78
   -1    3   14     -1.75     -3.79
   -1    3   13      0.38      0.30
   -1    3   12     -0.87     -0.26
   -1    3   11      1.68     -0.19
   -1    3   10     -0.92      0.07
   -1    3    9      0.07     -1.92
   -1    3    8      0.07      4.48
   -1    3    7     -2.06      0.22
   -1    3    6      3.86      7.01
   -1    3    5      0.63      1.37
   -1    3    4      2.86     -3.29
   -1    3    3     -0.65     15.17
   -1    3    2    -18.52    -24.58
   -1    3    1    -13.18    -19.34
   -1    3    0    -26.59      0.67
   -1    2   16     -1.61     -0.17
   -1    2   15     -1.08     -2.82
   -1    2   14     -0.33      0.46
   -1    2   13     -0.30      1.74
   -1    2   12     -0.28      0.18
   -1    2   11     -0.46     -0.05
   -1    2   10     -1.91     -0.32
   -1    2    9      0.36      0.46
   -1    2    8     -0.14     -0.02
   -1    2    7      0.25      3.92
   -1    2    6     22.08      0.58
   -1    2    5      0.33      0.28
   -1    2    4      6.75      0.06
   -1    2    3      1.14      6.13
   -1    2    2     -7.92      0.25
   -1    2    1      0.35     -6.15
   -1    2    0     34.49      0.60
   -2   21    2      2.48     -1.58
   -2   21    1     -1.55     -2.83
   -2   21    0     -1.22     -0.16
   -2   20    5      0.80     -1.72
   -2   20    4     -1.65     -1.66
   -2   20    3     -0.25     -2.61
   -2   20    2     -0.29     -2.69
   -2   20    1     -1.71      0.18
   -2   20    0     -0.19     -0.62
   -2   19    7     -1.36      0.07
   -2   19    6      1.06      1.11
   -2   19    5      0.16     -1.78
   -2   19    4      0.78      0.04
   -2   19    3      1.72      1.21
   -2   19    2      0.07     -0.89
   -2   19    1     -1.07      0.63
   -2   19    0     -1.27      1.36
   -2   18    8      2.55      3.14
   -2   18    7      2.45      1.23
   -2   18    6     -0.08     -2.48
   -2   18    5     -0.18     -2.46
   -2   18    4     -0.62      1.05
   -2   18    3      0.06      3.07
   -2   18    2      0.73      0.10
   -2   18    1     -1.10     -0.14
   -2   18    0     -1.34      1.54
   -2   17   10      2.72     -0.90
   -2   17    9      3.69     -0.16
   -2   17    8      1.59      0.83
   -2   17    7      0.78      0.68
   -2   17    6     -0.29     -1.69
   -2   17    5     -0.46     -0.85
   -2   17    4      1.41     -1.06
   -2   17    3      0.17     -1.56
   -2   17    2     -0.26     -2.07
   -2   17    1     -0.45      0.48
   -2   17    0     -1.33     -0.53
   -2   16   11      2.44      2.84
   -2   16   10      0.85      0.39
   -2   16    9      1.86      2.55
   -2   16    8     -1.48      3.86
   -2   16    7     -0.54      1.89
   -2   16    6     -0.18     -1.67
   -2   16    5     -0.57      1.41
   -2   16    4      0.65     -0.58
   -2   16    3     -1.07     -1.90
   -2   16    2     -0.71     -0.25
   -2   16    1     -0.20      0.43
   -2   16    0      0.22     -0.59
   -2   15   11      3.92      0.80
   -2   15   10     -1.18     -0.49
   -2   15    9      0.25      0.64
   -2   15    8     -2.52      2.53
   -2   15    7     -1.28      1.50
   -2   15    6     -0.18     -0.76
   -2   15    5      0.20     -0.07
   -2   15    4      0.57      0.28
   -2   15    3     -0.92      0.78
   -2   15    2      0.95     -1.15
   -2   15    1      0.00     -0.06
   -2   15    0     -2.75      0.39
   -2   14   12     -2.07     -3.72
   -2   14   11     -1.23     -0.73
   -2   14   10     -2.94     -3.25
   -2   14    9     -2.23      0.96
   -2   14    8      0.98      0.63
   -2   14    7     -0.52      0.54
   -2   14    6      0.88      1.38
   -2   14    5     -0.37     -0.21
   -2   14    4     -2.00     -0.09
   -2   14    3      1.25      1.33
   -2   14    2      1.32     -2.94
   -2   14    1     -0.38     -0.85
   -2   14    0     -0.69      0.25
   -2   13   13      0.08     -0.93
   -2   13   12      1.03     -1.01
   -2   13   11     -1.43      0.16
   -2   13   10     -0.99     -4.15
   -2   13    9      0.09      1.83
   -2   13    8      0.99     -0.04
   -2   13    7     -0.66      1.02
   -2   13    6     -0.69      2.43
   -2   13    5      0.03      0.28
   -2   13    4     -1.39      0.81
   -2   13    3      1.57     -0.34
   -2   13    2     -0.34     -0.50
   -2   13    1     -1.83     -0.19
   -2   13    0     -0.51     -0.30
   -2   12   13     -1.05      1.61
   -2   12   12      0.26     -1.47
   -2   12   11      0.65     -0.84
   -2   12   10      0.73      0.07
   -2   12    9      1.18      4.49
   -2   12    8      0.28      1.93
   -2   12    7     -0.56      0.24
   -2   12    6     -1.73      2.68
   -2   12    5      1.23     -1.93
   -2   12    4     -0.34      1.69
   -2   12    3     -0.08     -0.80
   -2   12    2     -0.17      0.09
   -2   12    1     -2.61     -0.64
   -2   12    0      0.55      0.48
   -2   11   14     -2.00     -1.83
   -2   11   13     -1.85      0.74
   -2   11   12      0.54     -0.02
   -2   11   11      0.22     -3.24
   -2   11   10      0.33     -0.86
   -2   11    9      0.05      3.59
   -2   11    8     -0.98      3.04
   -2   11    7     -0.71      4.87
   -2   11    6     -2.10      0.96
   -2   11    5      1.64     -1.99
   -2   11    4      0.88      0.75
   -2   11    3      0.49     -3.84
   -2   11    2      1.96     -3.76
   -2   11    1     -1.83      0.05
   -2   11    0      0.45      2.67
   -2   10   14     -3.07      0.83
   -2   10   13     -2.43      0.02
   -2   10   12     -1.66      2.58
   -2   10   11     -1.79      1.09
   -2   10   10     -0.59      0.37
   -2   10    9      1.90     -0.74
   -2   10    8      0.36      1.12
   -2   10    7     -0.67      3.98
   -2   10    6      0.31     -4.56
   -2   10    5      1.06     -2.21
   -2   10    4     -2.62     -1.90
   -2   10    3      3.42     -1.27
   -2   10    2     -1.38      3.08
   -2   10    1     -1.98      3.40
   -2   10    0      1.48      1.11
   -2    9   15     -1.66     -1.92
   -2    9   14     -0.16      0.58
   -2    9   13      0.24      0.46
   -2    9   12     -0.39      2.34
   -2    9   11     -1.81      2.15
   -2    9   10     -1.54      0.81
   -2    9    9      1.17      0.29
   -2    9    8      1.08      5.37
   -2    9    7     -1.76     -2.34
   -2    9    6      1.28     -0.57
   -2    9    5     -0.48      0.13
   -2    9    4      1.69      0.51
   -2    9    3      0.65     -0.97
   -2    9    2     -2.89      3.48
   -2    9    1      3.92     -2.56
   -2    9    0     -0.57     -0.28
   -2    8   15     -0.40     -3.48
   -2    8   14      1.56     -0.58
   -2    8   13     -0.69     -1.43
   -2    8   12     -0.76      1.75
   -2    8   11      1.66     -0.29
   -2    8   10      1.02     -1.47
   -2    8    9     -0.66      0.31
   -2    8    8      2.52      6.41
   -2    8    7     -1.37     -2.54
   -2    8    6      1.46      5.32
   -2    8    5      0.12      0.03
   -2    8    4      0.10     -3.17
   -2    8    3     -5.93     -0.91
   -2    8    2     -3.99     -4.72
   -2    8    1     -1.48     -1.63
   -2    8    0     -4.21      0.61
   -2    7   15      1.50     -0.27
   -2    7   14     -0.88      1.40
   -2    7   13     -0.44     -1.99
   -2    7   12     -0.35     -0.32
   -2    7   11     -1.58     -0.10
   -2    7   10     -0.41      0.94
   -2    7    9     -1.03      3.95
   -2    7    8      0.03      0.39
   -2    7    7      1.34     -0.55
   -2    7    6      1.02     -1.49
   -2    7    5      3.55     -2.30
   -2    7    4     -4.73    -14.07
   -2    7    3     -5.24     -0.49
   -2    7    2     -0.83     -0.21
   -2    7    1     -6.05      8.46
   -2    7    0     -4.74      0.06
   -2    6   15     -0.90     -0.19
   -2    6   14     -0.43      2.29
   -2    6   13      0.50     -0.60
   -2    6   12      1.06     -1.36
   -2    6   11     -0.65      0.62
   -2    6   10      0.33      0.00
   -2    6    9     -0.63      5.17
   -2    6    8     -0.85     -2.24
   -2    6    7      1.83      1.37
   -2    6    6     -3.88     -5.04
   -2    6    5      0.77     -0.91
   -2    6    4      0.93     -3.26
   -2    6    3      4.40      1.24
   -2    6    2      8.32      4.23
   -2    6    1     -3.18      4.59
   -2    6    0      1.76     -0.62
   -2    5   16      4.19     -2.29
   -2    5   15     -2.38     -1.30
   -2    5   14      0.19     -0.52
   -2    5   13      2.32     -0.86
   -2    5   12      1.00     -0.28
   -2    5   11      1.16      2.44
   -2    5   10     -1.19     -1.16
   -2    5    9     -0.46      3.51
   -2    5    8     -0.90      0.66
   -2    5    7     -0.18      1.20
   -2    5    6     -2.19      1.87
   -2    5    5      1.42      0.52
   -2    5    4     -0.56      2.50
   -2    5    3      6.16      7.55
   -2    5    2     10.82     -7.54
   -2    5    1      2.82     12.99
   -2    5    0     10.57     -0.09
   -2    4   16     -4.01      1.03
   -2    4   15      0.30      1.87
   -2    4   14     -0.82     -0.09
   -2    4   13      0.48     -1.20
   -2    4   12      0.86      0.47
   -2    4   11      0.50      1.92
   -2    4   10     -6.58      0.28
   -2    4    9      0.07     -1.17
   -2    4    8     -2.45      0.00
   -2    4    7     -0.30      0.00
   -2    4    6     -3.28     -1.12
   -2    4    5     -0.63      3.62
   -2    4    4      2.04     -1.57
   -2    4    3     -0.19     11.57
   -2    4    2    -12.46     -0.83
   -2    4    1      0.54      1.83
   -2    4    0     32.11      0.06
   -3   21    3     -0.31     -0.64
   -3   21    2     -0.36     -0.82
   -3   21    1     -2.23     -2.35
   -3   21    0      0.34     -2.01
   -3   21    4     -0.62     -0.40
   -3   20    6      3.06      1.79
   -3   20    5      2.32      1.72
   -3   20    4      1.82     -2.78
   -3   20    3      0.61      0.60
   -3   20    2     -0.93     -3.86
   -3   20    1      0.10     -1.43
   -3   20    0      0.28     -0.47
   -3   19    8     -0.42      3.83
   -3   19    7     -1.75      0.75
   -3   19    6      1.01      0.26
   -3   19    5     -0.42     -0.99
   -3   19    4      0.23     -3.28
   -3   19    3     -1.29      2.83
   -3   19    2      1.49     -0.89
   -3   19    1      0.97     -0.92
   -3   19    0     -0.50      0.87
   -3   18    9      0.88     -0.73
   -3   18    8     -0.68      0.30
   -3   18    7      2.92      0.53
   -3   18    6      1.66     -0.43
   -3   18    5      0.10     -4.45
   -3   18    4     -0.58     -0.71
   -3   18    3     -1.71      2.06
   -3   18    2      0.94      3.46
   -3   18    1     -0.86     -0.07
   -3   18    0     -1.31     -1.73
   -3   17   10      2.12     -0.66
   -3   17    9      1.16      0.01
   -3   17    8      0.46      0.58
   -3   17    7      0.59     -0.21
   -3   17    6     -0.53      2.06
   -3   17    5     -1.56      0.41
   -3   17    4      0.25      3.69
   -3   17    3      0.53     -0.38
   -3   17    2     -0.04      2.25
   -3   17    1     -0.79     -1.57
   -3   17    0      1.94     -2.80
   -3   16   11      0.70      0.82
   -3   16   10     -0.50      1.45
   -3   16    9      0.45     -0.41
   -3   16    8      0.67      3.83
   -3   16    7     -0.44      2.93
   -3   16    6     -1.82      3.32
   -3   16    5     -0.63      2.60
   -3   16    4     -0.41      1.12
   -3   16    3     -1.81     -1.84
   -3   16    2     -0.27     -0.07
   -3   16    1     -1.37     -0.48
   -3   16    0      1.54     -0.28
   -3   15   12     -4.00     -1.25
   -3   15   11     -0.51      2.06
   -3   15   10     -1.28     -0.50
   -3   15    9      0.64     -0.38
   -3   15    8      2.28      1.78
   -3   15    7     -0.83      2.45
   -3   15    6      0.29      2.41
   -3   15    5     -1.90     -2.39
   -3   15    4     -1.01     -2.30
   -3   15    3      1.00      0.22
   -3   15    2     -0.04     -1.25
   -3   15    1     -0.40      0.16
   -3   15    0     -0.67      0.47
   -3   14   12      1.02      1.65
   -3   14   11     -3.11      0.39
   -3   14   10      0.12     -6.04
   -3   14    9      1.27     -0.49
   -3   14    8      0.59     -0.16
   -3   14    7     -0.83      1.61
   -3   14    6      1.50      0.15
   -3   14    5     -0.04     -3.07
   -3   14    4      0.43     -0.31
   -3   14    3      1.89      1.00
   -3   14    2     -2.30     -0.57
   -3   14    1     -1.44     -1.01
   -3   14    0      0.93     -0.97
   -3   13   13     -2.18      0.84
   -3   13   12      2.08      2.04
   -3   13   11     -0.62      0.71
   -3   13   10      0.66     -3.10
   -3   13    9      0.58     -1.36
   -3   13    8      0.59     -1.28
   -3   13    7     -0.06     -1.49
   -3   13    6     -0.88      1.75
   -3   13    5      1.24     -1.48
   -3   13    4      1.47      2.58
   -3   13    3     -0.76     -0.19
   -3   13    2     -2.55      0.03
   -3   13    1      0.24     -0.51
   -3   13    0      0.85     -1.00
   -3   12   13      0.06      1.69
   -3   12   12     -0.73      1.96
   -3   12   11      1.13      0.05
   -3   12   10      0.44      0.87
   -3   12    9     -1.38      1.61
   -3   12    8      0.53      2.32
   -3   12    7     -0.09      1.50
   -3   12    6     -1.19      2.70
   -3   12    5      1.80     -1.59
   -3   12    4      0.61      0.81
   -3   12    3     -0.45     -1.97
   -3   12    2      2.34      1.67
   -3   12    1     -0.55     -1.03
   -3   12    0     -0.41      0.25
   -3   11   14     -1.54      1.21
   -3   11   13     -1.07      0.43
   -3   11   12     -1.36      3.21
   -3   11   11     -0.52      0.16
   -3   11   10      0.96     -1.96
   -3   11    9      2.35     -1.06
   -3   11    8     -0.32      2.40
   -3   11    7      1.16      5.60
   -3   11    6     -2.18     -2.83
   -3   11    5     -0.38     -1.14
   -3   11    4      1.42      1.36
   -3   11    3      1.84      0.33
   -3   11    2     -1.11      0.34
   -3   11    1     -1.30     -3.72
   -3   11    0     -0.38     -0.17
   -3   10   14     -0.66      3.14
   -3   10   13     -1.21      2.27
   -3   10   12     -1.72      1.07
   -3   10   11     -1.65      0.17
   -3   10   10      0.31     -1.63
   -3   10    9      2.87     -0.91
   -3   10    8      1.07      2.05
   -3   10    7      0.47      0.68
   -3   10    6     -1.85     -4.75
   -3   10    5      3.84      0.34
   -3   10    4      0.20      0.38
   -3   10    3     -3.45     -1.89
   -3   10    2     -1.51     -0.78
   -3   10    1     -0.71      2.16
   -3   10    0     -1.15     -0.31
   -3    9   15      0.37     -4.59
   -3    9   14      0.96      1.20
   -3    9   13     -1.02      2.06
   -3    9   12      0.14     -0.39
   -3    9   11      1.91     -1.04
   -3    9   10     -0.73     -4.06
   -3    9    9     -0.92      0.54
   -3    9    8      1.89      3.84
   -3    9    7     -2.22     -2.05
   -3    9    6      1.67      1.68
   -3    9    5      3.32      1.60
   -3    9    4     -4.11     -0.24
   -3    9    3     -7.33     -1.84
   -3    9    2      0.91     -3.45
   -3    9    1      0.03     -0.13
   -3    9    0      6.81     -0.17
   -3    8   15     -0.66     -1.50
   -3    8   14     -0.30      0.12
   -3    8   13     -0.58     -0.93
   -3    8   12     -0.65      1.10
   -3    8   11      0.07      0.68
   -3    8   10     -0.38     -0.92
   -3    8    9     -0.27      0.99
   -3    8    8      0.63     -0.72
   -3    8    7      0.58     -0.62
   -3    8    6      2.74      0.71
   -3    8    5     -2.19      0.27
   -3    8    4     -2.69     -8.32
   -3    8    3     -2.48      3.99
   -3    8    2     -3.99     -5.30
   -3    8    1     -3.45     -3.25
   -3    8    0     -0.45     -0.27
   -3    7   15     -0.46      3.56
   -3    7   14     -0.54      0.90
   -3    7   13     -0.78      0.20
   -3    7   12      0.52      0.31
   -3    7   11     -1.16     -0.36
   -3    7   10     -3.03      2.12
   -3    7    9      0.46      1.39
   -3    7    8     -1.53     -0.94
   -3    7    7      0.75      0.20
   -3    7    6     -2.68     -4.31
   -3    7    5      0.41      2.46
   -3    7    4      4.74     -7.10
   -3    7    3      0.95      0.27
   -3    7    2     -6.30     -3.50
   -3    7    1     -3.20     -2.65
   -3    7    0     -0.01     -0.04
   -3    6   15     -0.47      0.66
   -3    6   14      1.31     -0.16
   -3    6   13     -0.61      1.30
   -3    6   12      1.49     -0.14
   -3    6   11     -0.14     -0.89
   -3    6   10     -1.39      0.19
   -3    6    9      0.17      1.64
   -3    6    8     -1.92      0.26
   -3    6    7      0.23      0.78
   -3    6    6     -2.93      0.10
   -3    6    5      0.33      1.28
   -3    6    4      3.01      0.44
   -3    6    3      0.35     -0.60
   -3    6    2      4.44     -0.07
   -3    6    1     -0.79     11.90
   -3    6    0      6.90      0.55
   -4   21    4      2.27      2.07
   -4   21    3      1.78      0.36
   -4   21    2      0.57      0.26
   -4   21    1      0.24      0.40
   -4   21    0     -1.99     -1.14
   -4   21    5      5.57      1.53
   -4   20    7     -2.21     -0.75
   -4   20    6     -0.20      1.74
   -4   20    5      3.01      2.48
   -4   20    4      0.47     -0.83
   -4   20    3      1.77      0.70
   -4   20    2      1.23     -1.53
   -4   20    1      1.01     -1.64
   -4   20    0      0.00      0.84
   -4   19    8     -0.89      0.10
   -4   19    7      1.97      0.17
   -4   19    6     -0.08      1.57
   -4   19    5      0.15     -1.81
   -4   19    4     -2.02     -2.07
   -4   19    3     -0.09      2.17
   -4   19    2     -0.34      2.06
   -4   19    1      1.10     -1.88
   -4   19    0      2.28     -0.01
   -4   18    9     -1.47     -1.33
   -4   18    8     -2.41     -2.38
   -4   18    7      0.78     -0.73
   -4   18    6     -0.76      3.12
   -4   18    5     -1.12     -0.58
   -4   18    4      1.09      2.30
   -4   18    3      0.76      2.22
   -4   18    2     -0.95      4.56
   -4   18    1      1.69     -1.89
   -4   18    0      0.58     -1.63
   -4   17   10     -0.51     -0.02
   -4   17    9     -1.21     -1.71
   -4   17    8      0.55     -0.04
   -4   17    7     -0.46     -0.65
   -4   17    6     -1.96      4.76
   -4   17    5     -0.71      3.10
   -4   17    4      0.49      2.60
   -4   17    3      0.27     -0.09
   -4   17    2      1.28      1.59
   -4   17    1      0.25     -2.46
   -4   17    0      2.17     -0.62
   -4   16   11     -1.46     -0.49
   -4   16   10     -1.08     -0.30
   -4   16    9     -1.29     -1.95
   -4   16    8      1.97     -0.35
   -4   16    7     -0.08      2.18
   -4   16    6      0.25      4.40
   -4   16    5      0.33     -1.06
   -4   16    4     -0.57     -0.75
   -4   16    3      0.74     -1.54
   -4   16    2     -0.68      0.06
   -4   16    1     -0.77      1.10
   -4   16    0      1.09      1.05
   -4   15   12      1.17      0.04
   -4   15   11     -1.20     -1.45
   -4   15   10      1.38     -1.97
   -4   15    9      0.12     -1.81
   -4   15    8      0.09     -0.06
   -4   15    7      0.78      0.66
   -4   15    6      3.22      1.40
   -4   15    5     -0.86     -3.95
   -4   15    4     -0.72      1.16
   -4   15    3      1.88      1.73
   -4   15    2     -2.28      1.96
   -4   15    1      0.98     -0.22
   -4   15    0      2.52     -0.35
   -4   14   12      3.30      0.63
   -4   14   11     -1.57     -1.23
   -4   14   10      1.02     -2.92
   -4   14    9      1.81     -5.31
   -4   14    8     -0.91      0.00
   -4   14    7     -0.19     -0.50
   -4   14    6      0.04      1.24
   -4   14    5      0.69     -1.72
   -4   14    4      2.39      4.17
   -4   14    3      0.02      0.06
   -4   14    2     -1.46     -1.55
   -4   14    1      1.77     -2.42
   -4   14    0      1.42     -0.95
   -4   13   13     -2.04      0.13
   -4   13   12     -1.17      0.99
   -4   13   11      1.45      1.50
   -4   13   10      0.09      3.05
   -4   13    9     -0.60     -2.13
   -4   13    8     -0.38      1.43
   -4   13    7      0.07     -1.68
   -4   13    6     -0.95      1.77
   -4   13    5      0.73     -0.85
   -4   13    4     -0.44      0.87
   -4   13    3      0.01     -1.69
   -4   13    2      0.00     -0.22
   -4   13    1      1.68      2.94
   -4   13    0      2.16      0.17
   -4   12   14     -0.77     -0.50
   -4   12   13     -0.50     -3.20
   -4   12   12     -2.66      1.38
   -4   12   11      2.44      1.69
   -4   12   10      0.46      2.91
   -4   12    9     -1.06     -0.15
   -4   12    8     -1.67      3.22
   -4   12    7      0.84      0.52
   -4   12    6     -1.72      0.44
   -4   12    5     -0.10      0.73
   -4   12    4     -1.29     -1.05
   -4   12    3      0.26     -0.69
   -4   12    2      1.17      1.82
   -4   12    1      1.87      1.49
   -4   12    0      0.54     -0.27
   -4   11   14     -0.53      2.51
   -4   11   13     -0.28     -1.13
   -4   11   12     -0.77      0.86
   -4   11   11      0.31      0.33
   -4   11   10     -0.67     -0.29
   -4   11    9      1.34     -3.02
   -4   11    8     -1.13      0.13
   -4   11    7      1.09      0.49
   -4   11    6     -0.86     -0.63
   -4   11    5      0.08      0.73
   -4   11    4     -1.44     -0.06
   -4   11    3      0.15      3.17
   -4   11    2      0.26     -0.60
   -4   11    1     -2.00     -2.64
   -4   11    0     -2.65     -0.56
   -4   10   14      0.24      2.58
   -4   10   13      0.23      4.87
   -4   10   12     -0.18     -1.45
   -4   10   11     -0.31     -2.66
   -4   10   10     -0.87     -3.16
   -4   10    9      1.06     -0.91
   -4   10    8      0.20      1.34
   -4   10    7     -0.30      0.93
   -4   10    6      0.12      1.35
   -4   10    5      0.07      1.45
   -4   10    4     -1.91      3.17
   -4   10    3     -2.46      0.35
   -4   10    2      2.54     -8.14
   -4   10    1     -0.15      1.43
   -4   10    0      1.19      0.36
   -4    9   15      0.12     -1.71
   -4    9   14      1.60      0.65
   -4    9   13     -0.25      4.77
   -4    9   12     -0.55     -1.53
   -4    9   11      1.32     -0.08
   -4    9   10      1.68     -2.56
   -4    9    9     -0.89     -1.87
   -4    9    8     -1.04      0.55
   -4    9    7     -0.65      1.41
   -4    9    6     -1.69      0.95
   -4    9    5     -1.08      1.93
   -4    9    4      0.64      2.24
   -4    9    3     -1.57     -0.07
   -4    9    2     -0.85     -4.55
   -4    9    1     -1.67      2.43
   -4    9    0      6.80     -0.07
   -4    8   15      0.45      1.94
   -4    8   14     -0.34      0.19
   -4    8   13     -0.08      0.04
   -4    8   12      1.07     -0.66
   -4    8   11     -0.31      2.45
   -4    8   10     -0.44     -0.50
   -4    8    9     -0.17     -0.85
   -4    8    8     -1.82     -0.01
   -4    8    7     -0.51     -1.72
   -4    8    6      0.08      0.00
   -4    8    5     -0.24      4.60
   -4    8    4      4.44     -0.15
   -4    8    3      0.33      0.91
   -4    8    2     -8.46      0.20
   -4    8    1     -1.00     -4.40
   -4    8    0      0.87     -0.59
   -5   22    2      0.73      2.96
   -5   22    1     -1.21      1.29
   -5   22    0      0.32     -0.46
   -5   21    5      4.52     -0.04
   -5   21    4      1.48      2.87
   -5   21    3      1.27     -0.40
   -5   21    2      0.38      1.40
   -5   21    1      1.58      2.79
   -5   21    0     -0.37     -0.21
   -5   20    7      3.34     -0.26
   -5   20    6     -1.38     -0.71
   -5   20    5      1.96     -2.59
   -5   20    4     -1.39      0.52
   -5   20    3      0.66     -0.32
   -5   20    2      0.29     -0.19
   -5   20    1      2.45     -0.33
   -5   20    0      0.66     -0.80
   -5   19    8     -0.83     -1.41
   -5   19    7      3.46      0.54
   -5   19    6     -1.23     -0.39
   -5   19    5      2.10     -1.67
   -5   19    4      0.38     -0.02
   -5   19    3      0.14      1.32
   -5   19    2     -1.52      1.95
   -5   19    1      0.62     -0.46
   -5   19    0     -0.78     -0.64
   -5   18   10     -0.01      1.59
   -5   18    9      1.57     -0.91
   -5   18    8     -1.92      0.03
   -5   18    7      2.64     -1.69
   -5   18    6     -1.42      3.00
   -5   18    5      0.85      1.60
   -5   18    4      1.00     -0.17
   -5   18    3      0.45      0.83
   -5   18    2     -0.39      1.61
   -5   18    1      0.81     -0.42
   -5   18    0     -1.92      0.03
   -5   17   10     -0.50      0.22
   -5   17    9     -0.17     -0.11
   -5   17    8      0.17      0.24
   -5   17    7      3.15      0.67
   -5   17    6      0.09      2.41
   -5   17    5     -0.85     -0.21
   -5   17    4     -0.91     -0.93
   -5   17    3      0.81     -2.13
   -5   17    2      0.84      0.56
   -5   17    1      1.29      1.17
   -5   17    0     -1.09      0.66
   -5   16   11      0.34      0.60
   -5   16   10      0.89      0.83
   -5   16    9     -2.27     -0.53
   -5   16    8      0.21     -1.51
   -5   16    7      0.84      1.46
   -5   16    6      0.23      1.97
   -5   16    5     -2.37     -2.11
   -5   16    4     -1.03      1.64
   -5   16    3      2.68     -1.05
   -5   16    2     -0.29      2.12
   -5   16    1      2.27      1.98
   -5   16    0     -0.98      0.88
   -5   15   12      2.54     -0.57
   -5   15   11      0.45     -0.80
   -5   15   10      2.47      0.53
   -5   15    9      0.34     -4.17
   -5   15    8     -1.76      3.44
   -5   15    7     -1.48     -0.18
   -5   15    6      0.55      1.07
   -5   15    5     -0.03     -0.88
   -5   15    4     -0.45      3.26
   -5   15    3      0.91      0.78
   -5   15    2      0.78      1.47
   -5   15    1      1.25     -2.50
   -5   15    0      0.18     -0.25
   -5   14   13     -1.68      0.71
   -5   14   12      1.59      1.25
   -5   14   11     -0.06      0.66
   -5   14   10     -0.26      1.59
   -5   14    9     -0.45     -3.72
   -5   14    8     -1.03      2.98
   -5   14    7     -0.50     -1.30
   -5   14    6     -0.84      1.42
   -5   14    5     -1.02     -1.29
   -5   14    4      0.72      3.02
   -5   14    3      0.87      0.27
   -5   14    2      0.59     -3.25
   -5   14    1      0.07     -1.54
   -5   14    0      0.50      0.02
   -5   13   13     -3.82     -1.28
   -5   13   12     -1.61     -0.03
   -5   13   11      1.21     -0.17
   -5   13   10     -0.97      3.54
   -5   13    9     -0.61      1.89
   -5   13    8      0.03      2.56
   -5   13    7      0.23     -0.38
   -5   13    6     -0.98      0.46
   -5   13    5     -1.66     -1.64
   -5   13    4     -1.05     -0.72
   -5   13    3     -1.15     -4.71
   -5   13    2      0.60     -1.30
   -5   13    1     -0.64      7.50
   -5   13    0      2.66      0.12
   -5   12   14      0.43     -0.35
   -5   12   13     -2.16     -2.84
   -5   12   12     -0.66     -1.85
   -5   12   11      0.04     -1.49
   -5   12   10     -0.37      2.68
   -5   12    9      0.20      0.68
   -5   12    8     -1.40      1.62
   -5   12    7      0.06     -0.09
   -5   12    6     -0.71     -0.30
   -5   12    5     -0.86     -0.15
   -5   12    4     -1.21     -1.76
   -5   12    3     -0.89     -3.36
   -5   12    2      1.99      2.55
   -5   12    1      1.17      2.43
   -5   12    0      2.56     -0.26
   -5   11   14     -0.94      1.28
   -5   11   13      0.58      1.56
   -5   11   12     -0.27     -1.09
   -5   11   11     -0.28     -1.91
   -5   11   10     -0.20      1.35
   -5   11    9     -0.49      0.72
   -5   11    8     -0.92     -0.20
   -5   11    7     -0.16     -0.45
   -5   11    6      2.10      0.22
   -5   11    5     -0.48      2.23
   -5   11    4      0.05     -1.19
   -5   11    3      1.17      0.62
   -5   11    2      4.70      0.22
   -5   11    1     -0.79     -3.17
   -5   11    0     -5.83      0.49
   -5   10   14      1.55      0.15
   -5   10   13     -0.04      7.20
   -5   10   12     -1.05     -0.25
   -5   10   11      0.39     -1.19
   -5   10   10     -0.89      0.02
   -5   10    9      0.20     -1.23
   -5   10    8      0.28      0.23
   -5   10    7      0.19      2.24
   -5   10    6      0.77     -0.11
   -5   10    5     -0.04      3.77
   -5   10    4      1.03     -0.16
   -5   10    3     -0.26      2.25
   -5   10    2      1.23      0.13
   -5   10    1      0.24     -0.95
   -5   10    0      0.07     -0.22
   -6   22    3      0.42     -0.23
   -6   22    2      1.39      4.07
   -6   22    1     -2.97      1.11
   -6   22    0     -0.72     -0.73
   -6   21    6     -2.74     -2.45
   -6   21    5      1.19     -1.58
   -6   21    4     -1.74     -0.83
   -6   21    3      0.18     -0.30
   -6   21    2     -1.42     -0.40
   -6   21    1     -0.39      1.60
   -6   21    0      0.56     -2.33
   -6   20    7      0.83      2.37
   -6   20    6     -0.90     -5.28
   -6   20    5      1.62     -3.15
   -6   20    4     -0.09     -1.88
   -6   20    3     -0.08      0.62
   -6   20    2     -2.08     -0.64
   -6   20    1      1.75      1.61
   -6   20    0      1.36     -2.39
   -6   19    9      0.55      0.53
   -6   19    8     -3.43      1.41
   -6   19    7      4.52     -0.38
   -6   19    6     -2.02      0.03
   -6   19    5      2.44     -2.74
   -6   19    4      1.45     -1.80
   -6   19    3     -0.28      1.98
   -6   19    2     -0.50      0.59
   -6   19    1      0.69      4.07
   -6   19    0     -2.48      0.00
   -6   18   10     -0.57      1.89
   -6   18    9      2.28      1.87
   -6   18    8     -0.73      3.14
   -6   18    7      5.71     -2.35
   -6   18    6     -2.10      2.14
   -6   18    5     -0.62      0.17
   -6   18    4      0.45      0.28
   -6   18    3      1.41     -0.97
   -6   18    2      0.80      0.89
   -6   18    1      1.45      3.93
   -6   18    0     -4.01     -0.13
   -6   17   11     -0.43      3.11
   -6   17   10     -1.90      1.65
   -6   17    9     -0.28      1.36
   -6   17    8     -0.99     -1.11
   -6   17    7     -0.21      1.72
   -6   17    6      0.10      1.76
   -6   17    5     -2.82      0.40
   -6   17    4      1.22      1.70
   -6   17    3      2.04     -4.11
   -6   17    2     -0.12      2.37
   -6   17    1      1.71      2.50
   -6   17    0     -4.38     -0.23
   -6   16   11     -0.25      2.73
   -6   16   10      1.72      3.40
   -6   16    9     -0.46     -1.21
   -6   16    8     -2.37     -0.15
   -6   16    7     -1.32      0.32
   -6   16    6      0.92      1.28
   -6   16    5     -1.77      0.04
   -6   16    4     -0.83      0.61
   -6   16    3     -0.10     -0.77
   -6   16    2     -0.03      1.91
   -6   16    1      0.80     -0.71
   -6   16    0     -1.80      0.24
   -6   15   12      0.03      4.10
   -6   15   11     -2.64      1.95
   -6   15   10      1.52      1.58
   -6   15    9      0.07     -3.67
   -6   15    8     -1.52      2.30
   -6   15    7      0.76      0.51
   -6   15    6     -0.38     -0.50
   -6   15    5      1.39      0.31
   -6   15    4     -0.71      0.81
   -6   15    3     -1.10      1.48
   -6   15    2      1.59     -1.00
   -6   15    1     -0.76     -1.68
   -6   15    0      0.06     -0.08
   -6   14   13     -2.93      1.90
   -6   14   12      2.16      2.46
   -6   14   11     -0.45      0.84
   -6   14   10     -0.14      1.24
   -6   14    9     -0.55     -0.18
   -6   14    8     -1.41      0.19
   -6   14    7      0.26      0.72
   -6   14    6      0.25     -1.11
   -6   14    5     -0.35     -0.54
   -6   14    4      0.33      0.11
   -6   14    3     -0.35      0.63
   -6   14    2      1.47      1.48
   -6   14    1     -2.60      0.96
   -6   14    0      0.75     -0.52
   -6   13   13     -2.56      0.57
   -6   13   12      1.53     -0.97
   -6   13   11      0.33     -2.13
   -6   13   10     -0.56      0.82
   -6   13    9      0.20      1.26
   -6   13    8      0.75      0.64
   -6   13    7     -0.27      0.98
   -6   13    6      1.26     -0.03
   -6   13    5     -0.72     -1.87
   -6   13    4      0.38     -0.70
   -6   13    3     -1.60     -3.42
   -6   13    2      1.50      1.06
   -6   13    1     -1.04      0.43
   -6   13    0      0.86     -0.02
   -6   12   14      2.37     -0.21
   -6   12   13     -0.01     -0.23
   -6   12   12      0.61      0.15
   -6   12   11     -0.23     -2.38
   -6   12   10     -0.64      0.04
   -6   12    9      0.02      1.10
   -6   12    8      0.26      0.30
   -6   12    7      0.09     -0.07
   -6   12    6      1.37      0.08
   -6   12    5     -0.09     -1.01
   -6   12    4      0.39      0.18
   -6   12    3      0.45     -2.62
   -6   12    2      3.31     -0.59
   -6   12    1      0.16     -2.57
   -6   12    0      1.20      0.64
   -7   22    4     -3.50     -3.90
   -7   22    3     -1.37     -2.42
   -7   22    2      1.51      0.63
   -7   22    1     -2.54     -2.21
   -7   22    0     -3.16     -1.01
   -7   21    6     -3.64     -5.53
   -7   21    5      0.63      0.62
   -7   21    4     -2.65     -4.57
   -7   21    3      0.35     -0.14
   -7   21    2     -1.75     -1.40
   -7   21    1      0.30     -2.73
   -7   21    0     -0.86     -2.10
   -7   20    8     -2.71     -1.34
   -7   20    7     -1.07      3.45
   -7   20    6     -3.40     -3.55
   -7   20    5      1.58     -2.29
   -7   20    4      0.68     -0.79
   -7   20    3      1.22      1.40
   -7   20    2     -0.28     -0.60
   -7   20    1      1.04      1.69
   -7   20    0      0.65     -0.15
   -7   19    9     -0.66      0.92
   -7   19    8     -3.98      0.61
   -7   19    7      1.79     -2.26
   -7   19    6     -3.70      3.15
   -7   19    5      1.73      0.19
   -7   19    4      2.41      0.30
   -7   19    3      1.95     -0.57
   -7   19    2      0.32      0.63
   -7   19    1      1.05      4.26
   -7   19    0     -1.67      0.49
   -7   18   10     -2.31     -0.41
   -7   18    9     -1.50      2.11
   -7   18    8     -2.30     -0.27
   -7   18    7      1.71     -0.63
   -7   18    6      0.62      1.87
   -7   18    5     -0.48      3.39
   -7   18    4      1.69      1.41
   -7   18    3      1.34     -1.78
   -7   18    2     -0.37      1.86
   -7   18    1      2.21      0.79
   -7   18    0     -1.18     -1.07
   -7   17   11      0.72      0.39
   -7   17   10      0.77      3.85
   -7   17    9     -1.19     -0.70
   -7   17    8     -1.04     -3.42
   -7   17    7     -1.92      1.27
   -7   17    6      0.96      1.07
   -7   17    5     -1.46      1.27
   -7   17    4     -0.80      0.77
   -7   17    3     -0.27     -1.02
   -7   17    2      0.55     -0.93
   -7   17    1      1.66     -2.14
   -7   17    0     -1.89      0.09
   -7   16   12     -2.96      2.01
   -7   16   11     -0.68      0.36
   -7   16   10      2.15      3.63
   -7   16    9      1.21     -2.68
   -7   16    8     -1.63     -0.37
   -7   16    7     -1.01      0.30
   -7   16    6      1.04     -1.03
   -7   16    5      0.86      0.18
   -7   16    4     -3.09     -1.35
   -7   16    3     -0.38      0.52
   -7   16    2      0.09     -2.38
   -7   16    1     -1.14     -0.81
   -7   16    0      0.68      0.97
   -7   15   12      2.08      2.56
   -7   15   11     -1.64      4.03
   -7   15   10     -1.52      0.90
   -7   15    9     -0.08     -1.91
   -7   15    8     -6.62     -0.50
   -7   15    7      0.95      1.80
   -7   15    6      2.08     -1.26
   -7   15    5      1.43      2.64
   -7   15    4     -0.16      0.33
   -7   15    3     -0.13      3.92
   -7   15    2     -0.52     -1.12
   -7   15    1     -1.00      0.67
   -7   15    0      4.02     -0.03
   -7   14   13     -0.10      1.21
   -7   14   12      4.52      0.55
   -7   14   11     -0.12      1.68
   -7   14   10     -0.87      0.05
   -7   14    9     -0.16      0.30
   -7   14    8     -4.41     -0.36
   -7   14    7      0.09      1.94
   -7   14    6      2.57      0.86
   -7   14    5     -0.20      1.49
   -7   14    4      0.68      0.32
   -7   14    3     -0.24      0.76
   -7   14    2      1.31     -0.10
   -7   14    1     -0.25      0.00
   -7   14    0      0.68     -0.25
   -8   23    0     -0.66      0.32
   -8   22    5      1.79      3.41
   -8   22    4     -1.59     -4.44
   -8   22    3     -1.78     -2.59
   -8   22    2     -0.47     -1.55
   -8   22    1      3.09     -5.40
   -8   22    0     -5.96      0.25
   -8   21    6     -1.21     -2.16
   -8   21    5      1.80      2.66
   -8   21    4      0.74      0.54
   -8   21    3     -1.09     -1.63
   -8   21    2      1.35     -0.31
   -8   21    1      0.30     -5.27
   -8   21    0     -3.84     -0.06
   -8   21    7      0.79      3.95
   -8   20    8     -2.38     -4.37
   -8   20    7     -0.18      0.97
   -8   20    6     -1.07      2.45
   -8   20    5      2.61     -0.33
   -8   20    4      1.58      3.45
   -8   20    3     -0.37     -2.72
   -8   20    2      1.94      1.13
   -8   20    1     -1.42     -1.14
   -8   20    0      0.82      0.77
   -8   19    9     -1.31      3.50
   -8   19    8     -1.05     -4.08
   -8   19    7      1.92     -2.50
   -8   19    6      0.01      2.12
   -8   19    5     -0.29      2.66
   -8   19    4      0.11      0.58
   -8   19    3      2.14     -3.09
   -8   19    2     -0.11      1.20
   -8   19    1      2.14     -0.67
   -8   19    0      1.45      0.48
   -8   18   10      2.57      1.75
   -8   18    9     -2.12      0.80
   -8   18    8     -0.46     -3.30
   -8   18    7      0.24     -0.27
   -8   18    6      1.04     -1.87
   -8   18    5     -1.35      2.12
   -8   18    4     -0.95     -0.25
   -8   18    3      2.35      0.27
   -8   18    2      1.33     -0.97
   -8   18    1      2.18     -2.04
   -8   18    0      1.20     -0.33
   -8   17   11      1.85     -3.67
   -8   17   10      5.30      3.65
   -8   17    9     -0.53     -2.87
   -8   17    8      0.81     -2.11
   -8   17    7     -1.23     -1.65
   -8   17    6     -0.20     -1.35
   -8   17    5     -0.52     -0.33
   -8   17    4     -1.50      0.32
   -8   17    3      0.88      0.54
   -8   17    2      0.37     -2.96
   -8   17    1      0.70     -2.18
   -8   17    0      1.08      0.52
   -8   16   12     -3.11      0.34
   -8   16   11      0.02      0.36
   -8   16   10      0.28     -0.35
   -8   16    9      0.16     -3.72
   -8   16    8     -2.52      0.19
   -8   16    7     -0.28      0.18
   -8   16    6      1.66     -0.13
   -8   16    5     -0.34      1.21
   -8   16    4     -2.28      0.03
   -8   16    3     -0.31     -0.26
   -8   16    2     -1.66     -0.23
   -8   16    1      0.29      0.88
   -8   16    0      2.25      0.72
   -8   23    1      1.89     -2.01
   -9   23    2     -1.64     -1.70
   -9   23    1      1.67     -3.00
   -9   23    0     -2.08      2.13
   -9   22    5      1.05      5.68
   -9   22    4      1.27     -0.05
   -9   22    3      0.72     -3.17
   -9   22    2     -1.46     -0.28
   -9   22    1      0.76     -5.20
   -9   22    0     -3.05      1.78
   -9   21    7      0.19      1.38
   -9   21    6      1.59      1.54
   -9   21    5      1.35      3.38
   -9   21    4      3.42      4.39
   -9   21    3     -1.61     -3.35
   -9   21    2      1.59      2.34
   -9   21    1     -1.45     -4.70
   -9   21    0      1.25     -0.14
   -9   20    8      0.02     -5.64
   -9   20    7      0.58     -3.01
   -9   20    6      0.55      2.70
   -9   20    5      1.45     -0.15
   -9   20    4      2.66      3.05
   -9   20    3     -1.28     -2.27
   -9   20    2      0.12      2.62
   -9   20    1     -0.13     -1.25
   -9   20    0      1.88      0.01
   -9   19    9     -0.43      4.97
   -9   19    8      0.88     -3.69
   -9   19    7      1.18     -4.58
   -9   19    6      1.21     -1.08
   -9   19    5     -1.35      1.35
   -9   19    4     -1.07      0.46
   -9   19    3      1.96     -1.62
   -9   19    2     -0.29      0.49
   -9   19    1      1.69      0.33
   -9   19    0      0.89      0.26
   -9   18   10      5.40      0.15
   -9   18    9     -0.19     -1.39
   -9   18    8      0.75      0.01
   -9   18    7      0.12     -2.48
   -9   18    6     -0.09      0.10
   -9   18    5      0.00      1.59
   -9   18    4     -0.26     -0.34
   -9   18    3      0.14     -0.08
   -9   18    2      1.89      0.15
   -9   18    1      0.15     -0.51
   -9   18    0      0.50     -0.33
  -10   23    2     -1.30      1.50
  -10   23    1     -1.08     -1.53
  -10   23    0     -0.49      3.62
  -10   22    5      0.62      6.22
  -10   22    4     -1.80      0.64
  -10   22    3      3.61     -3.03
  -10   22    2     -1.42      1.56
  -10   22    1     -0.44     -3.37
  -10   22    0      1.46      1.56
  -10   21    7     -0.93      0.11
  -10   21    6      0.88      0.28
  -10   21    5      0.24      3.38
  -10   21    4      1.97      2.68
  -10   21    3     -0.28     -0.02
  -10   21    2     -0.67      1.25
  -10   21    1      0.33     -3.65
  -10   21    0      2.80     -1.06
  -10   20    8     -0.23     -0.90
  -10   20    7     -0.02     -5.32
  -10   20    6     -0.54      0.19
  -10   20    5     -0.08      1.14
  -10   20    4      3.91     -0.46
  -10   20    3      0.03     -0.27
  -10   20    2     -1.71     -0.47
  -10   20    1     -0.34      0.05
  -10   20    0      0.35      0.26
  -11   23    2     -0.91      1.92
  -11   23    1      1.14      2.87
  -11   23    0     -2.04      1.88
  -11   22    5     -0.37      6.82
  -11   22    4     -5.68     -0.11
  -11   22    3      0.27     -2.46
  -11   22    2     -0.61     -0.30
  -11   22    1      1.23     -3.07
  -11   22    0     -0.52      0.64
  -11   23    3      2.68     -4.34
   -1   21    0     -1.12      0.13
    0   21    0     -0.43     -1.21
   -4   22    0      0.31     -0.77
   -3   22    0     -0.13     -0.58
   -2   22    0     -1.87     -0.31
   -1   22    0     -0.59     -0.61
    0   22    0     -0.81     -0.52
   -7   23    0     -2.21      0.23
   -6   23    0     -0.87      0.22
   -5   23    0      0.82      0.14
   -4   23    0      0.73      0.65
   -3   23    0     -0.71      0.46
   -2   23    0     -0.07     -0.22
   -1   21    1     -0.36     -2.10
    0   21    1     -2.74      0.86
   -4   22    1     -1.58     -0.72
   -3   22    1     -1.46     -1.15
   -2   22    1      0.71     -1.19
   -1   22    1     -0.90     -0.16
    0   22    1     -1.75      0.61
   -7   23    1     -1.18     -1.92
   -6   23    1     -1.69     -0.79
   -5   23    1     -1.55     -0.65
   -4   23    1     -0.48     -0.48
   -3   23    1      0.39      1.07
   -2   23    1      0.81      0.95
   -1   21    2      2.91     -0.25
    0   21    2      1.60      0.09
   -4   22    2      0.56      0.71
   -3   22    2      0.19     -0.26
   -2   22    2      1.52     -0.55
   -1   22    2      1.07      0.53
    0   22    2      0.21      0.05
   -8   23    2      0.56     -1.22
   -7   23    2      2.65      2.77
   -6   23    2      0.84      3.79
   -5   23    2      0.73      0.52
   -4   23    2      0.42     -0.54
   -3   23    2     -0.60     -0.79
    0   20    3      2.28     -0.14
   -2   21    3     -0.15     -1.40
   -1   21    3      1.64     -0.95
    0   21    3      1.75     -0.18
   -5   22    3      2.14      0.51
   -4   22    3      0.35      0.77
   -3   22    3      0.40      0.01
   -2   22    3      1.51      0.48
   -1   22    3     -0.10     -0.04
  -10   23    3      3.95     -1.01
   -9   23    3      0.90      0.03
   -8   23    3     -0.96     -2.62
   -7   23    3     -0.47     -2.43
   -6   23    3      1.07     -0.21
   -5   23    3      0.61      0.90
   -4   23    3     -0.36      0.26
   -3   23    3      1.24      0.05
    0   20    4     -2.75     -0.40
   -2   21    4     -2.91      0.83
   -1   21    4     -2.22      1.74
    0   21    4     -0.43      0.47
   -6   22    4     -0.56      0.97
   -5   22    4      2.93      2.51
   -4   22    4      1.29      0.94
   -3   22    4     -0.57      0.87
   -2   22    4     -0.48      1.10
   -1   22    4      0.13      0.95
  -11   23    4     -4.61     -1.41
  -10   23    4     -0.56     -2.18
   -9   23    4     -0.32     -1.15
   -8   23    4     -1.67     -1.45
   -7   23    4     -0.91      0.21
   -6   23    4      0.99      0.58
   -5   23    4      1.05     -0.14
   -4   23    4      0.71     -0.31
   -1   20    5     -2.67     -0.44
    0   20    5     -4.99      0.24
   -3   21    5      3.08     -0.67
   -2   21    5      0.11     -0.92
   -1   21    5     -2.82     -0.52
    0   21    5     -2.63     -0.39
   -7   22    5      1.02      0.79
   -6   22    5      1.20      0.06
   -5   22    5      3.09      0.72
   -4   22    5      2.83     -2.08
   -3   22    5      1.00     -1.83
   -2   22    5      0.06      0.30
  -11   23    5      0.80      4.82
  -10   23    5      1.19      2.82
   -9   23    5      1.65      1.20
   -8   23    5      1.70      0.35
   -7   23    5     -0.08     -0.24
   -6   23    5     -0.10      0.97
   -5   23    5      0.45      0.00
   -4   23    5      0.05     -1.54
    0   19    6      1.51     -0.20
   -2   20    6      2.93      2.55
   -1   20    6     -0.71     -0.55
    0   20    6     -1.99     -0.21
   -5   21    6      0.22      2.16
   -4   21    6      1.79     -0.01
   -3   21    6      2.37     -0.33
   -2   21    6      1.24      0.45
   -1   21    6     -0.45     -0.82
  -11   22    6      1.08     -0.01
  -10   22    6      0.60      0.94
   -9   22    6      0.66      0.82
   -8   22    6     -1.36     -0.56
   -7   22    6     -3.53     -0.97
   -6   22    6     -1.57      1.61
   -5   22    6      1.14      1.64
   -4   22    6     -0.05     -0.95
   -3   22    6     -0.30     -0.88
  -11   23    6      0.37      0.59
  -10   23    6     -0.65      0.99
   -9   23    6      0.19      0.74
   -8   23    6     -0.04      0.70
   -7   23    6     -0.86      0.60
   -6   23    6      0.20      0.77
   -1   19    7      0.51     -1.71
    0   19    7     -0.64      0.30
   -3   20    7     -5.35      1.07
   -2   20    7     -0.02      0.40
   -1   20    7      0.30     -0.21
    0   20    7     -2.76      0.23
   -7   21    7     -1.04      4.02
   -6   21    7     -0.67      1.42
   -5   21    7      1.28      0.96
   -4   21    7     -1.03      1.78
   -3   21    7     -0.80      1.50
   -2   21    7      0.99     -0.13
  -11   22    7      0.14      0.75
  -10   22    7     -1.43      0.21
   -9   22    7      0.57      0.88
   -8   22    7      1.47      1.90
   -7   22    7      0.21      0.53
   -6   22    7      0.03      0.81
   -5   22    7      0.52      1.77
   -4   22    7      0.88      1.17
  -11   23    7     -0.54     -0.52
  -10   23    7     -0.59     -0.98
   -9   23    7     -0.20     -0.63
   -8   23    7      0.32     -0.94
   -7   23    7      0.11     -1.20
    0   18    8      0.07     -0.07
   -2   19    8      0.74      3.87
   -1   19    8     -1.08      1.00
    0   19    8     -2.35      0.48
   -6   20    8     -0.29      0.07
   -5   20    8      1.18      0.62
   -4   20    8     -0.62      0.50
   -3   20    8     -0.64      1.47
   -2   20    8     -0.62      0.87
   -1   20    8     -1.34      0.07
  -10   21    8     -0.97     -1.16
   -9   21    8     -2.59     -0.77
   -8   21    8     -1.69     -0.94
   -7   21    8      1.67     -0.98
   -6   21    8      1.16      0.66
   -5   21    8     -1.33      0.73
   -4   21    8     -0.17     -0.44
   -3   21    8      1.12     -0.17
  -11   22    8      0.30     -0.10
  -10   22    8     -0.99      0.98
   -9   22    8     -2.29      1.15
   -8   22    8      0.07      0.71
   -7   22    8      1.08     -0.05
   -6   22    8      0.03      0.24
    0   17    9     -3.08     -0.38
   -2   18    9      0.42     -1.40
   -1   18    9     -1.59     -2.02
    0   18    9     -0.55      0.32
   -5   19    9     -0.90      0.11
   -4   19    9     -0.83      0.07
   -3   19    9      0.65      0.67
   -2   19    9     -0.62     -0.09
   -1   19    9     -0.09     -0.10
    0   19    9      1.26      0.14
  -10   20    9     -0.08      4.96
   -9   20    9     -0.93      5.19
   -8   20    9     -2.20      0.80
   -7   20    9     -0.66     -1.34
   -6   20    9      0.48      0.09
   -5   20    9      0.29      1.33
   -4   20    9      0.68      0.91
   -3   20    9     -0.11      0.13
   -2   20    9     -0.49     -0.15
  -10   21    9      0.16     -0.65
   -9   21    9     -1.41      0.33
   -8   21    9     -1.70     -0.52
   -7   21    9      0.74     -0.89
   -6   21    9      1.87     -0.37
   -5   21    9      0.69      0.17
  -11   22    9      0.07     -2.85
  -10   22    9      0.18     -1.59
   -9   22    9     -0.08     -0.74
   -1   17   10     -0.18     -1.04
    0   17   10     -1.33     -0.21
   -4   18   10      0.32     -1.08
   -3   18   10      2.54     -1.35
   -2   18   10      1.40     -0.46
   -1   18   10     -0.31     -0.28
    0   18   10      0.16      0.00
   -9   19   10      0.55      1.85
   -8   19   10     -0.55     -0.95
   -7   19   10     -0.19     -1.15
   -6   19   10      0.15      1.42
   -5   19   10     -1.11      0.90
   -4   19   10      0.15     -0.10
   -3   19   10      0.28      0.60
   -2   19   10     -0.07      0.42
  -10   20   10     -0.03      0.06
   -9   20   10     -0.44      1.17
   -8   20   10     -1.20     -1.21
   -7   20   10      0.14     -1.18
   -6   20   10     -0.16     -0.65
   -5   20   10     -0.18      0.46
   -4   20   10      0.44      0.88
  -10   21   10      0.60      0.73
   -9   21   10     -0.28     -0.62
   -8   21   10     -0.11     -0.62
   -1   16   11     -1.54      2.91
    0   16   11     -3.39     -0.55
   -5   17   11     -2.67     -0.47
   -4   17   11     -1.86     -0.84
   -3   17   11      0.88      0.36
   -2   17   11      0.56      1.41
   -1   17   11     -0.94      0.01
    0   17   11      0.24      0.09
   -9   18   11     -0.39     -0.16
   -8   18   11      1.58     -1.18
   -7   18   11     -1.29      0.49
   -6   18   11     -1.39      0.14
   -5   18   11     -0.41     -0.96
   -4   18   11      1.02     -0.59
   -3   18   11      1.39     -0.35
   -2   18   11      0.19     -0.57
   -1   18   11     -0.64     -0.25
   -9   19   11      0.53      0.95
   -8   19   11     -1.13     -0.12
   -7   19   11     -0.59      0.46
   -6   19   11      0.54     -0.71
   -5   19   11      1.02     -0.57
   -4   19   11      1.08      0.03
  -10   20   11      0.15      0.39
   -9   20   11      0.53     -0.83
   -8   20   11     -0.72      0.56
   -7   20   11     -0.20      0.84
    0   14   12      2.56      0.05
   -2   15   12     -1.13     -3.91
   -1   15   12      2.52     -0.61
    0   15   12      1.28      0.04
   -6   16   12      0.67      0.79
   -5   16   12      0.73     -0.68
   -4   16   12     -2.44      1.53
   -3   16   12     -2.26     -1.45
   -2   16   12      0.50     -0.82
   -1   16   12     -0.72      0.56
    0   16   12     -1.00      0.25
   -8   17   12     -2.76     -0.55
   -7   17   12     -1.11      0.32
   -6   17   12      1.81     -0.56
   -5   17   12      0.33      0.44
   -4   17   12     -1.92      1.66
   -3   17   12     -0.22      0.68
   -2   17   12     -0.52      0.36
   -1   17   12     -1.31     -0.24
   -9   18   12      0.60     -0.17
   -8   18   12     -0.20      0.59
   -7   18   12      0.75      0.42
   -6   18   12      0.46     -1.26
   -5   18   12     -0.17      0.12
   -4   18   12     -0.17      0.94
   -9   19   12      1.10      0.09
   -8   19   12     -0.67      0.58
   -1   13   13      2.11     -0.11
    0   13   13      1.96     -0.32
   -4   14   13     -1.89      0.71
   -3   14   13     -1.92     -0.67
   -2   14   13      1.22     -0.11
   -1   14   13      0.65      1.30
    0   14   13     -0.72      0.11
   -7   15   13     -0.50      0.13
   -6   15   13     -0.34      1.17
   -5   15   13      0.07      0.88
   -4   15   13     -0.24      0.89
   -3   15   13     -0.83     -1.02
   -2   15   13     -0.31      0.39
   -1   15   13     -0.58      0.81
    0   15   13     -0.29      0.24
   -8   16   13     -0.08     -1.07
   -7   16   13     -1.60      0.22
   -6   16   13     -0.02     -0.75
   -5   16   13      0.91     -0.10
   -4   16   13     -0.85     -0.30
   -3   16   13     -0.08     -1.13
   -2   16   13      0.50     -0.29
   -8   17   13     -0.18     -0.02
   -7   17   13     -0.64     -0.61
   -6   17   13     -0.74     -1.47
   -5   17   13      0.11     -0.04
   -4   17   13     -0.06     -0.56
    0   11   14     -2.36     -0.42
   -3   12   14     -0.09     -1.70
   -2   12   14      0.01     -1.62
   -1   12   14     -1.27      0.10
    0   12   14     -0.27      0.12
   -6   13   14      3.12     -1.13
   -5   13   14      0.87     -1.66
   -4   13   14     -0.09      0.24
   -3   13   14      0.24     -0.09
   -2   13   14     -0.90      0.39
   -1   13   14     -1.09      0.81
    0   13   14      1.31      0.20
   -7   14   14      0.77     -0.19
   -6   14   14     -0.13      0.43
   -5   14   14      0.05      0.28
   -4   14   14      1.16      0.44
   -3   14   14     -0.22      0.06
   -2   14   14     -1.66      0.53
   -1   14   14      0.40      0.06
    0   14   14      1.05     -0.18
   -7   15   14     -1.35      1.26
   -6   15   14     -0.81     -0.06
   -5   15   14      0.09     -0.66
   -4   15   14      0.60     -0.29
   -3   15   14      0.26      0.35
   -8   16   14      0.72      0.24
   -7   16   14     -0.61     -0.07
   -6   16   14     -0.82     -0.52
   -1    9   15     -2.81      1.27
    0    9   15     -0.91      0.07
   -5   10   15     -0.18     -0.47
   -4   10   15      2.27     -1.90
   -3   10   15      0.95     -0.55
   -2   10   15     -1.59      1.34
   -1   10   15     -0.10     -0.39
    0   10   15      0.96     -0.45
   -5   11   15     -0.21     -1.08
   -4   11   15      1.23     -0.28
   -3   11   15      0.93      1.43
   -2   11   15      0.73      0.07
   -1   11   15      1.56     -0.92
    0   11   15      0.19     -0.05
   -6   12   15     -0.16      0.51
   -5   12   15     -0.22     -0.48
   -4   12   15      0.16     -0.01
   -3   12   15      0.49     -0.48
   -2   12   15      0.41     -0.69
   -1   12   15     -1.13     -0.13
    0   12   15     -1.10      0.17
   -6   13   15     -0.96      2.30
   -5   13   15     -0.61     -0.58
   -4   13   15     -0.30     -0.62
   -3   13   15     -0.70     -0.09
   -2   13   15     -0.60      0.38
   -7   14   15      0.05      1.52
   -6   14   15     -0.52      0.15
   -5   14   15     -0.54      0.00
    0    5   16     -1.21     -0.05
   -3    6   16      4.45     -0.38
   -2    6   16      2.93     -0.73
   -1    6   16      0.65      2.37
    0    6   16     -0.19      0.32
   -3    7   16      0.11     -0.87
   -2    7   16     -0.48      1.18
   -1    7   16      0.01      2.40
    0    7   16      0.73     -0.37
   -4    8   16     -0.88     -0.20
   -3    8   16     -0.52     -1.80
   -2    8   16     -1.17     -0.15
   -1    8   16     -1.32     -0.34
    0    8   16      0.19     -0.24
   -4    9   16      0.17     -1.18
   -3    9   16     -0.14     -1.20
   -2    9   16      0.22     -0.57
   -1    9   16      0.36     -0.54
    0    9   16     -0.22      0.26
   -5   10   16      0.13     -0.08
   -4   10   16      0.48      0.02
   -3   10   16      0.79      0.66
   -2   10   16      0.79      0.54
   -1   10   16      0.38      0.43
    0   10   16     -0.86     -0.02
   -5   11   16      0.73      0.29
   -4   11   16     -0.30      1.25
   -3   11   16     -0.24      1.31
   -2   11   16      0.35      0.13
    0    0    0      0.00      0.00
# SQUEEZE RESULTS (Version =  71116)
# Note: Data are Listed for all Voids in the P1 Unit Cell
# i.e. Centre of Gravity, Solvent Accessible Volume,
# Recovered number of Electrons in the Void and
# Details about the Squeezed Material
loop_
  _platon_squeeze_void_nr
  _platon_squeeze_void_average_x
  _platon_squeeze_void_average_y
  _platon_squeeze_void_average_z
  _platon_squeeze_void_volume
  _platon_squeeze_void_count_electrons
  _platon_squeeze_void_content
   1  0.000  0.000 -0.013      2203       853 ' '
   2  0.667  0.333  0.250        18         0 ' '
   3  0.333  0.667  0.750        18         0 ' '
_platon_squeeze_void_probe_radius                  1.20
_platon_squeeze_details
 Some residual electron densities, which should be considered 
 as peaks from heavily disordered solvent molecules and 
 counterions, did not give a chemical meaningful result after 
 a careful refinement. Therefore, the contributions of the 
 disordered solvent molecules and counterions were removed 
 from the diffraction data using the SQUEEZE routine of PLATON 
 software and then final refinements were carried out. The 
 final platon.sqf file was attached to the CIF file and the 
 electron numbers in the void obtained from the platon.sqf 
 file has been used to calculate the guest solvent molecules 
 crystallizing in the pore.These molecules are further 
 estimated by TGA analysis combining with element analysis, 
 which showed that there are 4 NO3- anions and 12 free water 
 molecules in the unit cell. Since these anions and solvent 
 moleculars are absent from the model, the calculated 
 molecular formula would be incorrect.Finally,the results 
 were introduced to the formula unit directly which 
 consequently generates significant A-level and B-level 
 errors (e.g. density, chemical formula, density) in the 
 final CIF output.
)
TITL OO in P6(3)22
CELL   19.6130   19.6130   13.8490     90.00     90.00    120.00
SPGR P6322
# Solvent Accessible Volume =      2238
# Electrons Found in S.A.V. =       851
# Note: Atoms in Void as Cxxx and Qxxx all others
C101 0.315 0.158 0.204 !       1.45 eA-3
C102 0.148 0.959 0.112 !       1.36 eA-3
C103 0.165 0.075 0.706 !       1.33 eA-3
C104 0.933 0.874 0.849 !       1.30 eA-3
C105 0.893 0.236 0.406 !       1.30 eA-3
C106 0.153 0.015 0.843 !       1.28 eA-3
C107 0.905 0.874 0.777 !       1.25 eA-3
C108 0.847 0.205 0.260 !       1.25 eA-3
C109 0.864 0.029 0.008 !       1.24 eA-3
C110 0.716 0.861 0.749 !       1.20 eA-3
C111 0.343 0.205 0.139 !       1.19 eA-3
C112 0.968 0.858 0.824 !       1.16 eA-3
C113 0.860 0.157 0.389 !       1.15 eA-3
C114 0.705 0.843 0.883 !       1.15 eA-3
C115 0.143 0.894 0.920 !       1.14 eA-3
C116 0.965 0.170 0.125 !       1.13 eA-3
C117 0.229 0.203 0.595 !       1.12 eA-3
C118 1.001 1.002 0.446 !       1.10 eA-3
C119 0.108 0.199 0.245 !       1.10 eA-3
C120 0.902 0.925 0.723 !       1.10 eA-3
C121 0.994 0.971 0.534 !       1.09 eA-3
C122 0.158 0.203 0.708 !       1.09 eA-3
C123 0.903 0.894 0.517 !       1.08 eA-3
C124 0.173 0.123 0.758 !       1.08 eA-3
C125 0.939 0.014 0.472 !       1.06 eA-3
C126 0.237 0.161-0.005 !       1.04 eA-3
C127 0.022 0.126 0.110 !       1.04 eA-3
C128 0.151 0.229 1.003 !       1.04 eA-3
C129 0.970 0.969 0.655 !       1.03 eA-3
C130 0.128 0.939 0.059 !       1.02 eA-3
C131 0.915 0.766 0.547 !       1.01 eA-3
C132 0.133 0.827 0.924 !       1.01 eA-3
C133 0.098 0.065 0.778 !       1.01 eA-3
Q134 0.966 0.687 0.109 !       1.01 eA-3
C135 0.219 0.014 0.926 !       1.01 eA-3
C136 0.033 0.954 0.825 !       1.00 eA-3
C137 0.795 0.967 0.316 !       1.00 eA-3
C138 0.997 0.968 0.602 !       1.00 eA-3
C139 0.023 0.984 0.746 !       0.99 eA-3
C140 0.877 0.893 0.838 !       0.99 eA-3
C141 0.217 0.235 0.567 !       0.99 eA-3
Q142 0.954 0.251 0.045 !       0.98 eA-3
C143 0.797 0.187 0.266 !       0.98 eA-3
C144 0.723 0.890 0.668 !       0.98 eA-3
C145 0.111 0.972 0.850 !       0.98 eA-3
C146 0.923 0.919 0.167 !       0.98 eA-3
C147 0.922 0.045 0.048 !       0.97 eA-3
C148 0.718 0.814 0.629 !       0.97 eA-3
C149 0.126 0.141 0.877 !       0.97 eA-3
C150 0.737 0.139 0.092 !       0.96 eA-3
C151 0.919 0.969 0.825 !       0.96 eA-3
C152 0.773 0.162 0.134 !       0.96 eA-3
C153 0.830 0.780 0.045 !       0.95 eA-3
C154 0.024 0.944 0.015 !       0.95 eA-3
C155 0.220 0.997 0.003 !       0.95 eA-3
C156 0.936 0.935 0.342 !       0.95 eA-3
C157 0.862 0.267 0.403 !       0.94 eA-3
C158 0.198 0.937 0.829 !       0.94 eA-3
C159 0.158 0.768 0.848 !       0.94 eA-3
Q160 0.139 0.875 0.444 !       0.94 eA-3
C161 0.595 0.731 0.594 !       0.93 eA-3
C162 0.722 0.847 0.563 !       0.93 eA-3
C163 0.917 0.773 1.004 !       0.93 eA-3
Q164 0.780 0.890 0.382 !       0.92 eA-3
C165 0.123 0.236 0.621 !       0.92 eA-3
C166 0.941 0.935 0.196 !       0.91 eA-3
C167 0.236 0.192 0.045 !       0.91 eA-3
C168 0.264 0.129 0.346 !       0.91 eA-3
C169 0.809 0.016 0.077 !       0.91 eA-3
C170 0.170 0.165 0.437 !       0.91 eA-3
C171 0.968 0.908 0.593 !       0.91 eA-3
C172 0.905 0.061 0.986 !       0.90 eA-3
C173 0.149 0.810 0.940 !       0.89 eA-3
C174 0.922 0.241 0.342 !       0.89 eA-3
C175 0.029 0.812 0.501 !       0.89 eA-3
C176 0.190 0.124 0.056 !       0.89 eA-3
C177 0.062 0.943 0.960 !       0.88 eA-3
Q178 0.052 0.218 0.447 !       0.88 eA-3
C179 0.032 0.863 0.483 !       0.87 eA-3
C180 0.020 0.156 0.437 !       0.85 eA-3
C181 0.622 0.873 0.939 !       0.84 eA-3
Q182 0.821 0.733 0.894 !       0.84 eA-3
C183 0.747 0.827 0.855 !       0.84 eA-3
C184 0.177 0.423 0.694 !       0.84 eA-3
Q185 0.992 0.749 0.953 !       0.84 eA-3
C186 0.088 0.891 0.997 !       0.84 eA-3
C187 0.097 0.795 0.786 !       0.84 eA-3
C188 0.013 0.109 0.610 !       0.83 eA-3
C189 0.726 0.829 0.015 !       0.82 eA-3
C190 0.137 0.111 0.288 !       0.81 eA-3
C191 0.243 0.424 0.777 !       0.80 eA-3
C192 0.910 0.160 0.414 !       0.80 eA-3
C193 0.821 0.080 0.212 !       0.80 eA-3
Q194 0.067 0.216 0.326 !       0.79 eA-3
C195 0.105 0.201 0.043 !       0.79 eA-3
Q196 0.752 0.782 0.368 !       0.78 eA-3
C197 0.842 0.825 0.225 !       0.78 eA-3
Q198 0.248 0.330 0.764 !       0.78 eA-3
C199 0.577 0.808 0.799 !       0.78 eA-3
)
;
_shelx_fab_checksum              94467
loop_
_space_group_symop_operation_xyz
'x, y, z'
'-x, -y, z+1/2'
'-y, x-y, z'
'-x+y, -x, z'
'x-y, x, z+1/2'
'y, -x+y, z+1/2'
'x-y, -y, -z'
'-x, -x+y, -z'
'y, x, -z'
'-y, -x, -z+1/2'
'x, x-y, -z+1/2'
'-x+y, y, -z+1/2'
loop_
_atom_site_label
_atom_site_type_symbol
_atom_site_fract_x
_atom_site_fract_y
_atom_site_fract_z
_atom_site_U_iso_or_equiv
_atom_site_adp_type
_atom_site_occupancy
_atom_site_site_symmetry_order
_atom_site_calc_flag
_atom_site_refinement_flags_posn
_atom_site_refinement_flags_adp
_atom_site_refinement_flags_occupancy
Cu1 Cu 0.666667 0.333333 0.60127(12) 0.0632(5) Uani 1 3 d S T P
Cu2 Cu 0.52268(9) 0.26134(4) 0.750000 0.0662(5) Uani 1 2 d S T P
Cu3 Cu 0.46153(12) 0.000000 0.500000 0.0990(8) Uani 1 2 d S T P
N1 N 0.5919(5) 0.2202(5) 0.6002(5) 0.072(2) Uani 1 1 d . . .
N2 N 0.5258(5) 0.1920(4) 0.6607(5) 0.067(2) Uani 1 1 d . . .
C2 C 0.5797(9) 0.1629(6) 0.5442(6) 0.081(3) Uani 1 1 d . . .
N3 N 0.5074(5) 0.0946(5) 0.5645(6) 0.081(2) Uani 1 1 d . . .
C1 C 0.4794(7) 0.1184(6) 0.6371(7) 0.079(3) Uani 1 1 d . . .
C4 C 0.4010(9) 0.0602(9) 0.6724(11) 0.186(8) Uani 1 1 d D U .
H13 H 0.373767 0.023820 0.619029 0.223 Uiso 1 1 calc R U .
C3 C 0.6341(10) 0.1679(10) 0.4742(8) 0.149(6) Uani 1 1 d D U .
H15 H 0.676585 0.222058 0.485021 0.179 Uiso 1 1 calc R U .
O1 O 0.3973(9) 0.0139(10) 0.7532(13) 0.307(9) Uani 1 1 d D U .
H1 H 0.430167 0.000054 0.747107 0.461 Uiso 1 1 calc R U .
C6 C 0.3543(11) 0.1007(11) 0.696(2) 0.318(11) Uani 1 1 d D U .
H4A H 0.303040 0.062461 0.719377 0.477 Uiso 1 1 calc R U .
H4B H 0.381346 0.139769 0.745268 0.477 Uiso 1 1 calc R U .
H4C H 0.348955 0.125558 0.639308 0.477 Uiso 1 1 calc R U .
C5 C 0.6148(12) 0.1735(12) 0.3693(9) 0.207(9) Uani 1 1 d D U .
H3A H 0.656003 0.176597 0.328740 0.311 Uiso 1 1 calc R U .
H3B H 0.565865 0.127669 0.352453 0.311 Uiso 1 1 calc R U .
H3C H 0.610528 0.219723 0.360404 0.311 Uiso 1 1 calc R U .
O2 O 0.6774(10) 0.1277(11) 0.4778(10) 0.275(7) Uani 1 1 d D U .
H2 H 0.652044 0.084670 0.451580 0.412 Uiso 1 1 calc R U .
loop_
_atom_site_aniso_label
_atom_site_aniso_U_11
_atom_site_aniso_U_22
_atom_site_aniso_U_33
_atom_site_aniso_U_23
_atom_site_aniso_U_13
_atom_site_aniso_U_12
Cu1 0.0676(7) 0.0676(7) 0.0543(10) 0.000 0.000 0.0338(3)
Cu2 0.0721(9) 0.0692(7) 0.0582(9) -0.0142(9) 0.000 0.0360(5)
Cu3 0.1271(14) 0.0713(11) 0.0801(12) -0.0309(11) -0.0155(5) 0.0356(6)
N1 0.082(6) 0.066(4) 0.061(4) -0.016(4) 0.004(4) 0.032(4)
N2 0.069(5) 0.061(5) 0.059(5) -0.011(4) -0.001(4) 0.023(4)
C2 0.122(11) 0.082(6) 0.063(5) -0.015(5) -0.019(8) 0.069(9)
N3 0.087(6) 0.083(6) 0.064(5) -0.016(4) -0.003(4) 0.034(5)
C1 0.081(7) 0.067(7) 0.066(6) -0.008(5) 0.002(6) 0.020(6)
C4 0.110(10) 0.175(14) 0.226(15) 0.121(12) 0.049(11) 0.036(9)
C3 0.216(15) 0.189(15) 0.097(8) -0.002(10) 0.058(10) 0.142(12)
O1 0.227(13) 0.314(18) 0.320(18) 0.213(16) 0.046(15) 0.090(13)
C6 0.203(18) 0.35(2) 0.41(3) 0.14(2) 0.08(2) 0.147(15)
C5 0.25(2) 0.30(2) 0.112(9) 0.019(15) 0.044(12) 0.165(17)
O2 0.315(17) 0.380(19) 0.253(14) -0.017(16) 0.036(14) 0.267(15)
loop_
_atom_type_symbol
_atom_type_description
_atom_type_scat_dispersion_real
_atom_type_scat_dispersion_imag
_atom_type_scat_source
C C 0.0033 0.0016 'International Tables Vol C Tables 4.2.6.8 and 6.1.1.4'
N N 0.0061 0.0033 'International Tables Vol C Tables 4.2.6.8 and 6.1.1.4'
Cu Cu 0.3201 1.2651 'International Tables Vol C Tables 4.2.6.8 and 6.1.1.4'
O O 0.0106 0.0060 'International Tables Vol C Tables 4.2.6.8 and 6.1.1.4'
H H 0.0000 0.0000 'International Tables Vol C Tables 4.2.6.8 and 6.1.1.4'
loop_
_geom_angle_atom_site_label_1
_geom_angle_atom_site_label_2
_geom_angle_atom_site_label_3
_geom_angle
_geom_angle_site_symmetry_1
_geom_angle_site_symmetry_3
N1 Cu1 N1 119.996(7) 3_655 .
N1 Cu1 N1 119.993(9) 3_655 4_665
N1 Cu1 N1 119.994(8) . 4_665
N2 Cu2 N2 176.7(5) 11_556 .
N3 Cu3 N3 178.2(6) . 7_556
C2 N1 N2 106.5(9) . .
C2 N1 Cu1 134.7(8) . .
N2 N1 Cu1 117.7(5) . .
C1 N2 N1 106.5(7) . .
C1 N2 Cu2 135.5(7) . .
N1 N2 Cu2 118.0(6) . .
N1 C2 N3 111.6(10) . .
N1 C2 C3 123.5(13) . .
N3 C2 C3 124.9(11) . .
C1 N3 C2 102.4(8) . .
C1 N3 Cu3 129.7(8) . .
C2 N3 Cu3 127.8(7) . .
N2 C1 N3 113.1(9) . .
N2 C1 C4 131.1(11) . .
N3 C1 C4 115.7(11) . .
C1 C4 O1 117.4(14) . .
C1 C4 C6 109.7(13) . .
O1 C4 C6 108.12(14) . .
C1 C4 H13 107.1 . .
O1 C4 H13 107.1 . .
C6 C4 H13 107.1 . .
C2 C3 O2 125.4(12) . .
C2 C3 C5 117.2(12) . .
O2 C3 C5 108.21(14) . .
C2 C3 H15 100.1 . .
O2 C3 H15 100.1 . .
C5 C3 H15 100.1 . .
C4 O1 H1 109.5 . .
C4 C6 H4A 109.5 . .
C4 C6 H4B 109.5 . .
H4A C6 H4B 109.5 . .
C4 C6 H4C 109.5 . .
H4A C6 H4C 109.5 . .
H4B C6 H4C 109.5 . .
C3 C5 H3A 109.5 . .
C3 C5 H3B 109.5 . .
H3A C5 H3B 109.5 . .
C3 C5 H3C 109.5 . .
H3A C5 H3C 109.5 . .
H3B C5 H3C 109.5 . .
C3 O2 H2 109.5 . .
loop_
_geom_bond_atom_site_label_1
_geom_bond_atom_site_label_2
_geom_bond_distance
_geom_bond_site_symmetry_2
Cu1 N1 1.954(8) 3_655
Cu1 N1 1.955(8) .
Cu1 N1 1.955(8) 4_665
Cu2 N2 1.863(7) 11_556
Cu2 N2 1.863(7) .
Cu3 N3 1.839(8) .
Cu3 N3 1.839(8) 7_556
N1 C2 1.287(11) .
N1 N2 1.403(11) .
N2 C1 1.306(12) .
C2 N3 1.409(14) .
C2 C3 1.407(17) .
N3 C1 1.335(13) .
C1 C4 1.465(16) .
C4 O1 1.4200(14) .
C4 C6 1.5195(14) .
C4 H13 0.9800 .
C3 O2 1.4193(14) .
C3 C5 1.5187(14) .
C3 H15 0.9800 .
O1 H1 0.8200 .
C6 H4A 0.9600 .
C6 H4B 0.9600 .
C6 H4C 0.9600 .
C5 H3A 0.9600 .
C5 H3B 0.9600 .
C5 H3C 0.9600 .
O2 H2 0.8200 .
loop_
_geom_torsion_atom_site_label_1
_geom_torsion_atom_site_label_2
_geom_torsion_atom_site_label_3
_geom_torsion_atom_site_label_4
_geom_torsion
C2 N1 N2 C1 1.3(10)
Cu1 N1 N2 C1 170.6(7)
C2 N1 N2 Cu2 -178.6(7)
Cu1 N1 N2 Cu2 -9.2(9)
N2 N1 C2 N3 -0.8(12)
Cu1 N1 C2 N3 -167.5(7)
N2 N1 C2 C3 -178.6(10)
Cu1 N1 C2 C3 14.7(18)
N1 C2 N3 C1 0.0(13)
C3 C2 N3 C1 177.8(11)
N1 C2 N3 Cu3 176.1(8)
C3 C2 N3 Cu3 -6.1(17)
N1 N2 C1 N3 -1.3(12)
Cu2 N2 C1 N3 178.5(8)
N1 N2 C1 C4 -177.1(12)
Cu2 N2 C1 C4 3(2)
C2 N3 C1 N2 0.8(13)
Cu3 N3 C1 N2 -175.1(8)
C2 N3 C1 C4 177.3(10)
Cu3 N3 C1 C4 1.3(16)
N2 C1 C4 O1 -89.4(18)
N3 C1 C4 O1 95.0(17)
N2 C1 C4 C6 35(2)
N3 C1 C4 C6 -141.1(14)
N1 C2 C3 O2 111.1(17)
N3 C2 C3 O2 -66(2)
N1 C2 C3 C5 -106.1(17)
N3 C2 C3 C5 76.4(18)
