#------------------------------------------------------------------------------
#$Date: 2017-02-04 15:25:49 +0200 (Sat, 04 Feb 2017) $
#$Revision: 191487 $
#$URL: file:///home/coder/svn-repositories/cod/cif/7/11/92/7119276.cif $
#------------------------------------------------------------------------------
#
# This file is available in the Crystallography Open Database (COD),
# http://www.crystallography.net/
#
# All data on this site have been placed in the public domain by the
# contributors.
#
data_7119276
loop_
_publ_author_name
'Song, Bai-Qiao'
'Chen, Da-Qin'
'Ji, Zhenguo'
'Tang, Junhong'
'Wang, Xin-Long'
'Zang, Hong-Ying'
'Su, Zhong-Min'
_publ_section_title
;
 Control of bulk homochirality and proton conductivity in isostructural
 chiral metal-organic frameworks.
;
_journal_issue                   11
_journal_name_full
'Chemical communications (Cambridge, England)'
_journal_page_first              1892
_journal_page_last               1895
_journal_paper_doi               10.1039/c6cc07729c
_journal_volume                  53
_journal_year                    2017
_chemical_absolute_configuration 'chiral topology'
_chemical_formula_sum            'C24 H48 Cu4 N10 O6'
_chemical_formula_weight         826.88
_space_group_crystal_system      hexagonal
_space_group_IT_number           182
_space_group_name_Hall           'P 6c 2c'
_space_group_name_H-M_alt        'P 63 2 2'
_symmetry_space_group_name_Hall  'P 6c 2c'
_symmetry_space_group_name_H-M   'P 63 2 2'
_atom_sites_solution_hydrogens   geom
_atom_sites_solution_primary     direct
_atom_sites_solution_secondary   difmap
_audit_creation_method           SHELXL-2016/6
_audit_update_record
;
2016-12-22 deposited with the CCDC.
2017-01-03 downloaded from the CCDC.
;
_cell_angle_alpha                90
_cell_angle_beta                 90
_cell_angle_gamma                120
_cell_formula_units_Z            4
_cell_length_a                   19.593(4)
_cell_length_b                   19.593(4)
_cell_length_c                   13.927(3)
_cell_measurement_reflns_used    3777
_cell_measurement_temperature    100(2)
_cell_measurement_theta_max      37.019
_cell_measurement_theta_min      4.801
_cell_volume                     4630.1(17)
_computing_cell_refinement       SMART
_computing_data_collection       'SMART (Bruker, 1997)'
_computing_data_reduction        'SAINT (Bruker, 1999)'
_computing_molecular_graphics    'Diamond (Brandenburg and Putz, 2008)'
_computing_publication_material  'SHELXL-2016/6 (Sheldrick, 2016)'
_computing_structure_refinement  'SHELXL-2016/6 (Sheldrick, 2016)'
_computing_structure_solution    'SHELXS-2016/6 (Sheldrick, 2016)'
_diffrn_ambient_temperature      100(2)
_diffrn_measured_fraction_theta_full 0.998
_diffrn_measured_fraction_theta_max 0.998
_diffrn_measurement_device_type  'Bruker APEX CCD area-detector'
_diffrn_measurement_method       '\w scans'
_diffrn_radiation_type           MoK\a
_diffrn_radiation_wavelength     0.71073
_diffrn_reflns_av_R_equivalents  0.0737
_diffrn_reflns_av_unetI/netI     0.0396
_diffrn_reflns_Laue_measured_fraction_full 0.998
_diffrn_reflns_Laue_measured_fraction_max 0.998
_diffrn_reflns_limit_h_max       23
_diffrn_reflns_limit_h_min       -23
_diffrn_reflns_limit_k_max       23
_diffrn_reflns_limit_k_min       -20
_diffrn_reflns_limit_l_max       16
_diffrn_reflns_limit_l_min       -16
_diffrn_reflns_number            27090
_diffrn_reflns_point_group_measured_fraction_full 0.998
_diffrn_reflns_point_group_measured_fraction_max 0.998
_diffrn_reflns_theta_full        25.103
_diffrn_reflns_theta_max         25.103
_diffrn_reflns_theta_min         1.892
_diffrn_source                   'fine-focus sealed tube'
_exptl_absorpt_coefficient_mu    1.850
_exptl_absorpt_correction_T_max  0.7321
_exptl_absorpt_correction_T_min  0.6650
_exptl_absorpt_correction_type   multi-scan
_exptl_crystal_colour            colorless
_exptl_crystal_density_diffrn    1.186
_exptl_crystal_description       block
_exptl_crystal_F_000             1704
_exptl_crystal_size_max          0.240
_exptl_crystal_size_mid          0.180
_exptl_crystal_size_min          0.180
_refine_diff_density_max         0.467
_refine_diff_density_min         -0.427
_refine_diff_density_rms         0.067
_refine_ls_abs_structure_details
;
 Flack x determined using 650 quotients [(I+)-(I-)]/[(I+)+(I-)]
 (Parsons, Flack and Wagner, Acta Cryst. B69 (2013) 249-259).
;
_refine_ls_abs_structure_Flack   0.046(18)
_refine_ls_extinction_method     none
_refine_ls_goodness_of_fit_ref   1.006
_refine_ls_hydrogen_treatment    constr
_refine_ls_matrix_type           full
_refine_ls_number_parameters     113
_refine_ls_number_reflns         2774
_refine_ls_number_restraints     48
_refine_ls_restrained_S_all      1.025
_refine_ls_R_factor_all          0.0737
_refine_ls_R_factor_gt           0.0482
_refine_ls_shift/su_max          0.001
_refine_ls_shift/su_mean         0.000
_refine_ls_structure_factor_coef Fsqd
_refine_ls_weighting_details
'w=1/[\s^2^(Fo^2^)+(0.0901P)^2^] where P=(Fo^2^+2Fc^2^)/3'
_refine_ls_weighting_scheme      calc
_refine_ls_wR_factor_gt          0.1264
_refine_ls_wR_factor_ref         0.1416
_reflns_Friedel_coverage         0.677
_reflns_Friedel_fraction_full    0.998
_reflns_Friedel_fraction_max     0.998
_reflns_number_gt                1962
_reflns_number_total             2774
_reflns_threshold_expression     'I > 2\s(I)'
_cod_data_source_file            c6cc07729c2.cif
_cod_data_source_block           1M
_cod_depositor_comments
'Adding full bibliography for 7119274--7119277.cif.'
_cod_original_cell_volume        4630(2)
_cod_database_code               7119276
_shelx_shelxl_version_number     2016/6
_shelx_space_group_comment
;
The symmetry employed for this shelxl refinement is uniquely defined
by the following loop, which should always be used as a source of
symmetry information in preference to the above space-group names.
They are only intended as comments.
;
_shelx_estimated_absorpt_t_min   0.665
_shelx_estimated_absorpt_t_max   0.732
_shelx_res_file
;
TITL OO in P6(3)22
    oo.res
    created by SHELXL-2016/6 at 10:55:50 on 22-Dec-2016
CELL  0.71073  19.5930  19.5930  13.9270   90.000   90.000  120.000
ZERR    4.00   0.0037   0.0037   0.0031    0.000    0.000    0.000
LATT  -1
SYMM  - X, - Y, 1/2 + Z
SYMM  - Y,   X - Y,   Z
SYMM  - X + Y, - X,   Z
SYMM    X - Y,   X, 1/2 + Z
SYMM    Y, - X + Y, 1/2 + Z
SYMM    X - Y, - Y, - Z
SYMM  - X, - X + Y, - Z
SYMM    Y,   X, - Z
SYMM  - Y, - X, 1/2 - Z
SYMM    X,   X - Y, 1/2 - Z
SYMM  - X + Y,   Y, 1/2 - Z
SFAC  C    N    CU   H    O
UNIT  96   40   16   192  24
MERG   2
SIMU 0.01 0.03 3.8 C3 C7 C8
DELU 0.01 0.03  C3 C7 C8
SIMU 0.01 0.03 3.8 C4 C6 C5
DELU 0.01 0.03  C4 C6 C5
DFIX 1.52 0.001 C4 C6 C4 C5 C3 C7 C3 C8
DFIX 2.38 0.001 C7 C8 C5 C6
FMAP   2
PLAN   25
SIZE 0.18 0.18 0.24
OMIT 0 1 0
OMIT -1 4 0
ACTA
BOND $H
ABIN
L.S. 50 0   80
WGHT    0.090100
FVAR       0.12838
CU1   3    0.666667    0.333333    0.101464    10.33333    0.06470    0.06470 =
         0.04805    0.00000    0.00000    0.03235
CU2   3    0.738314    0.261686    0.250000    10.50000    0.06527    0.06527 =
         0.05407   -0.01505   -0.01505    0.03190
CU3   3    0.540233    0.000000    0.000000    10.50000    0.11874    0.06598 =
         0.07670   -0.03101   -0.01551    0.03299
N1    2    0.629229    0.219776    0.101279    11.00000    0.07526    0.06056 =
         0.05476   -0.00908   -0.01831    0.02908
N2    2    0.667040    0.192395    0.161028    11.00000    0.06969    0.05079 =
         0.05389   -0.01269   -0.00806    0.02514
C1    1    0.584084    0.161827    0.044820    11.00000    0.08768    0.05979 =
         0.06382   -0.01197   -0.00593    0.02743
N3    2    0.590195    0.096846    0.063756    11.00000    0.10105    0.07422 =
         0.06235   -0.01783   -0.01849    0.04131
C2    1    0.642384    0.118595    0.137178    11.00000    0.07906    0.07327 =
         0.05960   -0.00459    0.00176    0.03232
C3    1    0.666132    0.070409    0.189275    11.00000    0.15925    0.08320 =
         0.13469    0.02172    0.00501    0.08608
AFIX  13
H3    4    0.703829    0.104446    0.238117    11.00000   -1.20000
AFIX   0
C4    1    0.537837    0.177035   -0.027693    11.00000    0.16252    0.19436 =
         0.07030   -0.01818   -0.06489    0.09649
AFIX  13
H4    4    0.548670    0.231221   -0.019325    11.00000   -1.20000
AFIX   0
C7    1    0.605297   -0.003430    0.241020    11.00000    0.18683    0.22850 =
         0.19482    0.09738    0.02580    0.09516
AFIX  33
H7A   4    0.631079   -0.028273    0.271789    11.00000   -1.50000
H7B   4    0.578838    0.010529    0.288446    11.00000   -1.50000
H7C   4    0.567538   -0.039200    0.195517    11.00000   -1.50000
AFIX   0
C6    1    0.558177    0.167790   -0.130307    11.00000    0.20543    0.29118 =
         0.09131    0.00704    0.00028    0.16460
AFIX  33
H6A   4    0.526569    0.178298   -0.173876    11.00000   -1.50000
H6B   4    0.612928    0.204278   -0.142025    11.00000   -1.50000
H6C   4    0.547891    0.114951   -0.139888    11.00000   -1.50000
AFIX   0
C5    1    0.449221    0.122179   -0.023273    11.00000    0.16335    0.27486 =
         0.12619   -0.00102   -0.02193    0.12526
AFIX  33
H5A   4    0.424289    0.136333   -0.072530    11.00000   -1.50000
H5B   4    0.437370    0.068837   -0.032931    11.00000   -1.50000
H5C   4    0.430000    0.126697    0.038436    11.00000   -1.50000
AFIX   0
C8    1    0.709281    0.040563    0.126820    11.00000    0.25674    0.19937 =
         0.20856    0.00949    0.05900    0.14466
AFIX  33
H8A   4    0.723734    0.008903    0.164879    11.00000   -1.50000
H8B   4    0.675481    0.009360    0.075335    11.00000   -1.50000
H8C   4    0.755897    0.084566    0.100777    11.00000   -1.50000
AFIX   0
HKLF    4




REM  OO in P6(3)22
REM R1 =  0.0482 for    1962 Fo > 4sig(Fo)  and  0.0737 for all    2774 data
REM    113 parameters refined using     48 restraints

END

WGHT      0.0936      0.0000

REM Highest difference peak  0.467,  deepest hole -0.427,  1-sigma level  0.067
Q1    1   0.7378  0.1072  0.2243  11.00000  0.05    0.47
Q2    1   0.6622  0.0509  0.2962  11.00000  0.05    0.33
Q3    1   0.5889  0.2367 -0.1074  11.00000  0.05    0.30
Q4    1   0.6295  0.1576 -0.0521  11.00000  0.05    0.25
Q5    1   0.7690  0.2310  0.2500  10.50000  0.05    0.25
Q6    1   0.6371  0.2280 -0.1076  11.00000  0.05    0.24
Q7    1   0.7086  0.1844  0.1985  11.00000  0.05    0.22
Q8    1   0.4411  0.1819  0.0892  11.00000  0.05    0.21
Q9    1   0.4393  0.1104  0.0143  11.00000  0.05    0.20
Q10   1   0.7404  0.0225  0.0214  11.00000  0.05    0.20
Q11   1   0.7000  0.2328  0.1492  11.00000  0.05    0.19
Q12   1   0.7663  0.1590  0.2935  11.00000  0.05    0.19
Q13   1   0.4642  0.1907 -0.0022  11.00000  0.05    0.19
Q14   1   0.4310  0.1680 -0.0799  11.00000  0.05    0.19
Q15   1   0.5679  0.1358 -0.2500  10.50000  0.05    0.19
Q16   1   0.6019 -0.0394  0.3350  11.00000  0.05    0.18
Q17   1   0.6258  0.1471 -0.1211  11.00000  0.05    0.18
Q18   1   0.6955  0.2331  0.3509  11.00000  0.05    0.18
Q19   1   0.6789  0.1967  0.3541  11.00000  0.05    0.17
Q20   1   0.5466 -0.0581  0.2985  11.00000  0.05    0.17
Q21   1   0.6547 -0.0068  0.2983  11.00000  0.05    0.16
Q22   1   0.7548  0.2689  0.2855  11.00000  0.05    0.16
Q23   1   0.6354  0.2705  0.1616  11.00000  0.05    0.16
Q24   1   0.4702  0.0937 -0.1505  11.00000  0.05    0.16
Q25   1   0.5734  0.0000  0.0000  10.50000  0.05    0.16
;
_shelx_res_checksum              44987
_shelx_hkl_file
;
   0   0   1   -0.13    0.04
   0   0   2   92.14    3.24
   0   0   3    0.08    0.44
   0   0   4  215.44    7.55
   0   0   5    0.51    0.67
   0   0   6   37.70    2.09
   0   0   7   -0.15    0.96
   0   0   8  616.04   21.04
   0   0   9   -1.08    1.19
   0   0  10    1.22    1.46
   0   0  11    1.03    1.55
   0   0  12   86.30    4.53
   0   0  13   -0.57    1.41
   0   0  14   18.79    2.53
   0   0  15    0.47    1.57
   0   0  16    4.14    1.92
  -1   1 -16   -0.28    1.63
   1  -1  16   -1.39    0.60
  -1   1 -15    7.04    2.19
   1  -1  14   -0.66    0.72
   1  -1  13    4.48    1.22
   1  -1  12    2.13    1.14
   1  -1  11    3.93    1.13
   1  -1  10    0.60    0.74
   1  -1   9   -0.71    0.38
   1  -1   8   -0.03    0.25
   1  -1   5   79.63    3.13
   1  -1   4   11.10    0.98
   1  -1   3    9.91    0.77
  -1   1  -2   57.15    2.08
   1  -1   2   56.07    2.03
  -1   1  -1  852.43   28.09
  -1   1   0   -0.17    0.04
  -1   1   0   -0.26    0.05
  -1   1   1 1000.00   32.49
  -1   1   1  969.41   32.48
  -1   1   2   57.67    2.12
  -1   1   2   57.51    2.20
  -1   1   3   11.41    1.02
  -1   1   4    8.98    1.03
  -1   1   5   90.49    3.66
  -1   1   6   28.44    1.79
  -1   1   7  272.88    9.84
  -1   1   8   78.06    3.77
  -1   1   9    4.80    1.38
  -1   1  10   -1.30    1.40
  -1   1  11   16.60    2.23
  -1   1  12   13.23    2.35
  -1   1  13   34.69    3.37
  -1   1  14    6.16    1.97
  -1   1  15    7.37    2.04
  -1   1  16    2.83    1.85
  -2   2 -16    2.91    2.15
  -2   2 -15   -1.39    1.88
   2  -2  15    0.79    1.69
  -2   2 -14   30.10    3.12
   2  -2  14   21.64    2.68
  -2   2 -13   15.09    2.19
   2  -2  13   18.48    2.40
  -2   2 -12    0.66    1.70
   2  -2  12    2.23    1.56
  -2   2 -11    1.73    1.39
   2  -2  11   -0.73    1.36
   2  -2  10   17.16    1.97
   2  -2   9    3.78    1.26
   2  -2   8    4.12    1.10
   2  -2   7  105.80    4.23
   2  -2   6  356.95   12.21
  -2   2  -5   30.56    1.67
   2  -2   5   31.69    1.63
  -2   2  -4  381.14   12.92
   2  -2   4  389.13   12.88
  -2   2  -3  113.91    4.02
   2  -2   3  109.41    3.86
  -2   2  -2  688.66   22.33
   2  -2   2  674.59   22.52
  -2   2  -1  275.74    9.14
  -2   2   0  130.61    4.60
  -2   2   0  139.82    4.54
  -2   2   1  270.28    9.03
  -2   2   1  270.50    8.97
  -2   2   2  681.74   22.51
  -2   2   2  679.08   22.29
  -2   2   3  112.48    4.11
  -2   2   3  116.43    4.27
  -2   2   4  360.90   12.37
  -2   2   5   32.57    1.89
  -2   2   6  345.81   12.13
  -2   2   7  105.28    4.48
  -2   2   8    2.77    1.24
  -2   2   9    5.53    1.47
  -2   2  10   15.85    2.31
  -2   2  11    1.83    1.58
  -2   2  12    0.05    1.81
  -2   2  13   17.43    2.51
  -2   2  14   26.65    3.22
  -2   2  15   -1.22    1.93
  -2   2  16    0.94    2.09
  -3   3 -16    5.37    2.27
  -3   3 -15    2.92    2.02
  -3   3 -14    5.23    1.84
  -3   3 -13    9.63    1.94
   3  -3  13   10.27    1.90
  -3   3 -12   -0.92    1.63
   3  -3  12    1.07    1.42
  -3   3 -11    0.64    1.39
   3  -3  11    2.61    1.58
  -3   3 -10   65.94    3.69
   3  -3  10   70.58    3.56
  -3   3  -9   40.33    2.52
   3  -3   9   40.29    2.40
  -3   3  -8    0.75    0.97
   3  -3   8    0.88    0.91
  -3   3  -7   50.35    2.50
   3  -3   7   48.40    2.38
  -3   3  -6   78.34    3.26
   3  -3   6   72.21    2.99
  -3   3  -5    6.84    1.06
   3  -3   5    8.58    0.86
  -3   3  -4  237.56    8.22
   3  -3   4  237.77    8.02
  -3   3  -3  250.41    8.56
   3  -3   3  250.08    8.29
  -3   3  -2   46.76    1.98
  -3   3  -1   32.87    1.52
   3  -3   1   33.67    1.22
  -3   3   0    0.56    0.29
  -3   3   0    0.73    0.35
  -3   3   1   32.96    1.45
  -3   3   1   31.80    1.40
  -3   3   1   31.00    1.15
  -3   3   2   50.56    2.13
  -3   3   2   48.54    2.06
  -3   3   3  241.35    8.41
  -3   3   3  250.47    8.59
  -3   3   4  225.91    8.19
  -3   3   4  234.67    8.02
  -3   3   5    6.11    1.03
  -3   3   5    9.24    1.19
  -3   3   6   72.23    3.35
  -3   3   7   51.12    2.82
  -3   3   8    1.38    1.22
  -3   3   9   38.98    2.77
  -3   3  10   65.32    3.77
  -3   3  11    1.64    1.88
  -3   3  12   -0.50    1.52
  -3   3  13    9.68    2.21
  -3   3  14    3.14    2.13
  -3   3  15    2.01    2.10
  -3   3  16    2.24    2.03
  -4   4 -16    7.97    2.19
  -4   4 -15   -0.05    1.86
  -4   4 -14    0.67    1.65
  -4   4 -13   -1.38    1.73
  -4   4 -12   69.44    3.89
   4  -4  12   70.35    3.65
  -4   4 -11    7.55    1.95
   4  -4  11    8.43    1.60
  -4   4 -10   25.39    2.36
   4  -4  10   25.50    2.19
  -4   4  -9    2.40    1.50
   4  -4   9    5.63    1.26
  -4   4  -8  199.74    7.48
   4  -4   8  195.85    7.18
  -4   4  -7   61.98    2.91
   4  -4   7   59.02    2.62
  -4   4  -6    0.13    0.83
   4  -4   6   -0.22    0.61
  -4   4  -5   41.47    2.14
   4  -4   5   44.82    1.82
  -4   4  -4  886.03   29.65
   4  -4   4  913.91   29.44
  -4   4  -3    9.07    1.06
   4  -4   3    9.21    0.48
  -4   4  -2   43.19    2.04
   4  -4   2   42.68    1.49
  -4   4  -1  351.24   12.14
   4  -4   1  368.66   11.88
  -4   4   0    7.60    0.73
  -4   4   0    6.11    0.92
  -4   4   1  369.26   12.24
  -4   4   1  352.83   12.23
  -4   4   1  368.09   11.91
  -4   4   2   38.86    1.91
  -4   4   2   40.27    1.93
  -4   4   3    9.43    1.07
  -4   4   3   10.69    1.17
  -4   4   4  868.42   28.49
  -4   4   4  857.75   28.80
  -4   4   5   42.57    2.30
  -4   4   5   39.48    2.07
  -4   4   6    0.10    0.79
  -4   4   6   -0.65    0.93
  -4   4   7   56.88    3.08
  -4   4   8  183.36    7.33
  -4   4   9    7.02    1.93
  -4   4  10   27.32    2.72
  -4   4  11    7.59    2.08
  -4   4  12   60.77    4.22
  -4   4  13    3.29    2.16
  -4   4  14    3.11    1.91
  -4   4  15    0.14    2.08
  -4   4  16   12.69    2.68
  -5   5 -16    1.51    2.19
  -5   5 -15    4.14    2.15
  -5   5 -14    0.16    1.94
  -5   5 -13   -0.61    1.75
  -5   5 -12    8.51    1.81
  -5   5 -11   55.36    3.37
   5  -5  11   52.93    2.96
  -5   5 -10    5.26    1.56
   5  -5  10    4.48    1.27
  -5   5  -9   65.86    3.61
   5  -5   9   66.42    3.11
  -5   5  -8    9.38    1.50
   5  -5   8   13.12    1.30
  -5   5  -7    8.76    1.50
   5  -5   7    8.68    0.99
  -5   5  -6   37.93    2.17
   5  -5   6   36.51    1.68
  -5   5  -5  257.86    9.18
   5  -5   5  260.72    8.68
  -5   5  -4    0.45    0.80
   5  -5   4    0.70    0.27
  -5   5  -3  415.32   14.05
  -5   5  -2   43.31    2.13
   5  -5   2   39.11    1.49
  -5   5  -1  142.28    5.22
   5  -5   1  138.65    4.81
  -5   5   0    0.66    0.63
  -5   5   0    0.12    0.89
  -5   5   1  136.74    5.24
  -5   5   1  142.12    4.82
  -5   5   1  145.29    5.13
  -5   5   2   39.71    2.00
  -5   5   2   41.61    1.49
  -5   5   2   38.63    2.04
  -5   5   3  424.26   14.62
  -5   5   3  439.90   14.78
  -5   5   4    1.17    0.89
  -5   5   4    0.46    0.71
  -5   5   5  242.17    8.79
  -5   5   5  252.24    9.03
  -5   5   6   32.93    2.32
  -5   5   6   39.20    2.19
  -5   5   7    8.42    1.58
  -5   5   7    9.96    1.37
  -5   5   8   11.78    1.86
  -5   5   9   64.71    3.73
  -5   5  10    7.13    1.95
  -5   5  11   58.55    4.15
  -5   5  12    9.48    2.14
  -5   5  13    4.54    2.24
  -5   5  14    4.70    2.26
  -5   5  15    3.77    2.08
  -5   5  16   -0.46    2.21
  -6   6 -15    1.30    2.01
  -6   6 -14    0.99    1.97
  -6   6 -13    1.79    1.66
  -6   6 -12    1.34    1.52
  -6   6 -11   11.62    1.99
  -6   6 -10   58.55    3.37
   6  -6  10   52.43    2.73
  -6   6  -9   30.39    2.64
   6  -6   9   28.03    1.83
  -6   6  -8    8.14    1.58
   6  -6   8   10.97    1.13
  -6   6  -7    4.70    1.49
   6  -6   7    4.64    0.75
  -6   6  -6   77.90    3.51
   6  -6   6   77.69    2.84
  -6   6  -5   72.94    3.30
   6  -6   5   75.06    2.56
  -6   6  -4   78.67    3.38
  -6   6  -3  124.42    4.80
  -6   6  -2  171.97    6.36
   6  -6   2  173.21    5.82
  -6   6  -1   47.80    2.47
   6  -6   1   49.17    1.96
  -6   6   0  132.00    5.11
  -6   6   0  134.45    4.81
  -6   6   1   52.36    2.01
  -6   6   1   48.98    2.29
  -6   6   1   48.31    2.50
  -6   6   2  163.07    6.23
  -6   6   2  172.11    5.68
  -6   6   2  173.98    6.25
  -6   6   3  126.32    4.89
  -6   6   3  126.14    4.97
  -6   6   4   78.11    3.50
  -6   6   4   77.42    3.41
  -6   6   5   76.42    3.64
  -6   6   5   80.37    3.52
  -6   6   6   76.86    3.54
  -6   6   6   76.46    3.72
  -6   6   7    5.77    1.29
  -6   6   7    3.29    1.39
  -6   6   8    7.80    1.80
  -6   6   8   11.90    1.65
  -6   6   9   24.80    2.65
  -6   6  10   57.21    3.77
  -6   6  11   11.98    2.33
  -6   6  12    1.19    2.04
  -6   6  13   -0.12    2.06
  -6   6  14   -0.66    2.06
  -6   6  15   -2.12    2.03
  -7   7 -15    1.48    2.18
  -7   7 -14    1.66    2.06
  -7   7 -13    1.84    1.99
  -7   7 -12   -0.21    1.51
  -7   7 -11    3.17    1.62
  -7   7 -10    1.51    1.57
  -7   7  -9   29.08    2.57
  -7   7  -8   11.62    1.97
  -7   7  -8   12.60    1.01
  -7   7  -7    0.02    0.49
  -7   7  -7    0.58    1.43
  -7   7  -6   13.93    1.63
  -7   7  -5   68.86    3.24
  -7   7  -4  266.01    9.50
  -7   7  -3   27.35    1.94
   7  -7   3   27.71    1.04
  -7   7  -2   43.03    2.37
   7  -7   2   41.02    1.67
  -7   7  -1    0.58    0.96
   7  -7   1    2.20    0.56
  -7   7   0    3.34    0.73
  -7   7   0    1.57    1.01
  -7   7   1    0.26    0.75
  -7   7   1    0.25    0.88
  -7   7   1    1.43    0.57
  -7   7   2   41.96    2.16
  -7   7   2   42.42    2.33
  -7   7   2   42.11    1.66
  -7   7   3   31.96    2.02
  -7   7   3   30.14    2.05
  -7   7   4  271.30    9.98
  -7   7   4  281.68    9.94
  -7   7   5   71.39    3.60
  -7   7   5   69.33    3.36
  -7   7   6   13.05    1.76
  -7   7   6   15.13    1.71
  -7   7   7   -1.35    1.20
  -7   7   7    0.49    1.12
   7  -7  -7   -0.42    0.48
  -7   7   8   11.75    1.79
  -7   7   8    9.07    1.87
   7  -7  -8   13.93    1.08
  -7   7   9   25.34    2.79
  -7   7  10    2.36    1.78
  -7   7  11    3.19    1.86
  -7   7  12    0.49    1.74
  -7   7  13    2.78    2.27
  -7   7  14    2.13    2.29
  -7   7  15   -1.22    2.25
  -8   8 -15   -0.27    1.85
  -8   8 -14    1.41    2.13
  -8   8 -13    7.31    2.25
  -8   8 -12    7.74    2.23
  -8   8 -11    3.73    1.69
  -8   8 -10   21.24    2.41
  -8   8  -9    5.35    1.71
  -8   8  -8   40.42    2.81
  -8   8  -7    9.98    1.71
  -8   8  -6   34.34    2.44
  -8   8  -5   24.61    2.06
  -8   8  -4  112.10    4.71
  -8   8  -3   36.22    2.34
   8  -8   3   35.46    1.42
  -8   8  -2   70.43    3.38
   8  -8   2   69.41    2.66
  -8   8  -1   78.05    3.53
   8  -8   1   72.58    2.93
  -8   8   0   48.20    2.22
  -8   8   0   48.68    2.69
  -8   8   0   47.36    2.20
  -8   8   1   76.40    3.53
  -8   8   1   73.32    2.90
  -8   8   1   75.35    3.21
  -8   8   2   70.60    2.67
  -8   8   2   73.55    3.42
  -8   8   2   71.01    3.26
  -8   8   3   39.56    2.36
  -8   8   3   33.70    1.36
  -8   8   3   35.16    2.13
  -8   8   4  110.09    4.71
  -8   8   4  110.50    4.74
  -8   8   5   24.66    2.11
  -8   8   5   20.59    2.05
  -8   8   6   32.72    2.54
  -8   8   6   32.53    2.41
  -8   8   7    9.38    1.83
  -8   8   7   10.19    1.94
  -8   8   8   40.48    3.25
  -8   8   8   36.06    2.78
  -8   8   9    4.99    1.57
  -8   8   9    7.56    2.03
  -8   8  10   20.55    2.73
  -8   8  11    4.87    1.98
  -8   8  12    6.21    2.44
  -8   8  13    5.03    2.15
  -8   8  14    2.39    2.06
  -8   8  15    0.06    2.33
  -9   9 -14    2.45    1.91
  -9   9 -13    8.90    2.42
  -9   9 -12    1.57    2.00
  -9   9 -11   18.03    2.33
  -9   9 -10   77.99    4.43
  -9   9  -9   18.57    2.32
  -9   9  -8    7.01    1.75
  -9   9  -7   68.91    3.72
  -9   9  -6   36.42    2.88
  -9   9  -5   20.51    2.10
  -9   9  -4   32.20    2.63
  -9   9  -3  162.63    6.21
   9  -9   3  149.31    5.31
  -9   9  -2  214.31    8.05
   9  -9   2  212.32    7.35
  -9   9  -1   70.06    3.45
   9  -9   1   66.59    2.82
  -9   9   0  103.76    3.99
  -9   9   0   98.70    4.44
   9  -9   0   98.43    3.93
  -9   9   1   67.02    3.41
  -9   9   1   65.56    3.00
  -9   9   1   65.25    2.70
  -9   9   2  214.82    7.32
  -9   9   2  209.43    8.08
  -9   9   2  219.10    7.95
  -9   9   3  160.71    6.24
  -9   9   3  153.35    5.27
  -9   9   3  150.32    6.08
  -9   9   4   34.51    2.43
  -9   9   4   31.40    2.50
  -9   9   5   26.70    2.43
  -9   9   5   23.56    2.31
  -9   9   6   27.88    2.54
  -9   9   6   30.17    2.66
  -9   9   7   68.51    3.78
  -9   9   7   66.23    4.09
  -9   9   8   10.40    1.93
  -9   9   8   11.95    2.19
  -9   9   9   19.26    2.44
  -9   9   9   20.19    2.67
  -9   9  10   71.23    4.44
  -9   9  10   73.98    4.22
  -9   9  11   14.07    2.48
  -9   9  12    2.30    1.89
  -9   9  13    3.96    2.20
  -9   9  14    1.42    1.98
 -10  10 -14    2.14    2.41
 -10  10 -13    1.75    1.84
 -10  10 -12    0.96    1.75
 -10  10 -11   15.71    2.35
 -10  10 -10   -2.48    1.73
 -10  10  -9   28.53    2.80
 -10  10  -8   15.77    2.21
 -10  10  -7   -1.63    1.44
 -10  10  -6    9.57    1.92
 -10  10  -5   38.42    2.83
 -10  10  -4    6.80    1.69
 -10  10  -3  173.94    6.86
  10 -10   3  168.90    5.93
 -10  10  -2    8.71    1.65
  10 -10   2    5.69    0.88
 -10  10  -1   17.54    2.02
  10 -10   1   15.12    1.33
 -10  10   0   33.96    2.53
 -10  10   0   31.62    1.95
  10 -10   0   33.94    1.97
 -10  10   1   16.59    1.95
 -10  10   1   14.09    1.53
 -10  10   1   14.36    1.26
 -10  10   2    4.72    1.14
 -10  10   2    7.94    1.57
 -10  10   2    5.60    0.88
 -10  10   3  186.24    7.25
 -10  10   3  180.28    7.04
 -10  10   3  178.32    6.21
 -10  10   4    5.65    1.55
 -10  10   4    3.45    1.58
 -10  10   5   36.63    2.97
 -10  10   5   35.54    2.72
 -10  10   6   11.93    2.02
 -10  10   6    9.07    2.14
 -10  10   7   -0.37    1.83
 -10  10   7    0.23    1.47
 -10  10   8   23.14    2.64
 -10  10   8   15.20    2.44
 -10  10   9   22.90    2.88
 -10  10   9   38.40    3.43
 -10  10  10    0.67    1.49
 -10  10  10   -2.87    1.54
 -10  10  11   13.67    2.59
 -10  10  12   -0.86    1.77
 -10  10  13    1.90    2.35
 -10  10  14    2.45    2.20
 -11  11 -13    0.32    1.83
 -11  11 -12    7.00    2.42
 -11  11 -11    3.24    2.23
 -11  11 -10    3.35    1.79
 -11  11  -9    1.23    1.96
 -11  11  -8   25.29    2.85
 -11  11  -7    3.78    2.12
 -11  11  -6   18.37    2.35
 -11  11  -5    2.22    1.72
 -11  11  -4  132.90    5.82
 -11  11  -3    6.21    1.78
  11 -11   3    8.04    0.95
 -11  11  -2   -0.36    1.41
  11 -11   2   -0.45    0.77
 -11  11  -1   18.70    1.81
 -11  11  -1   16.84    2.16
  11 -11   1   15.61    1.45
 -11  11   0   39.75    2.25
 -11  11   0   43.74    2.97
  11 -11   0   45.71    2.41
 -11  11   1   14.33    1.33
 -11  11   1   17.39    2.16
  11 -11  -1   16.26    1.68
 -11  11   2    1.55    0.80
 -11  11   2    1.86    1.30
 -11  11   2    0.71    1.44
 -11  11   3    5.66    1.69
 -11  11   3    5.31    1.39
 -11  11   3    6.28    0.91
 -11  11   4  130.79    5.76
 -11  11   4  137.65    5.97
 -11  11   5    3.57    1.79
 -11  11   5    3.78    1.67
 -11  11   6   15.00    2.25
 -11  11   6   20.41    2.44
 -11  11   7    7.19    2.03
 -11  11   7    4.93    1.82
 -11  11   8   32.35    3.17
 -11  11   8   37.09    3.31
 -11  11   9    0.09    1.58
 -11  11   9    0.46    1.72
 -11  11  10    2.12    1.70
 -11  11  10    0.80    1.75
 -11  11  11    0.71    1.67
 -11  11  11    2.58    1.92
 -11  11  12    5.70    2.54
 -11  11  13   -1.33    2.16
 -12  12 -13   -1.62    1.77
 -12  12 -12    1.92    2.30
 -12  12 -11   -1.52    2.13
 -12  12 -10    0.42    1.72
 -12  12  -9    0.01    2.03
 -12  12  -8   -1.79    1.91
 -12  12  -7    1.42    1.75
 -12  12  -6   33.95    3.03
 -12  12  -5    0.57    1.67
 -12  12  -4   -2.30    1.54
 -12  12  -3    6.24    1.90
 -12  12  -2   -0.40    1.55
 -12  12  -2   -1.82    1.13
  12 -12   2   -0.62    0.87
 -12  12  -1    2.50    1.24
 -12  12  -1   -0.23    1.60
  12 -12   1    3.95    1.11
 -12  12   0   95.15    4.08
 -12  12   0   96.00    4.78
  12 -12   0   92.96    4.04
 -12  12   1    3.25    1.76
 -12  12   1    2.83    0.98
  12 -12  -1    2.19    1.32
 -12  12   2   -0.53    0.81
 -12  12   2   -1.45    1.43
 -12  12   2   -0.29    1.36
  12 -12  -2   -1.42    1.18
 -12  12   3    4.52    1.65
 -12  12   3    5.33    1.80
 -12  12   4   -0.61    1.50
 -12  12   4   -1.11    1.52
 -12  12   5    2.15    1.82
 -12  12   5   -1.83    1.52
 -12  12   6   28.87    2.86
 -12  12   6   30.96    3.08
 -12  12   7    4.49    1.87
 -12  12   7    5.81    1.91
 -12  12   8   -0.31    1.59
 -12  12   8    2.43    1.76
 -12  12   9   -0.37    1.60
 -12  12   9    2.78    1.84
 -12  12  10    0.95    1.74
 -12  12  10   -2.79    1.59
 -12  12  11    1.11    1.94
 -12  12  11    2.02    1.85
 -12  12  12    0.22    1.91
 -12  12  13   -2.48    1.74
 -13  13 -12   -0.30    1.86
 -13  13 -11    5.29    2.10
 -13  13 -10    6.97    2.20
 -13  13  -9    0.31    1.80
 -13  13  -8    1.28    1.72
 -13  13  -7   16.20    2.50
 -13  13  -6   40.51    3.58
 -13  13  -5   21.03    2.66
 -13  13  -4   10.22    2.16
 -13  13  -3    1.33    1.71
 -13  13  -3   -0.23    1.47
 -13  13  -2   38.78    3.23
 -13  13  -2   36.65    2.68
 -13  13  -1   45.01    3.34
 -13  13  -1   41.28    2.71
  13 -13   1   38.73    2.39
 -13  13   0    2.75    1.21
 -13  13   0    5.40    1.92
  13 -13   0    1.15    1.23
 -13  13   1   42.68    3.24
 -13  13   1   37.74    2.29
  13 -13  -1   38.93    2.61
 -13  13   2   34.64    3.12
  13 -13  -2   39.75    2.77
 -13  13   3   -1.42    1.55
 -13  13   3   -2.05    1.50
  13 -13  -3    0.44    1.54
 -13  13   4   11.51    2.23
 -13  13   4   15.05    2.09
 -13  13   5   18.67    2.42
 -13  13   5   22.05    2.77
 -13  13   6   36.49    3.23
 -13  13   6   35.88    3.33
 -13  13   7   18.58    2.62
 -13  13   7   18.61    2.53
 -13  13   8    2.82    1.78
 -13  13   8    0.97    1.69
 -13  13   9   -0.37    1.71
 -13  13   9    0.80    1.80
 -13  13  10    9.46    2.60
 -13  13  10    6.60    2.21
 -13  13  11    3.26    1.93
 -13  13  11    3.53    2.08
 -13  13  12   -1.86    1.84
 -14  14 -11    0.62    2.29
 -14  14 -10    1.57    2.00
 -14  14  -9    6.67    2.17
 -14  14  -8    5.71    2.11
 -14  14  -7   10.27    2.26
 -14  14  -6    7.26    2.07
 -14  14  -5   13.49    2.14
 -14  14  -5   15.55    2.63
 -14  14  -4    1.10    1.66
 -14  14  -4    0.37    1.77
 -14  14  -3    0.97    0.86
 -14  14  -3    0.40    1.78
 -14  14  -2    5.06    1.99
 -14  14  -2    6.94    1.69
 -14  14  -1   54.66    3.76
 -14  14  -1   53.18    3.06
  14 -14   1   53.23    2.85
 -14  14   0   18.51    2.63
 -14  14   0   21.15    2.01
  14 -14   0   23.68    2.14
 -14  14   1   53.48    2.88
 -14  14   1   57.46    3.82
  14 -14  -1   55.73    3.21
 -14  14   2    8.50    2.13
  14 -14  -2    5.73    1.70
 -14  14   3    2.25    1.83
  14 -14  -3    1.64    1.07
 -14  14   4    3.73    1.79
  14 -14  -4   -0.53    1.67
 -14  14   5   11.76    2.16
 -14  14   5   12.95    2.42
  14 -14  -5   14.46    2.27
 -14  14   6    3.11    1.88
 -14  14   6    5.77    2.16
 -14  14   7   10.42    2.24
 -14  14   7    9.86    2.31
 -14  14   8    3.73    1.98
 -14  14   8    4.37    2.29
 -14  14   9    7.63    2.28
 -14  14   9    7.83    2.26
 -14  14  10    2.09    1.96
 -14  14  10   -2.44    2.19
 -14  14  11   -0.17    2.17
 -14  14  11   -0.54    2.27
 -15  15 -11   -0.04    2.06
 -15  15 -11    0.25    2.00
 -15  15 -10    0.20    2.29
 -15  15 -10    0.47    1.94
 -15  15  -9    0.98    1.87
 -15  15  -9    1.55    1.97
 -15  15  -8   19.42    3.08
 -15  15  -8   25.12    3.01
 -15  15  -7   -1.28    2.10
 -15  15  -7    0.72    1.97
 -15  15  -6    1.14    1.87
 -15  15  -6    1.48    1.88
 -15  15  -5    2.34    1.57
 -15  15  -5    0.81    1.76
 -15  15  -4    7.04    2.03
 -15  15  -4    5.45    1.85
 -15  15  -3    0.27    1.71
 -15  15  -3    2.21    1.07
 -15  15  -2    7.23    2.12
 -15  15  -2    1.72    1.39
 -15  15  -1   -0.18    1.75
 -15  15  -1   -0.63    1.20
 -15  15   0   88.45    4.27
 -15  15   0   99.02    5.17
  15 -15   0   98.14    4.44
 -15  15   1    1.00    1.73
  15 -15  -1   -0.20    1.46
 -15  15   2    2.71    1.78
  15 -15  -2    2.42    1.67
 -15  15   3    0.06    1.74
  15 -15  -3    0.79    0.93
 -15  15   4    5.21    1.96
  15 -15  -4    5.01    1.92
 -15  15   5   -0.97    1.65
  15 -15  -5    2.86    1.70
 -15  15   6   -1.49    1.64
  15 -15  -6    1.58    1.79
 -15  15   7    1.11    2.16
 -15  15   7    1.08    1.83
  15 -15  -7    1.78    1.78
 -15  15   8   24.15    3.15
 -15  15   8   21.14    3.07
  15 -15  -8   23.19    3.15
 -15  15   9    2.42    1.94
 -15  15   9   -1.17    1.79
  15 -15  -9    2.00    2.08
 -15  15  10   -0.44    2.32
 -15  15  10    1.27    1.98
  15 -15 -10   -0.33    2.47
 -15  15  11   -1.90    1.96
 -15  15  11   -1.20    1.77
  15 -15 -11   -0.78    2.11
 -16  16 -10    0.91    2.30
 -16  16 -10   -1.62    2.37
 -16  16  -9   -0.54    1.77
 -16  16  -9   -1.47    2.24
 -16  16  -8   -1.86    2.02
 -16  16  -8   -1.04    1.82
 -16  16  -7   10.40    2.48
 -16  16  -7    7.44    2.14
 -16  16  -6    2.02    1.92
 -16  16  -6    1.41    1.88
 -16  16  -5    0.20    1.47
 -16  16  -5    2.96    1.94
 -16  16  -4    1.93    1.63
 -16  16  -4    3.73    1.95
 -16  16  -3    1.04    1.46
 -16  16  -3   -0.52    1.70
 -16  16  -2    2.30    1.83
 -16  16  -2    0.18    1.50
 -16  16  -1    5.96    1.61
 -16  16  -1    3.50    1.99
 -16  16   0    4.90    1.99
 -16  16   1    6.52    2.05
  16 -16  -1    4.38    1.65
 -16  16   2    1.85    1.79
  16 -16  -2    0.73    1.49
 -16  16   3    0.74    1.73
  16 -16  -3   -1.02    1.51
 -16  16   4   -0.17    1.66
  16 -16  -4    2.56    1.83
 -16  16   5   -0.07    1.82
  16 -16  -5   -1.47    1.53
 -16  16   6    0.75    1.91
  16 -16  -6    1.82    1.83
 -16  16   7    6.79    2.26
  16 -16  -7   13.38    2.56
 -16  16   8    0.49    1.90
  16 -16  -8    1.03    2.28
 -16  16   9    1.07    1.93
  16 -16  -9    1.84    2.09
 -16  16  10    2.90    2.26
  16 -16 -10    0.22    2.53
 -17  17  -9    2.23    2.32
 -17  17  -9    2.22    2.15
 -17  17  -8    0.56    1.81
 -17  17  -8   -0.31    1.95
 -17  17  -7    0.74    1.96
 -17  17  -7   -0.09    1.91
 -17  17  -6   12.13    2.37
 -17  17  -6    7.32    2.23
 -17  17  -5   -0.03    2.20
 -17  17  -5    1.53    1.83
 -17  17  -4    3.51    2.34
 -17  17  -4    3.21    1.35
 -17  17  -3    6.16    2.17
 -17  17  -3    8.20    2.04
 -17  17  -2    5.86    2.15
 -17  17  -1   -2.13    1.70
 -17  17   0   -0.89    1.73
 -17  17   1   -0.35    1.79
 -17  17   2    4.27    2.03
 -17  17   3    8.49    2.24
  17 -17  -3    7.25    2.07
 -17  17   4   -2.17    1.72
  17 -17  -4    0.63    1.26
 -17  17   5    4.06    2.10
  17 -17  -5    0.32    1.66
 -17  17   6    7.05    2.35
  17 -17  -6    9.78    2.24
 -17  17   7    2.28    2.04
  17 -17  -7    0.00    2.12
 -17  17   8    0.21    1.86
  17 -17  -8   -2.88    1.79
  17 -17  -9    3.46    2.58
 -18  18  -7    1.60    1.93
 -18  18  -7   -0.37    1.98
 -18  18  -6    2.41    1.98
 -18  18  -6   -0.37    1.94
 -18  18  -5    9.37    2.38
 -18  18  -5    6.43    2.14
 -18  18  -4    0.81    1.93
 -18  18  -4    0.97    1.18
 -18  18  -3    1.49    1.97
 -18  18  -2    4.94    2.17
 -18  18  -1    4.53    2.10
 -18  18   0    1.38    1.89
 -18  18   1    6.48    2.23
 -18  18   2    2.90    2.01
 -18  18   3    1.04    1.90
 -18  18   4   -2.56    1.64
  18 -18  -4    0.95    1.10
 -18  18   5    7.73    2.44
  18 -18  -5    8.45    2.48
 -18  18   6    2.78    2.15
  18 -18  -6   -1.55    1.73
 -18  18   7   -3.45    1.68
  18 -18  -7   -1.56    2.16
 -19  19  -5    0.46    2.00
 -19  19  -5   -0.26    1.81
 -19  19  -4    9.99    2.46
 -19  19  -3    1.01    2.04
 -19  19  -2   -0.43    1.91
 -19  19  -1    1.97    2.08
 -19  19   0    7.98    2.58
 -19  19   1    0.64    1.83
 -19  19   2    0.76    1.96
 -19  19   3   -0.48    1.90
 -19  19   4    7.66    2.35
 -19  19   5    2.05    2.13
  19 -19  -5   -0.77    2.06
 -20  20  -2    0.11    2.01
 -20  20  -1    0.14    1.93
 -20  20   0   -1.46    1.82
 -20  20   1    1.21    1.97
 -20  20   2   -1.20    1.87
 -20  19   4    3.14    2.11
 -20  19   3   -0.85    1.87
 -20  19   2   -2.11    1.78
 -20  19   1    1.85    2.05
 -20  19   0    0.65    1.90
 -20  19  -1    3.11    2.04
 -20  19  -2   -0.83    1.87
 -20  19  -3    3.03    2.46
 -20  19  -4    7.76    2.43
  19 -18  -6    2.75    2.37
 -19  18   6    0.60    2.00
  19 -18  -5    6.45    2.43
 -19  18   5    3.24    2.07
  19 -18  -4    0.14    1.30
 -19  18   4    0.15    1.92
 -19  18   3    3.71    1.99
 -19  18   2    1.75    1.91
 -19  18   1    0.50    1.92
 -19  18   0   10.05    2.38
 -19  18  -1    0.84    1.95
 -19  18  -2    2.72    2.02
 -19  18  -3    7.07    2.31
 -19  18  -4    0.59    1.38
 -19  18  -4    2.86    2.11
 -19  18  -5    4.20    2.55
 -19  18  -5    7.51    2.22
 -19  18  -6   -0.77    1.88
 -19  18  -6   -1.04    1.66
  18 -17  -8    1.63    2.11
 -18  17   8    1.21    2.11
  18 -17  -7   -0.30    1.86
 -18  17   7   -0.09    1.91
  18 -17  -6    3.23    2.03
 -18  17   6   -1.32    1.79
  18 -17  -5    2.55    2.18
 -18  17   5   -0.71    1.84
  18 -17  -4    2.52    1.47
 -18  17   4    0.66    1.84
  18 -17  -3    2.22    1.89
 -18  17   3    4.68    2.13
 -18  17   2    9.89    2.29
 -18  17   1    1.39    1.81
 -18  17   0    0.87    1.83
 -18  17  -1    0.48    1.93
 -18  17  -2    6.49    2.21
 -18  17  -3    3.01    1.81
 -18  17  -3    1.96    1.97
 -18  17  -4   -0.33    0.93
 -18  17  -4    1.64    2.01
 -18  17  -5    0.04    1.80
 -18  17  -5    4.20    2.10
 -18  17  -6    0.13    1.69
 -18  17  -6    6.91    2.23
 -18  17  -7   -0.32    2.01
 -18  17  -7    2.42    2.00
 -18  17  -8    2.19    2.08
 -18  17  -8    0.45    1.81
  17 -16  -9    1.33    2.12
 -17  16   9   -0.77    1.89
  17 -16  -8    4.38    2.49
 -17  16   8   -2.33    1.80
  17 -16  -7    2.24    2.32
 -17  16   7    0.73    1.91
  17 -16  -6    5.57    2.11
 -17  16   6    8.61    2.33
  17 -16  -5    2.98    2.09
 -17  16   5    0.01    1.88
  17 -16  -4    7.11    2.21
 -17  16   4    5.54    2.09
  17 -16  -3   -0.87    1.90
 -17  16   3    1.18    1.74
  17 -16  -2   -0.78    1.54
 -17  16   2    0.49    1.35
 -17  16   1    1.79    1.73
 -17  16   0   -0.80    1.71
 -17  16  -1    0.67    1.80
 -17  16  -2    2.19    1.89
 -17  16  -2   -1.71    1.48
 -17  16  -3    1.14    1.83
 -17  16  -3    1.00    1.64
 -17  16  -4   12.45    2.59
 -17  16  -4    4.23    1.87
 -17  16  -5   -0.92    1.72
 -17  16  -5    1.30    1.85
 -17  16  -6    9.18    2.32
 -17  16  -6    1.36    2.25
 -17  16  -7    1.08    1.94
 -17  16  -7    1.08    2.04
 -17  16  -8   -0.09    2.05
 -17  16  -8   -0.54    1.89
 -17  16  -9   -2.05    1.76
 -17  16  -9   -0.07    1.97
  16 -15 -10    1.41    2.09
 -16  15  10    0.29    1.95
  16 -15  -9    5.53    2.26
 -16  15   9    3.88    2.16
  16 -15  -8    2.29    2.01
 -16  15   8    4.39    2.16
  16 -15  -7    9.76    2.39
 -16  15   7   12.52    2.59
  16 -15  -6   -1.24    1.91
 -16  15   6    1.64    1.87
  16 -15  -5    0.60    1.85
 -16  15   5   -0.69    1.67
  16 -15  -4   -0.38    1.70
 -16  15   4    0.78    1.67
  16 -15  -3    0.02    0.92
 -16  15   3   -0.71    1.16
  16 -15  -2    2.75    1.59
 -16  15   2    2.83    1.81
  16 -15  -1   10.46    1.91
 -16  15   1   13.48    2.37
 -16  15   0    1.78    1.39
 -16  15  -1    7.75    2.11
 -16  15  -1   11.64    1.76
 -16  15  -2   -0.33    1.49
 -16  15  -2    5.06    1.99
 -16  15  -3    1.32    2.07
 -16  15  -3    0.37    1.10
 -16  15  -4    0.63    1.35
 -16  15  -4   -0.65    1.95
 -16  15  -5    2.13    1.90
 -16  15  -5   -1.20    1.66
 -16  15  -6    1.65    1.82
 -16  15  -6   -0.99    1.76
 -16  15  -7    9.56    2.33
 -16  15  -7    6.10    2.01
 -16  15  -8    9.65    2.32
 -16  15  -8    9.11    2.52
 -16  15  -9    0.06    2.26
 -16  15  -9   -0.92    1.73
 -16  15 -10    2.52    2.33
 -16  15 -10   -2.56    1.65
  15 -14 -11   -0.54    2.08
 -15  14  11   -1.22    1.74
  15 -14 -10    0.58    2.09
 -15  14  10    2.05    1.94
  15 -14  -9    6.55    2.31
 -15  14   9    6.43    2.33
  15 -14  -8   10.42    2.43
 -15  14   8    8.27    2.33
  15 -14  -7    8.10    2.16
 -15  14   7   14.32    2.55
  15 -14  -6   -0.01    1.58
 -15  14   6    0.44    1.70
  15 -14  -5    3.24    1.68
 -15  14   5    3.48    1.85
  15 -14  -4    4.24    1.65
 -15  14   4    3.58    1.88
  15 -14  -3   -0.24    0.71
 -15  14   3    1.71    1.76
  15 -14  -2   -0.03    1.50
 -15  14   2   -0.17    1.71
  15 -14  -1   35.50    2.81
 -15  14   1   31.95    3.13
  15 -14   0   35.19    2.61
 -15  14   0   35.41    2.52
 -15  14   0   30.98    3.12
 -15  14  -1   35.47    3.22
 -15  14  -1   34.16    2.56
 -15  14  -2    1.07    1.72
 -15  14  -2   -1.50    1.36
 -15  14  -3   -0.77    1.68
 -15  14  -3    1.08    0.73
 -15  14  -4    2.79    1.46
 -15  14  -4    2.62    1.77
 -15  14  -5    4.37    1.64
 -15  14  -5    0.13    1.69
 -15  14  -6    1.55    1.56
 -15  14  -6    1.88    1.77
 -15  14  -7    8.35    2.16
 -15  14  -7   11.31    2.23
 -15  14  -8    5.88    2.11
 -15  14  -8    9.87    2.24
 -15  14  -9    5.55    2.07
 -15  14  -9    3.55    2.07
 -15  14 -10    3.15    2.04
 -15  14 -10   -1.82    1.76
 -15  14 -11    4.82    2.23
 -15  14 -11    1.27    1.99
  14 -13 -12    2.26    2.64
  14 -13 -11   -0.15    2.01
 -14  13  11    1.18    1.88
  14 -13 -10    2.35    2.41
 -14  13  10    3.77    2.12
  14 -13  -9   -0.04    1.91
 -14  13   9    0.18    1.74
 -14  13   9    1.67    1.96
  14 -13  -8    5.20    2.16
 -14  13   8    7.04    2.10
 -14  13   8    6.85    2.09
  14 -13  -7    2.32    2.09
 -14  13   7    1.87    1.69
  14 -13  -6   38.14    3.51
 -14  13   6   34.84    3.38
  14 -13  -5    2.81    1.91
 -14  13   5    2.40    1.72
  14 -13  -4   -0.66    1.43
 -14  13   4    2.07    1.76
  14 -13  -3    1.43    1.41
 -14  13   3   -0.40    1.65
  14 -13  -2   26.02    2.47
 -14  13   2   23.25    2.79
  14 -13  -1   -0.40    1.43
 -14  13   1   -0.67    1.62
 -14  13   1   -0.56    1.16
  14 -13   0   53.42    3.07
 -14  13   0   54.68    3.66
 -14  13   0   52.58    2.95
  14 -13   1   -0.04    1.12
 -14  13  -1    0.25    1.25
 -14  13  -1   -0.44    1.77
 -14  13  -2   22.32    2.25
 -14  13  -2   20.70    2.59
 -14  13  -3   -0.43    1.67
 -14  13  -3    0.98    1.55
 -14  13  -4   -1.63    1.66
 -14  13  -4   -1.04    1.63
 -14  13  -5    2.71    1.84
 -14  13  -5   -1.39    1.66
 -14  13  -6   35.30    3.15
 -14  13  -6   31.02    3.14
 -14  13  -7    0.63    1.89
 -14  13  -7    1.13    1.70
 -14  13  -8    6.13    2.03
 -14  13  -8    4.16    1.93
 -14  13  -9    0.95    1.81
 -14  13  -9   -1.19    1.65
 -14  13 -10    5.88    2.08
 -14  13 -10    2.18    2.33
 -14  13 -11    2.11    2.02
 -14  13 -11   -0.84    1.84
 -14  13 -12    3.24    2.58
 -14  13 -12    4.40    2.17
  13 -12 -13    3.74    2.34
  13 -12 -12    2.33    2.13
 -13  12  12    3.03    2.19
  13 -12 -11    1.94    2.23
 -13  12  11    2.16    2.10
 -13  12  11    1.44    1.74
  13 -12 -10    0.92    1.98
 -13  12  10    1.97    2.01
 -13  12  10    0.72    1.72
 -13  12   9   -1.10    1.64
 -13  12   9    0.57    1.67
 -13  12   8    6.14    2.01
 -13  12   8    6.61    2.02
 -13  12   7   16.54    2.49
 -13  12   7   16.87    2.69
  13 -12  -6    2.42    1.73
 -13  12   6    2.54    2.01
 -13  12   6    3.14    1.80
  13 -12  -5    8.69    1.99
 -13  12   5    9.62    2.16
 -13  12   5    7.98    1.95
  13 -12  -4    5.19    1.91
 -13  12   4    6.12    1.86
  13 -12  -3    4.43    1.67
 -13  12   3    0.43    1.54
  13 -12  -2    2.93    1.38
 -13  12   2    5.55    1.18
 -13  12   2    4.91    1.73
  13 -12  -1   35.64    2.62
 -13  12   1   29.19    2.88
 -13  12   1   32.29    2.15
  13 -12   0   43.46    2.60
 -13  12   0   45.25    2.63
 -13  12   0   49.35    3.32
  13 -12   1   27.89    2.05
 -13  12  -1   35.58    3.00
 -13  12  -1   32.37    2.33
  13 -12   2    6.10    1.18
 -13  12  -2    4.44    1.40
 -13  12  -2    4.05    1.82
 -13  12  -3    3.47    1.78
 -13  12  -3    1.97    1.56
 -13  12  -4    9.47    1.99
 -13  12  -4    5.59    1.95
 -13  12  -5   12.08    2.45
 -13  12  -5   10.73    2.00
 -13  12  -6    1.53    1.78
 -13  12  -6    0.32    1.80
 -13  12  -7   16.03    2.42
 -13  12  -8    5.05    1.88
 -13  12  -9    0.63    1.73
 -13  12 -10    2.34    2.13
 -13  12 -10    2.32    1.93
 -13  12 -11    5.00    2.32
 -13  12 -11    5.17    2.19
 -13  12 -12    3.75    2.14
 -13  12 -12    2.58    2.32
 -13  12 -13    4.71    2.65
 -13  12 -13   -1.14    1.82
  12 -11 -13    2.38    2.26
 -12  11  13    3.82    2.31
  12 -11 -12    2.67    2.15
 -12  11  12    0.23    1.97
 -12  11  11    7.35    2.03
 -12  11  11    4.63    2.44
 -12  11  10    1.27    1.84
 -12  11  10   -0.31    1.54
 -12  11   9    0.97    1.90
 -12  11   9    2.22    1.76
 -12  11   8    6.32    1.91
 -12  11   8    3.80    1.87
 -12  11   7    4.80    1.85
 -12  11   7    1.69    1.99
 -12  11   6    1.61    1.65
 -12  11   6   -1.17    1.52
 -12  11   5    9.63    1.88
 -12  11   5    9.42    1.99
  12 -11  -4    9.22    1.78
 -12  11   4   10.06    1.94
 -12  11   4    9.38    1.82
  12 -11  -3   40.97    2.85
 -12  11   3   37.95    2.01
 -12  11   3   37.99    2.92
  12 -11  -2    0.91    0.52
 -12  11   2    4.79    1.00
 -12  11   2    2.50    1.58
  12 -11  -1    9.83    1.50
 -12  11   1    5.20    1.12
 -12  11   1    7.61    1.48
  12 -11   0   48.15    2.67
 -12  11   0   44.65    3.14
 -12  11   0   47.53    2.49
  12 -11   1    7.61    1.21
 -12  11  -1    8.37    1.40
 -12  11  -1   10.34    1.93
  12 -11   2    3.79    1.05
 -12  11  -2    0.70    0.63
 -12  11  -2    3.22    1.71
  12 -11   3   33.07    1.94
 -12  11  -3   40.28    2.94
 -12  11  -3   34.98    2.49
 -12  11  -4    6.00    1.62
 -12  11  -4    4.87    1.75
 -12  11  -5    4.58    1.80
 -12  11  -6    2.18    1.73
 -12  11  -7   -1.59    1.92
 -12  11  -8    2.79    2.03
 -12  11  -9    1.71    1.65
 -12  11 -10   -1.63    1.58
 -12  11 -11    6.00    1.94
 -12  11 -12    1.88    1.83
 -12  11 -12    1.59    2.00
 -12  11 -13    7.52    2.61
 -12  11 -13    2.78    2.29
  11 -10 -14    5.74    2.51
 -11  10  14    4.78    2.44
  11 -10 -13    2.61    2.26
 -11  10  13    1.25    2.02
 -11  10  12    5.19    2.21
 -11  10  11    1.86    1.78
 -11  10  10   10.69    2.28
 -11  10  10   17.25    2.41
 -11  10   9    8.46    2.12
 -11  10   9   10.51    2.07
 -11  10   8    3.11    1.81
 -11  10   8    4.95    1.82
 -11  10   7    7.64    2.13
 -11  10   7    3.50    1.42
 -11  10   6   19.65    2.32
 -11  10   6   14.38    2.17
 -11  10   5   15.15    2.17
 -11  10   5   19.64    2.42
 -11  10   4   85.33    4.31
 -11  10   4   84.51    4.16
  11 -10  -3   50.63    2.99
 -11  10   3   49.78    3.06
 -11  10   3   45.20    2.98
 -11  10   3   44.55    2.13
  11 -10  -2    3.85    0.95
 -11  10   2    4.04    0.93
 -11  10   2    7.34    1.59
  11 -10  -1    6.97    1.38
 -11  10   1   11.06    1.23
 -11  10   1   10.62    1.73
  11 -10   0    0.23    0.99
 -11  10   0    1.35    1.43
 -11  10   0    1.92    0.90
  11 -10   1   10.60    1.19
 -11  10  -1   10.25    1.40
 -11  10  -1    9.27    1.74
  11 -10   2    7.42    1.07
 -11  10  -2    2.66    0.85
 -11  10  -2    7.10    1.66
  11 -10   3   40.19    2.03
 -11  10  -3   45.86    2.94
 -11  10  -3   47.50    2.86
  11 -10   4   84.24    3.00
 -11  10  -4   81.78    4.16
 -11  10  -5   13.61    2.07
 -11  10  -6   18.29    2.24
 -11  10  -7    4.82    1.77
 -11  10  -8    2.38    2.00
 -11  10  -9    7.43    1.86
 -11  10 -10    9.45    2.25
 -11  10 -11    3.00    1.78
 -11  10 -12    0.33    1.95
 -11  10 -13    7.07    2.36
 -11  10 -13    7.49    2.35
 -11  10 -14    3.96    2.21
 -11  10 -14   -1.50    2.18
  10  -9 -14    5.84    2.50
 -10   9  14    4.42    2.27
 -10   9  13    0.38    1.95
 -10   9  12    3.39    1.98
 -10   9  11    1.17    1.81
 -10   9  10   41.18    3.61
 -10   9  10   42.09    3.52
 -10   9   9    9.21    2.16
 -10   9   9   11.44    2.08
 -10   9   8    4.04    1.65
 -10   9   8    5.08    1.83
 -10   9   7   46.19    3.17
 -10   9   7   42.23    3.18
 -10   9   6   30.56    2.71
 -10   9   6   34.84    2.69
 -10   9   5    9.66    1.70
 -10   9   5    8.90    1.81
 -10   9   4   79.41    3.97
 -10   9   4   79.41    3.96
 -10   9   3   31.32    1.59
 -10   9   3   34.06    2.42
 -10   9   3   31.44    2.21
  10  -9  -2  157.94    6.33
 -10   9   2  166.88    5.88
 -10   9   2  175.34    6.63
  10  -9  -1   28.11    1.86
 -10   9   1   25.93    1.59
 -10   9   1   30.61    2.28
  10  -9   0    0.58    0.88
 -10   9   0   -0.11    0.77
 -10   9   0    1.22    1.21
  10  -9   1   25.29    1.59
 -10   9  -1   28.40    2.34
 -10   9  -1   26.64    1.83
  10  -9   2  173.80    6.11
 -10   9  -2  159.89    6.45
 -10   9  -2  178.22    6.76
  10  -9   3   28.14    1.53
 -10   9  -3   31.74    2.36
  10  -9   4   80.19    2.76
 -10   9  -4   73.76    3.80
 -10   9  -5    7.79    1.66
 -10   9  -6   32.69    2.60
 -10   9  -7   41.82    2.88
 -10   9  -8    5.42    1.70
 -10   9  -9   15.08    2.35
 -10   9 -10   43.34    3.12
 -10   9 -11    1.91    1.63
 -10   9 -12   -1.42    1.55
 -10   9 -13    3.04    1.85
 -10   9 -14    4.12    2.19
 -10   9 -14    0.44    2.09
   9  -8 -15    4.50    2.74
  -9   8  15    2.41    2.23
  -9   8  14    0.90    1.98
  -9   8  13    4.25    2.42
  -9   8  12    8.84    2.34
  -9   8  11   23.22    3.12
  -9   8  10    2.75    1.83
  -9   8   9   29.33    2.76
  -9   8   9   28.02    2.93
  -9   8   8   36.86    3.14
  -9   8   8   32.80    2.89
  -9   8   7   11.81    1.99
  -9   8   7    9.87    1.79
  -9   8   6   15.12    2.22
  -9   8   6   15.56    2.00
  -9   8   5   51.24    3.00
  -9   8   5   53.84    3.21
  -9   8   4   14.41    1.82
  -9   8   4   13.92    1.58
  -9   8   3  199.93    7.36
  -9   8   3  202.41    7.43
  -9   8   3  185.19    6.62
   9  -8  -2    6.73    1.17
  -9   8   2    8.01    1.42
  -9   8   2    6.54    1.17
  -9   8   2    7.14    0.82
   9  -8  -1   25.12    1.65
  -9   8   1   20.92    1.36
  -9   8   1   24.63    2.05
   9  -8   0  155.95    5.76
  -9   8   0  155.04    5.71
  -9   8   0  157.08    6.12
   9  -8   1   22.62    1.47
  -9   8  -1   27.63    2.16
  -9   8  -1   23.24    1.55
   9  -8   2    7.78    0.92
  -9   8  -2    5.76    1.37
  -9   8  -2    6.81    1.16
   9  -8   3  187.97    6.78
  -9   8  -3  211.22    7.50
   9  -8   4   14.83    0.71
  -9   8  -4   14.88    1.74
  -9   8  -5   50.91    2.87
  -9   8  -6   12.17    1.72
  -9   8  -7    9.60    1.71
  -9   8  -8   36.23    2.92
  -9   8  -9   31.15    2.70
  -9   8 -10    4.63    1.92
  -9   8 -11   18.47    2.29
  -9   8 -12   10.94    2.30
  -9   8 -13   -0.88    1.86
  -9   8 -14    0.83    2.04
  -9   8 -15    0.46    2.09
   8  -7 -15    0.93    2.06
  -8   7  15    2.89    2.14
  -8   7  14    2.96    2.43
  -8   7  13    1.66    1.94
  -8   7  12   -0.40    1.62
  -8   7  11    6.52    1.98
  -8   7  10   13.33    2.34
  -8   7   9   21.22    2.58
  -8   7   8   16.43    2.40
  -8   7   8   15.33    2.03
  -8   7   7   46.19    3.04
  -8   7   7   42.21    2.80
  -8   7   6   13.00    1.72
  -8   7   6   15.50    1.96
  -8   7   5   20.94    1.93
  -8   7   5   19.62    1.98
  -8   7   4  192.70    7.29
  -8   7   4  186.06    7.17
  -8   7   3   29.20    2.00
  -8   7   3   28.41    1.27
  -8   7   3   26.19    1.87
  -8   7   2    6.54    1.08
  -8   7   2    6.73    0.79
  -8   7   2    4.57    1.14
  -8   7   1  109.98    4.03
  -8   7   1  110.00    4.45
   8  -7   0   14.83    1.22
  -8   7   0   14.57    1.15
  -8   7   0   12.40    1.46
   8  -7   1  104.62    3.81
  -8   7  -1   97.56    4.21
   8  -7   2    9.21    0.89
  -8   7  -2    7.57    1.32
   8  -7   3   28.79    1.33
  -8   7  -3   26.89    2.21
   8  -7   4  181.73    6.05
  -8   7  -4  181.49    6.83
  -8   7  -5   24.61    2.12
   8  -7   6   13.57    0.76
  -8   7  -6   15.38    1.68
   8  -7   7   47.14    1.92
  -8   7  -7   46.37    2.76
  -8   7  -8   13.10    1.83
  -8   7  -9   24.22    2.33
  -8   7 -10   13.79    2.25
  -8   7 -11    5.55    1.99
  -8   7 -12   -0.66    1.44
  -8   7 -13    5.53    1.82
  -8   7 -14    6.02    1.98
  -8   7 -15   -1.01    1.87
  -7   6  15    1.95    2.34
  -7   6  14    0.00    2.10
  -7   6  13    2.03    1.90
  -7   6  12    3.97    2.14
  -7   6  11    7.64    2.04
  -7   6  10    1.74    1.75
  -7   6   9   35.49    3.12
  -7   6   8    9.59    2.03
  -7   6   8    9.52    1.68
  -7   6   7   45.35    2.74
  -7   6   7   42.00    2.87
  -7   6   6    4.09    1.52
  -7   6   6    4.33    1.18
  -7   6   5  103.12    4.40
  -7   6   5  104.89    4.54
  -7   6   4   36.65    2.26
  -7   6   4   38.60    2.10
  -7   6   3  147.80    5.57
  -7   6   3  141.33    5.54
  -7   6   2    1.85    0.80
  -7   6   2    1.05    0.84
  -7   6   2    2.55    0.57
  -7   6   1   60.54    2.38
  -7   6   1   59.74    2.71
   7  -6   0   92.08    3.42
  -7   6   0   86.84    3.40
  -7   6   0   86.34    3.64
   7  -6   1   63.30    2.46
  -7   6  -1   59.56    2.87
   7  -6   2    3.06    0.60
  -7   6  -2    3.27    0.98
   7  -6   3  149.06    5.07
  -7   6  -3  146.70    5.61
   7  -6   4   35.57    1.39
  -7   6  -4   39.06    2.13
   7  -6   5  109.15    3.86
  -7   6  -5  116.93    4.61
   7  -6   6    3.30    0.59
  -7   6  -6    2.75    1.24
   7  -6   7   42.93    1.96
  -7   6  -7   46.97    2.77
   7  -6   8   10.08    1.13
  -7   6  -8   11.68    1.64
   7  -6   9   34.60    2.01
  -7   6  -9   33.49    2.52
  -7   6 -10    4.91    1.62
  -7   6 -11   10.77    1.92
  -7   6 -12    2.94    1.57
  -7   6 -13    1.32    1.84
  -7   6 -14    1.66    1.93
  -7   6 -15    2.71    2.18
  -6   5  15    0.07    1.85
  -6   5  14    3.80    2.00
  -6   5  13    1.66    1.78
  -6   5  12    5.61    2.22
  -6   5  11    8.14    2.09
  -6   5  10   99.41    5.07
  -6   5   9   23.88    2.60
  -6   5   8    0.94    1.40
  -6   5   7   72.07    3.50
  -6   5   7   75.30    3.77
  -6   5   6  113.38    4.65
  -6   5   6  109.17    4.82
  -6   5   5   68.48    3.37
  -6   5   5   73.58    3.27
  -6   5   4  135.71    5.35
  -6   5   4  136.62    5.22
  -6   5   3  187.00    6.84
  -6   5   3  185.53    6.76
  -6   5   2  438.72   14.25
  -6   5   2  421.92   14.66
  -6   5   2  439.50   14.75
  -6   5   1  141.29    4.86
  -6   5   1  139.91    5.22
  -6   5   1  138.35    5.11
   6  -5   0   14.26    1.05
  -6   5   0   14.19    1.13
  -6   5   0   14.19    1.38
   6  -5   1  137.75    4.82
  -6   5  -1  137.19    5.16
   6  -5   2  461.04   14.89
  -6   5  -2  436.97   15.17
   6  -5   3  195.98    6.53
  -6   5  -3  193.38    7.02
   6  -5   4  132.85    4.40
  -6   5  -4  123.35    4.87
   6  -5   5   70.82    2.67
  -6   5  -5   75.22    3.17
   6  -5   6  110.81    4.01
  -6   5  -6  109.03    4.43
   6  -5   7   71.96    2.95
  -6   5  -7   73.21    3.37
   6  -5   8   -0.13    0.82
  -6   5  -8    0.66    1.31
   6  -5   9   24.06    1.87
  -6   5  -9   22.83    2.16
   6  -5  10   95.96    4.25
  -6   5 -10  103.30    4.74
  -6   5 -11    9.06    1.98
  -6   5 -12    7.59    1.96
  -6   5 -13    3.31    1.85
  -6   5 -14   -0.63    1.82
  -6   5 -15   -0.12    1.91
   5  -4 -16    8.29    2.69
  -5   4  16    2.53    2.49
  -5   4  15    2.70    2.22
  -5   4  14    0.07    1.99
  -5   4  13    3.68    2.12
  -5   4  12    5.57    1.90
  -5   4  11   31.18    3.07
  -5   4  10   42.17    3.18
  -5   4   9   55.19    3.43
  -5   4   8   16.25    2.00
  -5   4   7   85.11    4.05
  -5   4   6    4.52    1.04
  -5   4   6    5.48    1.25
  -5   4   5   98.79    4.17
  -5   4   5   96.93    3.99
  -5   4   4  308.02   10.72
  -5   4   4  312.60   10.92
  -5   4   3  350.88   12.18
  -5   4   3  365.39   12.36
  -5   4   2  156.97    5.26
  -5   4   2  157.37    5.71
  -5   4   2  153.29    5.63
  -5   4   1  236.75    8.35
  -5   4   1  239.85    8.05
  -5   4   1  249.04    8.37
   5  -4   0    8.48    0.84
  -5   4   0    9.24    1.10
  -5   4   0    9.80    0.87
   5  -4   1  234.66    7.98
  -5   4  -1  239.82    8.22
   5  -4   2  158.85    5.50
  -5   4  -2  165.47    5.83
   5  -4   3  366.31   11.97
  -5   4  -3  358.96   12.29
   5  -4   4  313.31   10.24
  -5   4  -4  301.43   10.53
   5  -4   5  101.78    3.70
  -5   4  -5  103.27    4.02
   5  -4   6    5.04    0.79
  -5   4  -6    4.00    0.99
   5  -4   7   83.81    3.48
  -5   4  -7   93.77    3.85
   5  -4   8   16.79    1.48
  -5   4  -8   16.72    1.65
   5  -4   9   52.67    2.79
  -5   4  -9   57.14    3.15
   5  -4  10   38.73    2.53
  -5   4 -10   42.70    2.91
   5  -4  11   29.24    2.45
  -5   4 -11   32.87    2.57
   5  -4  12    6.62    1.54
  -5   4 -12    6.88    1.70
  -5   4 -13    7.16    2.00
  -5   4 -14   -0.96    1.76
  -5   4 -15    5.26    2.11
  -5   4 -16    4.32    2.52
   4  -3 -16   -0.87    2.12
  -4   3  16    0.62    2.22
  -4   3  15    3.30    2.30
  -4   3  14   -0.66    1.57
  -4   3  13    2.61    1.73
  -4   3  12   24.83    2.84
  -4   3  11   50.65    3.75
  -4   3  10   21.21    2.50
  -4   3   9   89.97    4.46
  -4   3   8   69.97    3.63
  -4   3   7   23.49    2.07
  -4   3   6    6.54    1.24
  -4   3   5  127.95    5.09
  -4   3   5  130.26    4.92
  -4   3   4  175.97    6.60
  -4   3   4  183.41    6.46
  -4   3   3  742.31   25.02
  -4   3   3  759.62   24.78
  -4   3   2  209.70    7.08
  -4   3   2  199.24    7.16
  -4   3   1  151.26    5.14
  -4   3   1  156.56    5.40
  -4   3   1  150.89    5.36
   4  -3   0   14.14    0.85
  -4   3   0   13.97    1.01
  -4   3   0   15.21    0.84
   4  -3   1  158.90    5.38
  -4   3  -1  158.48    5.56
   4  -3   2  212.99    7.13
  -4   3  -2  214.84    7.34
   4  -3   3  780.29   25.08
  -4   3  -3  751.27   25.16
   4  -3   4  184.82    6.45
  -4   3  -4  193.65    6.65
   4  -3   5  133.38    4.73
  -4   3  -5  130.53    4.87
   4  -3   6    5.91    0.87
  -4   3  -6    5.09    0.95
   4  -3   7   24.66    1.56
  -4   3  -7   26.76    1.86
   4  -3   8   79.93    3.59
  -4   3  -8   88.61    3.79
   4  -3   9   91.19    4.00
  -4   3  -9   92.55    4.17
   4  -3  10   24.64    2.17
  -4   3 -10   24.89    2.21
   4  -3  11   50.84    3.12
  -4   3 -11   45.65    2.97
   4  -3  12   25.10    2.48
  -4   3 -12   26.28    2.61
   4  -3  13    2.70    1.56
  -4   3 -13    2.08    1.50
  -4   3 -14    0.57    1.77
  -4   3 -15    1.18    1.66
  -4   3 -16    0.97    2.14
   3  -2 -16    2.03    1.97
  -3   2  16   -2.40    1.65
  -3   2  15    0.88    2.10
  -3   2  14   -0.01    1.93
  -3   2  13   20.54    2.64
  -3   2  12    1.19    1.58
  -3   2  11   19.06    2.65
  -3   2  10   32.23    2.82
  -3   2   9    2.65    1.64
  -3   2   8   13.73    1.87
  -3   2   7  111.93    4.74
  -3   2   6    0.08    0.91
  -3   2   5    4.98    1.02
  -3   2   4   34.57    1.95
  -3   2   4   38.16    1.85
  -3   2   3   41.93    1.90
  -3   2   3   40.66    2.01
  -3   2   2  485.36   16.03
  -3   2   2  475.16   15.86
   3  -2  -1   90.88    3.62
  -3   2   1  105.41    3.48
  -3   2   1  106.16    3.68
  -3   2   1  107.19    3.64
  -3   2   0  113.72    3.95
   3  -2   1  105.39    3.37
  -3   2  -1   95.61    3.49
  -3   2  -1   91.01    3.45
   3  -2   2  492.62   15.74
  -3   2  -2  466.53   15.78
   3  -2   3   40.92    1.83
  -3   2  -3   55.75    2.01
   3  -2   4   39.09    1.69
  -3   2  -4   37.47    1.76
   3  -2   5    4.31    0.77
  -3   2  -5    5.11    0.87
   3  -2   6    0.95    0.70
  -3   2  -6    0.61    0.82
   3  -2   7  121.17    4.78
  -3   2  -7  124.58    4.80
   3  -2   8   17.65    1.66
  -3   2  -8   13.96    1.58
   3  -2   9    3.22    1.31
  -3   2  -9    2.71    1.30
   3  -2  10   30.75    2.42
  -3   2 -10   33.77    2.56
   3  -2  11   16.79    2.18
  -3   2 -11   16.01    1.97
   3  -2  12   -0.03    1.39
  -3   2 -12    1.45    1.63
   3  -2  13   21.70    2.54
  -3   2 -13   20.30    2.51
   3  -2  14    1.11    1.79
  -3   2 -14    0.11    1.68
  -3   2 -15   -0.98    1.76
  -3   2 -16    2.36    1.86
   2  -1 -16    4.29    2.29
  -2   1  15    3.74    2.11
  -2   1  14   34.03    3.33
  -2   1  13   -0.10    1.79
  -2   1  12    2.22    1.84
  -2   1  11    3.21    1.84
  -2   1  10    0.15    1.42
  -2   1   9    1.09    1.24
  -2   1   8   31.10    2.21
  -2   1   7   19.50    1.78
  -2   1   6  391.15   13.56
  -2   1   5    9.88    1.17
  -2   1   4  224.02    7.90
  -2   1   3   81.52    3.18
  -2   1   2    8.29    0.63
  -2   1   2    8.73    0.70
   2  -1  -1  143.89    4.92
  -2   1   1  143.69    4.87
  -2   1   0  529.78   17.25
   2  -1   1  146.06    4.93
  -2   1  -1  145.37    4.93
  -2   1  -1  150.22    5.02
   2  -1   2    8.72    0.53
  -2   1  -2    8.50    0.55
   2  -1   3   86.08    3.13
  -2   1  -3   87.16    3.13
   2  -1   4  227.13    7.78
  -2   1  -4  225.03    7.70
   2  -1   5   10.55    1.06
   2  -1   6  404.32   13.81
   2  -1   7   18.35    1.58
   2  -1   8   28.38    1.90
   2  -1   9    0.57    0.88
   2  -1  10   -0.21    0.77
   2  -1  11   -0.28    0.79
   2  -1  12    0.59    0.88
   2  -1  13   -0.15    0.92
  -2   1 -13    4.22    1.77
   2  -1  14   25.09    2.69
  -2   1 -14   36.13    3.15
   2  -1  15    3.35    1.73
  -2   1 -15    0.89    1.60
  -2   1 -16    3.71    2.18
   1   0 -16    0.61    1.69
   1   0 -15    8.00    2.31
  -1   0  15    2.77    2.09
  -1   0  14    3.38    1.98
  -1   0  13   38.94    3.43
  -1   0  12   10.53    1.99
  -1   0  11   19.10    2.26
  -1   0  10   -0.45    1.46
  -1   0   9    2.35    1.43
  -1   0   8   82.48    3.87
  -1   0   7  274.55    9.88
  -1   0   6   27.42    1.72
  -1   0   5   85.67    3.47
  -1   0   4   10.50    1.04
  -1   0   3    9.72    0.89
  -1   0   2   54.11    2.07
   1   0  -1  934.69   31.06
   1   0   0   -0.20    0.05
  -1   0   0   -0.07    0.06
  -1   0  -1  876.74   28.85
  -1   0  -1  874.12   28.61
   1   0   2    0.02    0.06
   1   0   3    0.31    0.30
   1   0   4    6.08    0.79
   1   0   5   81.58    3.29
   1   0   6   28.30    1.69
   1   0   7  271.75    9.73
   1   0   8   74.73    3.46
   1   0   9    5.19    1.44
   1   0  10    2.17    1.43
   1   0  11   24.93    2.61
   1   0  12   11.95    2.00
   1   0  13   31.62    3.09
   1   0  14    4.46    1.76
   1   0  15    8.24    2.27
  -1   0 -15    4.99    1.83
   1   0  16   -1.22    1.80
  -1   0 -16    0.45    1.87
  -1   0 -16    2.89    1.96
   0   1 -16   -1.89    1.53
   0   1 -16   -0.36    1.83
   0   1 -15    9.03    2.23
   0  -1  15    5.66    2.06
   0  -1  14    6.53    2.06
   0  -1  13   36.39    3.21
   0  -1  12   10.73    2.07
   0  -1  11   19.49    2.34
   0  -1  10    1.95    1.47
   0  -1   9    5.49    1.49
   0  -1   8   82.24    3.75
   0  -1   7  221.52    8.07
   0  -1   5    0.15    0.28
   0  -1   4   -0.10    0.14
   0  -1   3    0.40    0.29
   0  -1   2   34.05    1.34
   0   1   0   -0.22    0.02
   0   1   0   -0.13    0.05
   0   1   1  969.20   30.28
   0   1   1  946.10   30.40
   0  -1  -1  860.33   30.50
   0   1   2   54.08    2.07
   0   1   3    9.61    0.89
   0   1   4   10.56    1.04
   0   1   5   91.44    3.71
   0   1   6   27.72    1.86
   0   1   7  274.43    9.87
   0   1   8   80.75    3.73
   0   1   9    3.43    1.25
   0   1  10    0.65    1.51
   0   1  11   16.03    2.14
   0   1  12    9.20    2.15
   0   1  13   35.21    3.20
   0   1  14    6.18    2.25
   0   1  15    1.89    1.98
   0  -1 -15    7.73    2.15
   0   1  16    0.73    1.96
   0  -1 -16    3.51    1.98
  -1   2 -16    2.05    2.19
  -1   2 -15    0.21    1.64
  -1   2 -15    0.32    1.67
  -1   2 -14   38.51    3.36
  -1   2 -14   34.79    3.18
   1  -2  14   35.10    3.28
   1  -2  13    0.46    1.55
   1  -2  12    1.62    1.54
   1  -2  11    4.35    1.56
   1  -2  10    0.83    1.31
   1  -2   9    0.89    1.18
   1  -2   8   35.82    2.22
   1  -2   7   20.46    1.64
   1  -2   6  413.80   14.09
   1  -2   5   10.81    1.04
   1  -2   4  232.43    7.97
  -1   2  -3   83.47    3.19
   1  -2   3   86.37    3.07
  -1   2  -2    9.93    0.52
  -1   2  -2    9.13    0.67
  -1   2  -1  149.91    4.91
  -1   2  -1  146.45    5.03
  -1   2   0  552.43   17.83
  -1   2   0  539.88   17.93
  -1   2   1  146.41    4.91
   1  -2  -1  140.66    4.71
  -1   2   2    8.79    0.68
   1  -2  -2    8.89    0.49
  -1   2   3   84.15    3.26
  -1   2   4  223.92    7.89
  -1   2   5    7.70    1.09
  -1   2   6  396.29   13.75
  -1   2   7   20.11    1.83
  -1   2   8   32.33    2.38
  -1   2   9    0.95    1.22
  -1   2  10   -0.70    1.31
  -1   2  11   -0.82    1.67
  -1   2  12    4.78    2.03
  -1   2  13    0.39    1.54
  -1   2  14   36.05    3.49
  -1   2  15   -0.33    1.94
   1  -2 -15    2.69    1.84
  -1   2  16   -0.61    1.99
  -2   3 -16   -0.42    1.75
  -2   3 -15    2.95    1.77
  -2   3 -14    3.31    1.84
  -2   3 -14   -1.16    1.47
  -2   3 -13   23.19    2.62
  -2   3 -12   -0.60    1.46
   2  -3  12    0.59    1.41
  -2   3 -11   17.75    2.19
   2  -3  11   16.26    2.03
  -2   3 -10   34.48    2.56
   2  -3  10   33.60    2.42
  -2   3  -9    0.18    1.20
   2  -3   9    0.39    1.07
  -2   3  -8   15.27    1.64
   2  -3   8   12.26    1.47
  -2   3  -7  120.38    4.80
   2  -3   7  119.22    4.63
  -2   3  -6   -0.38    0.78
   2  -3   6    1.99    0.78
  -2   3  -5    4.88    0.94
   2  -3   5    5.72    0.77
  -2   3  -4   36.80    1.89
   2  -3   4   39.44    1.66
  -2   3  -3   43.45    1.97
  -2   3  -3   42.01    1.63
  -2   3  -2  486.25   16.11
  -2   3  -2  488.76   15.99
  -2   3  -1  103.69    3.45
  -2   3  -1  102.92    3.69
  -2   3   0  117.17    4.09
  -2   3   0  115.26    3.96
  -2   3   1   89.93    3.29
  -2   3   1   92.54    3.28
  -2   3   2  446.18   15.00
  -2   3   2  432.23   14.81
   2  -3  -2  467.74   14.62
  -2   3   3   52.30    2.09
  -2   3   3   53.96    2.25
   2  -3  -3   43.05    1.80
  -2   3   4   41.00    1.84
  -2   3   4   38.37    2.07
  -2   3   5    5.79    0.85
  -2   3   5    6.06    1.08
  -2   3   6    0.22    0.92
  -2   3   7  110.50    4.70
  -2   3   8   14.19    1.73
  -2   3   9    2.28    1.40
  -2   3  10   33.75    2.88
  -2   3  11   20.80    2.51
  -2   3  12    0.95    1.58
  -2   3  13   21.26    2.72
  -2   3  14    0.19    1.72
   2  -3 -14    0.23    1.53
  -2   3  15    0.86    1.72
  -2   3  16    1.84    2.12
  -3   4 -16    2.12    2.25
  -3   4 -15    0.72    1.71
  -3   4 -14    1.63    1.93
  -3   4 -13    3.96    1.68
  -3   4 -13    3.70    1.66
  -3   4 -12   28.34    2.83
   3  -4  12   22.51    2.32
  -3   4 -11   46.86    3.40
   3  -4  11   46.71    2.87
  -3   4 -10   25.27    2.35
   3  -4  10   24.56    2.07
  -3   4  -9   88.67    4.16
   3  -4   9   90.55    3.92
  -3   4  -8   78.02    3.69
   3  -4   8   82.21    3.46
  -3   4  -7   26.57    2.02
   3  -4   7   24.60    1.56
  -3   4  -6    5.55    1.07
   3  -4   6    6.34    0.86
  -3   4  -5  126.79    5.00
   3  -4   5  137.68    4.70
  -3   4  -4  187.61    6.85
  -3   4  -4  196.99    6.49
  -3   4  -3  787.74   26.09
  -3   4  -3  795.34   25.91
  -3   4  -2  215.13    7.43
  -3   4  -1  150.04    5.40
  -3   4  -1  154.38    5.09
  -3   4   0   13.39    0.81
  -3   4   0   15.00    1.11
  -3   4   1  163.76    5.62
  -3   4   1  158.47    5.68
  -3   4   2  213.60    7.42
  -3   4   2  211.54    7.33
  -3   4   3  723.60   24.09
  -3   4   3  705.55   23.81
   3  -4  -3  738.40   23.48
  -3   4   4  184.45    6.75
  -3   4   4  196.32    7.02
   3  -4  -4  194.25    6.43
  -3   4   5  129.57    5.27
  -3   4   5  140.62    5.08
  -3   4   6    5.00    0.92
  -3   4   6    5.81    1.21
  -3   4   7   25.70    2.16
  -3   4   8   77.57    3.86
  -3   4   9   87.46    4.39
  -3   4  10   20.60    2.58
  -3   4  11   45.20    3.36
  -3   4  12   22.35    2.76
  -3   4  13    1.78    1.74
   3  -4 -13    6.65    1.65
  -3   4  14    1.29    2.11
  -3   4  15    2.67    2.31
  -3   4  16    0.36    2.17
  -4   5 -16    7.45    2.45
  -4   5 -15    5.30    2.31
  -4   5 -14    1.26    1.71
  -4   5 -13    5.14    2.03
  -4   5 -12    4.69    1.76
  -4   5 -11   31.83    2.98
  -4   5 -11   32.05    2.44
   4  -5  11   29.43    2.37
  -4   5 -10   39.29    2.83
   4  -5  10   40.32    2.47
  -4   5  -9   61.44    3.27
   4  -5   9   54.61    2.77
  -4   5  -8   15.92    1.81
   4  -5   8   17.96    1.48
  -4   5  -7   85.49    3.92
   4  -5   7   94.27    3.54
  -4   5  -6    7.40    1.21
   4  -5   6    5.06    0.75
  -4   5  -5  105.93    3.65
  -4   5  -5  100.44    4.15
  -4   5  -4  310.66   10.45
  -4   5  -4  327.66   11.01
  -4   5  -3  361.86   12.32
  -4   5  -2  143.99    5.30
  -4   5  -1  249.07    8.28
  -4   5  -1  248.41    8.65
  -4   5   0    7.75    1.15
  -4   5   0   10.39    0.84
  -4   5   1  242.19    8.56
  -4   5   1  249.60    8.46
  -4   5   2  159.49    5.91
  -4   5   2  169.48    5.98
  -4   5   3  356.55   12.15
  -4   5   3  348.14   11.98
  -4   5   4  301.28   10.33
  -4   5   4  287.22   10.52
   4  -5  -4  306.44    9.77
  -4   5   5  101.86    4.31
  -4   5   5  102.59    4.09
   4  -5  -5  104.25    3.62
  -4   5   6    5.33    1.05
  -4   5   6    5.65    1.43
  -4   5   7   86.71    4.19
  -4   5   7   89.01    3.80
  -4   5   8   16.87    2.04
  -4   5   9   54.16    3.40
  -4   5  10   38.24    3.24
  -4   5  11   32.79    3.33
   4  -5 -11   31.23    2.41
  -4   5  12    7.67    2.08
  -4   5  13    4.72    2.26
  -4   5  14   -0.28    1.76
  -4   5  15    4.62    2.17
  -4   5  16    3.98    2.49
  -5   6 -15    2.56    2.25
  -5   6 -14    5.46    1.92
  -5   6 -13    3.18    1.68
  -5   6 -12    3.57    1.71
  -5   6 -11    8.81    1.88
  -5   6 -10   94.04    4.05
  -5   6 -10   99.21    4.66
  -5   6  -9   26.70    1.82
  -5   6  -9   24.89    2.35
  -5   6  -8   -0.97    0.77
  -5   6  -8    0.02    1.39
  -5   6  -7   74.61    2.92
  -5   6  -7   76.52    3.69
  -5   6  -6  114.46    3.96
  -5   6  -6  108.69    4.61
  -5   6  -5   70.78    3.28
  -5   6  -5   73.74    2.52
  -5   6  -4  134.08    5.14
  -5   6  -3  179.49    6.55
  -5   6  -2  431.65   14.53
   5  -6   2  424.63   14.01
  -5   6  -1  142.60    4.92
  -5   6  -1  142.57    5.39
  -5   6   0   15.07    1.46
  -5   6   0   13.36    0.99
  -5   6   1  136.46    4.97
  -5   6   1  137.22    5.20
  -5   6   2  420.71   14.69
  -5   6   2  444.83   14.75
  -5   6   2  435.42   14.12
  -5   6   3  194.17    7.01
  -5   6   3  189.63    6.94
  -5   6   4  123.24    4.76
  -5   6   4  121.18    4.87
  -5   6   5   76.97    3.45
  -5   6   5   74.32    3.22
   5  -6  -5   69.03    2.46
  -5   6   6  119.51    4.68
  -5   6   6  115.27    4.90
   5  -6  -6  109.93    3.97
  -5   6   7   72.70    3.73
  -5   6   7   72.76    3.43
   5  -6  -7   73.61    2.84
  -5   6   8    0.01    1.34
  -5   6   8    1.62    1.12
   5  -6  -8    1.82    0.83
  -5   6   9   22.38    2.49
   5  -6  -9   22.34    1.68
  -5   6  10   93.29    4.93
   5  -6 -10   94.91    3.98
  -5   6  11    8.86    2.17
  -5   6  12    6.51    2.02
  -5   6  13    2.58    1.95
  -5   6  14    1.85    1.96
  -5   6  15    0.98    1.93
  -6   7 -15    1.09    1.86
  -6   7 -14    1.28    1.81
  -6   7 -13    3.24    2.06
  -6   7 -12    3.97    1.77
  -6   7 -11    7.74    2.12
  -6   7 -10    1.91    1.60
  -6   7  -9   34.56    2.03
  -6   7  -9   33.48    2.78
  -6   7  -8   10.50    1.74
  -6   7  -8   10.66    1.03
  -6   7  -7   45.29    1.86
  -6   7  -7   48.06    2.80
  -6   7  -6    0.30    1.10
  -6   7  -5  106.98    4.45
  -6   7  -4   40.47    2.31
  -6   7  -3  148.90    5.68
  -6   7  -2    4.17    1.08
   6  -7   2    3.49    0.45
  -6   7  -1   62.97    3.01
  -6   7  -1   64.78    2.48
  -6   7   0   91.26    3.87
  -6   7   0   91.69    3.50
  -6   7   1   56.01    2.79
  -6   7   1   58.00    2.53
  -6   7   2    2.46    0.80
  -6   7   2    3.12    0.44
  -6   7   2    5.79    1.08
  -6   7   3  148.09    5.53
  -6   7   3  138.51    5.49
  -6   7   4   39.89    2.29
  -6   7   4   35.34    2.18
  -6   7   5  114.70    4.84
  -6   7   5  112.68    4.66
  -6   7   6    4.04    1.29
  -6   7   6    4.08    1.14
   6  -7  -6    2.75    0.31
  -6   7   7   45.67    2.96
  -6   7   7   47.68    2.71
   6  -7  -7   44.51    1.81
  -6   7   8   12.69    2.03
  -6   7   8   10.94    1.66
   6  -7  -8   10.06    0.98
  -6   7   9   29.46    2.90
   6  -7  -9   34.81    1.87
  -6   7  10    3.05    1.80
  -6   7  11   11.91    2.29
  -6   7  12    2.48    1.87
  -6   7  13    2.72    2.02
  -6   7  14   -0.25    1.80
  -6   7  15    2.68    2.11
  -7   8 -15   -0.51    2.25
  -7   8 -14    8.33    2.17
  -7   8 -13    2.61    1.86
  -7   8 -12    0.75    1.66
  -7   8 -11    1.22    1.92
  -7   8 -10   10.45    2.03
  -7   8  -9   23.50    2.43
  -7   8  -8   16.50    2.08
  -7   8  -7   47.81    2.95
  -7   8  -6   14.47    1.75
  -7   8  -5   22.70    2.09
  -7   8  -4  182.44    6.92
  -7   8  -3   34.05    2.24
  -7   8  -2   10.81    1.46
   7  -8   2    9.13    0.72
  -7   8  -1  107.18    4.50
  -7   8  -1  107.69    3.94
  -7   8   0   13.89    1.17
  -7   8   0   11.87    1.50
  -7   8   1  105.97    4.12
  -7   8   1  103.03    4.40
  -7   8   2    6.98    1.30
  -7   8   2    9.09    0.70
  -7   8   2    6.04    1.04
  -7   8   3   25.05    1.97
  -7   8   3   28.17    2.00
  -7   8   4  187.04    7.02
  -7   8   4  180.77    7.04
  -7   8   5   24.45    2.11
  -7   8   5   23.25    2.11
  -7   8   6   14.25    1.87
  -7   8   6   15.42    1.75
  -7   8   7   50.76    2.98
  -7   8   7   47.88    3.16
  -7   8   8   12.53    2.32
  -7   8   8   14.41    1.93
  -7   8   9   25.85    2.84
  -7   8   9   27.85    2.66
  -7   8  10   12.10    2.28
  -7   8  11    3.69    1.89
  -7   8  12    0.51    1.74
  -7   8  13    3.20    2.04
  -7   8  14    1.69    2.03
  -7   8  15   -0.59    1.89
  -8   9 -15   -0.27    1.87
  -8   9 -14    2.02    2.28
  -8   9 -13    0.56    2.09
  -8   9 -12   10.85    2.43
  -8   9 -11   22.70    2.61
  -8   9 -10    2.99    1.72
  -8   9  -9   29.86    2.75
  -8   9  -8   37.04    3.07
  -8   9  -7   13.57    1.95
  -8   9  -6   10.99    1.78
  -8   9  -5   51.09    3.11
  -8   9  -4   12.73    1.74
  -8   9  -3  204.23    7.59
   8  -9   3  196.07    6.62
  -8   9  -2    5.84    1.44
   8  -9   2    7.68    0.76
  -8   9  -1   21.69    2.05
  -8   9  -1   23.09    1.38
  -8   9   0  156.11    5.67
  -8   9   0  150.13    6.09
  -8   9   1   25.37    1.72
  -8   9   1   25.25    1.87
  -8   9   2    6.71    1.40
  -8   9   2    7.60    1.28
  -8   9   2    6.52    0.72
  -8   9   3  221.69    7.99
  -8   9   3  202.30    7.91
  -8   9   4   15.59    1.75
  -8   9   4   15.32    1.76
  -8   9   5   47.72    2.92
  -8   9   5   49.94    2.92
  -8   9   6   17.33    2.10
  -8   9   6   12.06    1.82
  -8   9   7    9.45    1.98
  -8   9   7   16.50    2.03
  -8   9   8   36.50    3.04
  -8   9   8   32.37    3.22
  -8   9   9   28.39    2.73
  -8   9   9   32.12    3.13
  -8   9  10    5.16    1.98
  -8   9  10    4.51    1.66
  -8   9  11   19.45    2.75
  -8   9  12    7.62    2.25
  -8   9  13   -2.29    1.80
  -8   9  14    0.65    2.00
  -8   9  15    4.93    2.35
  -9  10 -14    4.61    2.13
  -9  10 -13    2.68    1.88
  -9  10 -12    1.80    1.75
  -9  10 -11    3.02    1.77
  -9  10 -10   42.51    3.25
  -9  10  -9   13.61    2.18
  -9  10  -8    2.10    1.68
  -9  10  -7   41.45    3.03
  -9  10  -6   31.52    2.63
  -9  10  -5   11.85    1.87
  -9  10  -4   72.48    3.76
  -9  10  -3   37.35    2.58
   9 -10   3   30.19    1.34
  -9  10  -2  178.96    7.10
   9 -10   2  181.88    6.31
  -9  10  -1   29.66    2.44
   9 -10   1   27.83    1.60
  -9  10   0   -0.37    0.81
  -9  10   0   -0.53    1.18
  -9  10   1   27.37    1.60
  -9  10   1   29.76    2.43
  -9  10   1   27.19    1.90
  -9  10   2  177.02    6.14
  -9  10   2  183.55    6.81
  -9  10   2  171.52    6.93
  -9  10   3   31.47    1.36
  -9  10   3   31.05    2.40
  -9  10   3   37.12    2.43
  -9  10   4   78.85    3.79
  -9  10   4   74.32    3.71
  -9  10   5    9.50    1.75
  -9  10   5    7.99    1.67
  -9  10   6   34.18    2.71
  -9  10   6   32.31    2.81
  -9  10   7   38.10    3.25
  -9  10   7   45.11    3.10
  -9  10   8    3.55    1.67
  -9  10   8    5.04    2.08
  -9  10   9   12.68    2.21
  -9  10   9   14.81    2.44
  -9  10  10   40.25    3.68
  -9  10  10   46.72    3.54
  -9  10  11    2.33    1.93
  -9  10  12    4.73    2.11
  -9  10  13    0.43    1.89
  -9  10  14    5.53    2.38
 -10  11 -14    3.35    2.06
 -10  11 -13    3.70    2.36
 -10  11 -12    2.58    2.26
 -10  11 -11    3.60    2.17
 -10  11 -10   11.96    2.18
 -10  11  -9    7.43    1.95
 -10  11  -8    3.29    1.78
 -10  11  -7    4.10    2.09
 -10  11  -6   19.63    2.37
 -10  11  -5   12.13    2.08
 -10  11  -4   89.56    4.44
 -10  11  -3   42.28    2.99
  10 -11   3   44.40    1.85
 -10  11  -2    3.07    1.57
  10 -11   2    6.39    0.89
 -10  11  -1    9.22    1.76
  10 -11   1   10.59    1.17
 -10  11   0    1.94    1.41
 -10  11   0    2.70    1.03
 -10  11   1   10.17    1.43
 -10  11   1   10.94    1.18
 -10  11   1   12.81    1.96
 -10  11   2    6.17    0.87
 -10  11   2    3.98    1.36
 -10  11   2    4.56    1.57
 -10  11   3   47.09    1.97
 -10  11   3   54.18    3.19
 -10  11   3   49.24    3.05
 -10  11   4   80.36    4.08
 -10  11   4   84.94    4.27
 -10  11   5   14.93    2.09
 -10  11   5   16.46    2.26
 -10  11   6   19.37    2.37
 -10  11   6   20.30    2.46
 -10  11   7    5.57    1.82
 -10  11   7    7.73    1.97
 -10  11   8    4.35    1.79
 -10  11   8    4.91    1.95
 -10  11   9    9.05    1.98
 -10  11   9    7.36    2.06
 -10  11  10    7.32    2.18
 -10  11  10   11.63    2.20
 -10  11  11    4.70    2.08
 -10  11  11    4.60    1.81
 -10  11  12    3.89    2.11
 -10  11  13    1.56    2.09
 -10  11  14    4.89    2.35
 -11  12 -13    1.15    2.40
 -11  12 -12    4.11    2.35
 -11  12 -11    8.79    2.51
 -11  12 -10   -0.09    1.68
 -11  12  -9    2.03    1.75
 -11  12  -8    2.84    1.80
 -11  12  -7    3.24    1.87
 -11  12  -6    1.02    1.79
 -11  12  -5    6.74    1.96
 -11  12  -4    9.01    1.97
 -11  12  -3   39.90    3.07
  11 -12   2    1.98    0.90
 -11  12  -1    9.93    1.97
  11 -12   1    8.31    1.21
 -11  12   0   46.19    3.30
 -11  12   0   49.70    2.64
  11 -12   0   53.64    2.70
 -11  12   1    7.42    1.49
 -11  12   1    5.64    1.12
 -11  12   1    9.41    1.92
 -11  12   2    4.42    0.92
 -11  12   2    4.79    1.75
 -11  12   2    2.74    1.42
 -11  12   3   42.49    2.97
 -11  12   3   36.15    2.67
 -11  12   4    8.11    1.94
 -11  12   4    7.40    1.86
 -11  12   5    7.35    1.81
 -11  12   5    6.88    1.93
 -11  12   6    2.26    1.74
 -11  12   6    1.74    1.69
 -11  12   7    1.82    1.78
 -11  12   7    1.36    1.69
 -11  12   8    6.21    1.90
 -11  12   8    2.50    1.83
 -11  12   9    2.52    1.71
 -11  12   9    0.03    1.69
 -11  12  10    0.93    1.90
 -11  12  10    3.00    1.80
 -11  12  11    5.23    2.19
 -11  12  11   10.34    2.26
 -11  12  12    3.92    2.08
 -11  12  13    3.44    2.48
 -12  13 -13   -1.64    1.86
 -12  13 -12    3.07    2.44
 -12  13 -11    2.70    1.97
 -12  13 -10    0.53    1.81
 -12  13  -9   -2.47    1.62
 -12  13  -8    5.68    2.00
 -12  13  -7    9.99    2.20
 -12  13  -6    1.00    1.83
 -12  13  -5    8.29    2.10
 -12  13  -4    7.58    2.06
 -12  13  -3    1.38    1.77
 -12  13  -2    5.24    1.88
  12 -13   2    4.06    0.99
 -12  13  -1   28.79    2.88
  12 -13   1   28.51    2.00
 -12  13   0   46.29    2.63
 -12  13   0   42.55    3.29
  12 -13   0   45.86    2.53
 -12  13   1   30.01    2.35
 -12  13   1   28.05    2.85
 -12  13   1   30.58    2.00
 -12  13   2    2.58    1.47
 -12  13   2    5.16    1.03
 -12  13   2    7.26    1.91
 -12  13   3    0.61    1.65
 -12  13   3    4.35    1.71
 -12  13   4    7.59    1.75
 -12  13   4    7.31    1.72
 -12  13   5    9.04    2.21
 -12  13   5    5.98    1.99
 -12  13   6    1.82    1.79
 -12  13   6    1.30    1.68
 -12  13   7   16.06    2.52
 -12  13   7   16.52    2.46
 -12  13   8    9.91    2.47
 -12  13   8    5.47    1.98
 -12  13   9   -0.53    1.69
 -12  13   9    0.43    1.68
 -12  13  10   -0.03    2.14
 -12  13  10    3.07    1.88
 -12  13  11    3.37    2.10
 -12  13  11    1.52    1.76
 -12  13  12    0.54    1.94
 -12  13  13    2.10    2.16
 -13  14 -12    1.65    2.14
 -13  14 -11   -0.74    1.94
 -13  14 -10   -1.27    1.86
 -13  14  -9    1.41    1.94
 -13  14  -8    4.53    2.01
 -13  14  -7    2.24    1.88
 -13  14  -6   33.52    3.17
 -13  14  -5    4.35    1.92
 -13  14  -4    0.79    1.85
 -13  14  -3    1.44    1.91
 -13  14  -2   24.24    2.77
 -13  14  -1   -0.19    1.32
 -13  14  -1    0.63    1.72
  13 -14   1   -0.67    1.07
 -13  14   0   49.30    2.76
 -13  14   0   53.09    3.69
  13 -14   0   47.01    2.86
 -13  14   1   -0.74    1.69
 -13  14   1   -0.45    1.02
  13 -14  -1    1.42    1.30
 -13  14   2   22.29    2.37
 -13  14   2   23.89    2.70
 -13  14   3   -1.56    1.65
 -13  14   3   -0.19    1.59
 -13  14   4   -2.44    1.65
 -13  14   4   -3.79    1.57
 -13  14   5    0.73    1.71
 -13  14   5    0.61    1.79
 -13  14   6   32.39    3.15
 -13  14   6   41.68    3.65
 -13  14   7    3.31    2.07
 -13  14   7    0.53    1.67
 -13  14   8    4.85    1.99
 -13  14   8    9.08    2.24
 -13  14   9   -0.83    2.04
 -13  14   9    1.22    2.13
 -13  14  10    1.64    2.16
 -13  14  10    2.93    2.34
 -13  14  11    2.72    2.01
 -13  14  11    3.23    2.12
 -13  14  12    5.46    2.66
 -13  14  12    2.87    2.02
 -14  15 -11   -0.14    2.01
 -14  15 -10   -2.12    2.25
 -14  15  -9    2.30    2.46
 -14  15  -8    8.68    2.26
 -14  15  -7    8.89    2.30
 -14  15  -6    2.69    1.94
 -14  15  -5    1.94    1.85
 -14  15  -4    5.00    1.97
 -14  15  -3    1.73    1.84
 -14  15  -2    0.12    1.84
 -14  15  -2    0.50    1.40
 -14  15  -1   27.20    2.99
 -14  15  -1   30.46    2.38
 -14  15   0   31.40    3.20
 -14  15   0   31.90    2.41
  14 -15   0   35.99    2.54
 -14  15   1   30.91    3.24
  14 -15  -1   37.16    2.79
 -14  15   2   -1.00    1.67
  14 -15  -2   -1.05    1.52
 -14  15   3    2.68    1.86
 -14  15   3    2.07    1.69
 -14  15   4    3.24    1.63
 -14  15   4    2.26    1.84
 -14  15   5    2.21    1.82
 -14  15   5   -0.15    1.52
 -14  15   6    5.21    2.08
 -14  15   6    2.09    1.76
 -14  15   7   10.19    2.53
 -14  15   7    9.75    2.34
 -14  15   8    9.57    2.32
 -14  15   8    2.36    2.29
 -14  15   9    3.62    2.13
 -14  15   9    5.01    2.13
 -14  15  10   -0.12    1.88
 -14  15  10    3.13    2.00
 -14  15  11    2.03    2.06
 -14  15  11   -0.64    2.01
 -15  16 -10   -0.81    1.89
 -15  16  -9   -2.57    1.87
 -15  16  -8    7.82    2.61
 -15  16  -7   10.89    2.73
 -15  16  -6    2.22    1.92
 -15  16  -5   -0.55    1.76
 -15  16  -4    1.19    1.83
 -15  16  -4    0.39    1.61
 -15  16  -3    1.73    1.79
 -15  16  -3    3.89    1.64
 -15  16  -2    1.22    1.81
 -15  16  -2    2.96    1.49
 -15  16  -1   14.57    2.15
 -15  16  -1   12.53    1.84
 -15  16   0    5.19    2.07
 -15  16   1   10.22    2.27
  15 -16  -1   11.80    1.80
 -15  16   2    0.08    1.73
  15 -16  -2    3.79    1.67
 -15  16   3    1.63    1.75
  15 -16  -3    4.61    1.71
 -15  16   4   -1.23    1.65
 -15  16   4   -3.05    1.69
  15 -16  -4    1.46    1.75
 -15  16   5   -0.05    1.88
 -15  16   5    0.96    1.81
 -15  16   6    1.09    1.89
 -15  16   6    1.51    1.80
 -15  16   7   10.04    2.50
 -15  16   7    8.04    2.28
 -15  16   8    5.01    2.12
 -15  16   8    3.85    2.10
 -15  16   9    2.95    2.10
 -15  16   9   -0.52    2.24
 -15  16  10   -0.87    2.23
 -15  16  10    0.02    2.05
 -16  17  -9   -0.07    2.01
 -16  17  -9    0.16    1.89
 -16  17  -8   -0.75    1.76
 -16  17  -8   -1.67    1.89
 -16  17  -7   -1.38    1.87
 -16  17  -7    1.05    1.76
 -16  17  -6    5.67    1.94
 -16  17  -6   10.72    2.45
 -16  17  -5    1.55    1.85
 -16  17  -5   -0.29    1.81
 -16  17  -4    6.96    2.16
 -16  17  -4    2.87    1.55
 -16  17  -3    4.36    2.03
 -16  17  -3    3.17    1.62
 -16  17  -2    2.22    1.40
 -16  17  -2   -0.99    1.79
 -16  17  -1   -1.36    1.72
 -16  17   0    1.76    1.93
 -16  17   1    0.32    1.78
 -16  17   2   -1.26    1.67
  16 -17  -2   -0.07    1.46
 -16  17   3    3.22    1.92
  16 -17  -3    0.93    1.70
 -16  17   4    7.42    2.22
  16 -17  -4    4.93    1.64
 -16  17   5    0.40    1.92
  16 -17  -5    1.54    2.00
 -16  17   6    8.06    2.29
 -16  17   6    8.34    2.35
  16 -17  -6    9.59    2.33
 -16  17   7    1.32    1.93
 -16  17   7    1.44    1.94
  16 -17  -7    0.60    1.91
 -16  17   8    0.89    2.08
 -16  17   8   -2.23    1.76
  16 -17  -8    0.77    2.37
 -16  17   9   -1.35    1.88
 -16  17   9   -0.74    2.04
  16 -17  -9   -0.02    2.05
 -17  18  -8   -0.08    1.97
 -17  18  -8    0.86    2.23
 -17  18  -7   -0.26    1.95
 -17  18  -7    3.41    2.12
 -17  18  -6    1.98    2.00
 -17  18  -6    3.32    2.13
 -17  18  -5    1.66    1.83
 -17  18  -5   -1.21    1.84
 -17  18  -4    0.97    0.78
 -17  18  -4    4.09    2.07
 -17  18  -3    0.63    1.97
 -17  18  -3    4.73    1.78
 -17  18  -2    7.97    2.34
 -17  18  -1   -0.75    1.81
 -17  18   0    0.10    1.83
 -17  18   1    0.33    1.85
 -17  18   2   10.35    2.34
 -17  18   3    3.90    2.05
  17 -18  -3    3.43    1.91
 -17  18   4    7.29    2.25
  17 -18  -4    1.99    0.84
 -17  18   5    1.16    2.02
  17 -18  -5   -0.22    1.58
 -17  18   6    2.32    2.05
  17 -18  -6    8.08    2.44
 -17  18   7    1.96    2.09
  17 -18  -7    4.46    2.10
 -17  18   8   -0.26    1.96
  17 -18  -8    0.52    2.33
 -18  19  -6    0.96    1.95
 -18  19  -6    1.55    1.98
 -18  19  -5    2.08    1.86
 -18  19  -5    2.56    2.10
 -18  19  -4    4.88    2.21
 -18  19  -3    3.80    2.11
 -18  19  -2   -0.88    1.83
 -18  19  -1    1.66    2.09
 -18  19   0    7.50    2.28
 -18  19   1    1.80    1.94
 -18  19   2    3.71    2.06
 -18  19   3    5.58    2.31
 -18  19   4    2.33    2.03
  18 -19  -4    1.65    2.13
 -18  19   5    3.41    2.17
  18 -19  -5    6.26    2.37
 -18  19   6    1.09    2.08
  18 -19  -6    1.61    2.20
 -19  20  -4    2.41    2.09
 -19  20  -3    4.40    2.29
 -19  20  -2   -1.51    1.80
 -19  20  -1    1.18    2.03
 -19  20   0   -0.03    1.88
 -19  20   1    1.42    1.94
 -19  20   2    0.64    1.96
 -19  20   3   -1.41    1.86
 -19  20   4    4.50    2.26
 -21  19   1    0.19    1.96
 -21  19   0    1.14    2.02
 -21  19  -1    0.02    1.79
  20 -18  -5   -3.19    1.89
 -20  18   5   -1.22    1.84
 -20  18   4    2.52    2.13
 -20  18   3    3.20    2.04
 -20  18   2   -0.40    1.87
 -20  18   1   -0.23    1.79
 -20  18   0    1.86    2.33
 -20  18  -1   -2.82    1.71
 -20  18  -2   -0.85    1.75
 -20  18  -3   -1.45    2.21
 -20  18  -4    5.10    2.27
 -20  18  -5    1.11    2.00
 -20  18  -5    1.23    2.02
  19 -17  -7   -5.23    2.11
 -19  17   7   -1.13    1.93
  19 -17  -6   -1.64    2.14
 -19  17   6   -0.48    1.87
  19 -17  -5   -0.31    2.11
 -19  17   5   -0.88    1.81
  19 -17  -4    0.78    1.36
 -19  17   4   -0.66    1.74
  19 -17  -3   -1.01    1.64
 -19  17   3    0.67    1.88
 -19  17   2    9.26    2.30
 -19  17   1    0.65    1.90
 -19  17   0    5.33    2.10
 -19  17  -1    0.64    1.74
 -19  17  -2    3.28    2.02
 -19  17  -3   -0.58    1.89
 -19  17  -3    1.50    1.65
 -19  17  -4    1.03    1.09
 -19  17  -4    0.02    1.84
 -19  17  -5    0.50    1.80
 -19  17  -5    2.80    2.33
 -19  17  -6   -0.52    1.81
 -19  17  -6   -0.89    1.94
 -19  17  -7    2.38    2.06
 -19  17  -7   -0.11    2.10
  18 -16  -8   -0.85    2.44
 -18  16   8   -1.14    1.96
  18 -16  -7    1.94    2.06
 -18  16   7   -0.33    1.81
  18 -16  -6    0.67    1.89
 -18  16   6    0.23    1.83
  18 -16  -5   -2.79    1.90
 -18  16   5   -1.76    1.70
  18 -16  -4    5.97    2.19
 -18  16   4    0.55    1.79
  18 -16  -3   11.14    2.32
 -18  16   3    9.01    2.24
  18 -16  -2   -1.28    1.66
 -18  16   2   -0.82    1.72
 -18  16   1   -1.79    1.64
 -18  16   0   -0.77    1.71
 -18  16  -1    1.41    1.80
 -18  16  -2   -0.44    1.49
 -18  16  -2    1.76    1.87
 -18  16  -3    5.60    1.87
 -18  16  -3    5.94    2.12
 -18  16  -4    0.23    1.77
 -18  16  -4    4.45    1.97
 -18  16  -5    1.25    1.60
 -18  16  -5   -2.18    2.09
 -18  16  -6    1.44    1.90
 -18  16  -6   -0.15    1.62
 -18  16  -7    1.48    1.77
 -18  16  -7   -2.32    2.11
 -18  16  -8   -1.31    1.76
 -18  16  -8   -0.30    1.79
  17 -15 -10   -2.67    1.98
  17 -15  -9    3.80    2.20
 -17  15   9    1.58    1.99
  17 -15  -8    4.06    2.43
 -17  15   8    2.72    2.05
  17 -15  -7    4.99    2.47
 -17  15   7    1.53    1.96
  17 -15  -6   10.58    2.61
 -17  15   6   11.44    2.47
  17 -15  -5    1.25    1.78
 -17  15   5    0.60    1.80
  17 -15  -4    5.11    2.00
 -17  15   4    5.09    1.97
  17 -15  -3    2.81    1.26
 -17  15   3    7.58    2.07
  17 -15  -2    1.16    1.55
 -17  15   2    1.70    1.75
  17 -15  -1    0.65    1.48
 -17  15   1    0.17    1.70
 -17  15   0   -0.05    1.65
 -17  15  -1   -1.15    1.62
 -17  15  -1    1.82    1.34
 -17  15  -2    2.78    1.85
 -17  15  -2   -0.42    1.34
 -17  15  -3    4.93    1.97
 -17  15  -3    1.35    1.16
 -17  15  -4    5.10    1.84
 -17  15  -4    2.14    1.88
 -17  15  -5    1.68    2.14
 -17  15  -5    0.95    1.80
 -17  15  -6    6.36    2.22
 -17  15  -6    9.08    2.50
 -17  15  -7    3.07    1.99
 -17  15  -7    0.84    1.74
 -17  15  -8    1.42    1.99
 -17  15  -8   -0.99    1.72
 -17  15  -9   -2.06    1.68
 -17  15  -9    0.86    2.28
 -17  15 -10    0.58    2.35
 -17  15 -10   -1.26    1.79
  16 -14 -11    0.74    2.21
  16 -14 -10    0.72    2.07
 -16  14  10   -0.87    1.88
  16 -14  -9    1.99    2.03
 -16  14   9   -0.88    1.78
  16 -14  -8    7.55    2.66
 -16  14   8    8.19    2.34
  16 -14  -7    1.86    2.19
 -16  14   7    2.98    2.02
  16 -14  -6    4.48    1.92
 -16  14   6    3.02    1.83
  16 -14  -5    0.03    1.87
 -16  14   5    2.35    1.79
  16 -14  -4    4.68    1.72
 -16  14   4    1.35    1.65
  16 -14  -3   -0.28    1.03
 -16  14   3    0.25    1.62
  16 -14  -2    0.05    1.49
 -16  14   2   -1.25    1.58
  16 -14  -1    1.14    1.43
 -16  14   1    2.03    1.78
  16 -14   0   16.34    2.04
 -16  14   0   18.25    2.53
 -16  14   0   18.46    1.99
 -16  14  -1    0.51    1.41
 -16  14  -1    4.41    1.87
 -16  14  -2    1.97    1.79
 -16  14  -2    0.37    1.56
 -16  14  -3    0.28    1.68
 -16  14  -3    0.11    0.86
 -16  14  -4    1.00    1.75
 -16  14  -4   -1.49    1.59
 -16  14  -5   -0.77    1.43
 -16  14  -5   -0.35    1.63
 -16  14  -6    4.79    1.99
 -16  14  -6    1.81    1.79
 -16  14  -7    1.12    1.83
 -16  14  -7    1.32    1.97
 -16  14  -8    6.65    2.12
 -16  14  -8    8.73    2.43
 -16  14  -9   -0.36    1.80
 -16  14  -9    3.69    2.00
 -16  14 -10    0.92    1.87
 -16  14 -10   -0.76    1.87
 -16  14 -11    1.15    1.99
 -16  14 -11   -0.52    1.92
  15 -13 -11    1.38    2.07
 -15  13  11    0.14    1.82
  15 -13 -10    4.53    2.25
 -15  13  10    4.96    2.15
  15 -13  -9   -0.74    1.90
 -15  13   9    1.59    1.90
  15 -13  -8   -0.33    2.09
 -15  13   8    0.05    1.67
  15 -13  -7   11.48    2.57
 -15  13   7   14.01    2.51
  15 -13  -6   13.70    2.37
 -15  13   6   13.93    2.44
  15 -13  -5    3.79    1.97
 -15  13   5    2.57    1.75
  15 -13  -4   12.25    2.28
 -15  13   4    9.55    2.17
  15 -13  -3    1.32    1.70
 -15  13   3    0.97    1.71
  15 -13  -2   10.39    1.95
 -15  13   2    8.60    2.05
  15 -13  -1   16.70    2.10
 -15  13   1   12.72    2.28
 -15  13   1   16.81    1.78
  15 -13   0    0.53    1.26
 -15  13   0   -0.29    1.33
 -15  13   0    0.90    1.78
  15 -13   1   18.09    1.99
 -15  13  -1   17.36    1.97
 -15  13  -1   17.33    2.51
 -15  13  -2   10.45    2.19
 -15  13  -2   10.21    1.86
 -15  13  -3    2.88    1.79
 -15  13  -3    2.77    1.68
 -15  13  -4    8.02    2.08
 -15  13  -4    8.13    1.79
 -15  13  -5    3.54    1.83
 -15  13  -5    4.10    1.82
 -15  13  -6    9.84    2.11
 -15  13  -6   10.25    2.06
 -15  13  -7   15.61    2.59
 -15  13  -7   11.20    2.19
 -15  13  -8    1.49    2.13
 -15  13  -8    2.45    2.10
 -15  13  -9    6.03    2.30
 -15  13  -9    1.99    1.85
 -15  13 -10    2.80    1.98
 -15  13 -10    2.89    1.93
 -15  13 -11    1.35    1.91
 -15  13 -11   -2.82    2.06
  14 -12 -12    2.98    2.31
  14 -12 -11    5.37    2.56
 -14  12  11    2.15    1.95
  14 -12 -10    6.18    2.32
 -14  12  10    2.87    1.95
  14 -12  -9   -2.70    2.06
 -14  12   9    4.21    1.96
  14 -12  -8    1.16    1.81
 -14  12   8   -1.16    1.54
  14 -12  -7   27.12    3.15
 -14  12   7   18.97    2.67
  14 -12  -6   -1.21    1.53
 -14  12   6   -0.49    1.57
  14 -12  -5    5.29    1.82
 -14  12   5    1.70    1.75
  14 -12  -4    5.32    1.97
 -14  12   4    3.53    1.79
  14 -12  -3    0.89    1.41
 -14  12   3    2.70    1.41
  14 -12  -2   -0.28    1.17
 -14  12   2   -1.28    1.51
 -14  12   2    0.11    1.18
  14 -12  -1   21.65    2.16
 -14  12   1   21.51    2.55
 -14  12   1   20.35    1.84
  14 -12   0    0.76    1.16
 -14  12   0    2.93    1.34
 -14  12   0    3.65    1.77
  14 -12   1   19.14    1.86
 -14  12  -1   20.57    2.03
 -14  12  -1   14.92    2.29
  14 -12   2    1.64    1.17
 -14  12  -2    0.55    1.24
 -14  12  -2    0.68    1.67
 -14  12  -3    0.50    1.68
 -14  12  -3    1.53    1.37
 -14  12  -4    1.56    1.67
 -14  12  -4    2.29    1.74
 -14  12  -5    3.97    1.88
 -14  12  -5    2.21    1.76
 -14  12  -6    1.02    1.74
 -14  12  -6    0.28    1.57
 -14  12  -7   15.97    2.61
 -14  12  -7   21.60    2.59
 -14  12  -8   -0.24    1.60
 -14  12  -8    1.42    1.74
 -14  12  -9   -1.21    1.96
 -14  12  -9   -0.31    1.95
 -14  12 -10    3.41    1.94
 -14  12 -10   -0.75    1.73
 -14  12 -11    1.54    2.32
 -14  12 -11    3.96    2.24
 -14  12 -12   -0.09    1.97
 -14  12 -12   -0.25    1.80
  13 -11 -13    2.13    2.28
  13 -11 -12    1.94    2.17
  13 -11 -11   -1.08    1.90
  13 -11 -10   20.95    3.27
 -13  11  10   19.55    2.70
  13 -11  -9    0.18    1.77
 -13  11   9    1.10    1.62
  13 -11  -8   16.54    2.55
 -13  11   8   13.06    2.30
  13 -11  -7   -0.06    1.68
 -13  11   7   -0.42    1.56
  13 -11  -6    0.87    1.67
 -13  11   6   -2.13    1.51
  13 -11  -5    0.32    1.54
 -13  11   5   -1.12    1.05
  13 -11  -4    3.16    1.75
 -13  11   4    3.57    1.69
  13 -11  -3    4.24    1.62
 -13  11   3    1.86    1.54
 -13  11   3    2.32    1.10
 -13  11   2   47.07    2.49
 -13  11   2   41.42    3.11
  13 -11  -1    4.38    1.40
 -13  11   1    3.42    1.67
 -13  11   1    2.61    1.14
  13 -11   0   79.24    3.71
 -13  11   0   80.49    3.59
 -13  11   0   77.95    4.18
  13 -11   1    4.11    1.26
 -13  11  -1    6.11    1.42
 -13  11  -1    3.86    1.74
  13 -11   2   39.70    2.35
 -13  11  -2   41.85    3.07
  13 -11   3    2.37    1.03
 -13  11  -3    3.59    1.36
 -13  11  -3    1.29    1.63
 -13  11  -4    3.90    1.75
 -13  11  -4    3.60    2.04
 -13  11  -5    2.08    1.70
 -13  11  -5    2.33    1.84
 -13  11  -6   -0.35    1.61
 -13  11  -6    1.62    1.70
 -13  11  -7    4.05    1.78
 -13  11  -7    0.82    1.69
 -13  11  -8   12.96    2.28
 -13  11  -8   12.37    2.17
 -13  11  -9   -0.58    1.70
 -13  11  -9    2.47    2.02
 -13  11 -10   18.22    2.89
 -13  11 -10   15.15    2.34
 -13  11 -11   -2.16    1.59
 -13  11 -11    0.02    1.91
 -13  11 -12    7.15    2.24
 -13  11 -12    5.46    2.30
 -13  11 -13   -3.34    2.09
 -13  11 -13    0.23    2.14
  12 -10 -13    2.92    2.17
  12 -10 -12    3.36    2.12
  12 -10 -11   12.40    2.61
  12 -10 -10    9.81    2.38
 -12  10  10    8.44    2.31
 -12  10  10   10.46    2.20
  12 -10  -9    4.30    2.05
 -12  10   9    2.52    1.68
 -12  10   9    2.42    1.84
  12 -10  -8    1.17    1.76
 -12  10   8    2.65    1.69
 -12  10   8    3.40    1.86
  12 -10  -7    1.84    1.78
 -12  10   7    0.37    1.66
 -12  10   7    1.69    1.75
  12 -10  -6   -0.43    1.91
 -12  10   6    0.63    1.49
  12 -10  -5   13.83    2.26
 -12  10   5   17.33    2.27
  12 -10  -4   11.03    2.04
 -12  10   4   10.06    1.86
  12 -10  -3   41.28    2.61
 -12  10   3   37.01    2.55
 -12  10   3   36.23    2.06
  12 -10  -2    3.49    1.16
 -12  10   2    4.01    1.12
 -12  10   2    1.98    1.44
  12 -10  -1    3.39    1.23
 -12  10   1   -0.88    0.86
 -12  10   1    1.23    1.39
  12 -10   0   -0.21    0.97
 -12  10   0    1.58    1.42
 -12  10   0    0.97    0.96
  12 -10   1    0.82    1.00
 -12  10  -1    3.45    1.20
 -12  10  -1    2.74    1.52
  12 -10   2    4.72    1.11
 -12  10  -2    3.87    1.14
 -12  10  -2    4.48    1.61
  12 -10   3   31.93    2.03
 -12  10  -3   36.69    2.51
 -12  10  -3   43.60    2.86
 -12  10  -4   12.60    2.06
 -12  10  -4   11.77    1.98
 -12  10  -5   15.49    2.15
 -12  10  -5   15.99    2.33
 -12  10  -6    1.90    1.91
 -12  10  -6    1.46    1.60
 -12  10  -7    2.23    1.78
 -12  10  -7    3.45    2.01
 -12  10  -8    2.75    1.71
 -12  10  -8    2.00    1.76
 -12  10  -9    2.38    1.81
 -12  10  -9    4.06    1.99
 -12  10 -10    5.17    2.02
 -12  10 -10    9.98    1.99
 -12  10 -11    5.67    1.90
 -12  10 -11    5.38    2.12
 -12  10 -12    0.84    1.90
 -12  10 -12    1.41    2.00
 -12  10 -13    5.36    2.03
 -12  10 -13    5.47    2.31
  11  -9 -14    5.13    2.56
  11  -9 -13    1.51    2.14
  11  -9 -12    3.75    2.18
  11  -9 -11   14.35    2.62
 -11   9  11   11.06    2.48
  11  -9 -10    2.74    1.91
 -11   9  10    0.77    1.51
 -11   9  10    2.14    1.80
  11  -9  -9   11.52    2.34
 -11   9   9   12.37    2.33
 -11   9   9   13.80    2.24
 -11   9   8    8.54    1.96
 -11   9   8    9.60    2.42
  11  -9  -7    6.23    1.96
 -11   9   7    4.31    1.78
 -11   9   7    5.75    1.79
  11  -9  -6   63.32    3.72
 -11   9   6   64.73    3.67
 -11   9   6   54.81    3.60
  11  -9  -5   12.05    1.92
 -11   9   5   13.58    2.01
  11  -9  -4   25.23    2.31
 -11   9   4   30.21    2.56
  11  -9  -3   82.59    3.80
 -11   9   3   78.16    3.93
 -11   9   3   78.05    3.21
  11  -9  -2   26.35    2.07
 -11   9   2   26.40    1.69
 -11   9   2   24.53    2.27
  11  -9  -1   18.27    1.68
 -11   9   1   15.40    1.39
 -11   9   1   16.21    1.92
  11  -9   0   12.74    1.42
 -11   9   0   10.28    1.29
 -11   9   0   12.00    1.71
  11  -9   1   17.71    1.51
 -11   9  -1   16.64    1.94
 -11   9  -1   17.10    1.63
  11  -9   2   25.55    1.69
 -11   9  -2   26.20    2.12
 -11   9  -2   25.63    2.30
  11  -9   3   74.95    3.28
 -11   9  -3   86.32    3.84
 -11   9  -3   82.93    3.94
  11  -9   4   27.94    1.49
 -11   9  -4   23.54    2.23
 -11   9  -4   25.68    2.50
 -11   9  -5   10.40    1.78
 -11   9  -5    9.12    1.80
 -11   9  -6   71.03    3.86
 -11   9  -6   63.19    3.81
 -11   9  -7    6.56    1.88
 -11   9  -7    7.70    1.75
 -11   9  -8   11.13    1.99
 -11   9  -9   13.81    2.39
 -11   9  -9   11.72    2.23
 -11   9 -10    1.43    1.78
 -11   9 -10    1.68    1.76
 -11   9 -11   12.33    2.35
 -11   9 -11   11.24    2.39
 -11   9 -12   -2.40    2.06
 -11   9 -12    1.28    1.95
 -11   9 -13   -1.13    1.87
 -11   9 -13   -2.16    1.77
 -11   9 -14   10.22    2.53
  10  -8 -14    2.67    2.18
  10  -8 -13    1.17    1.97
  10  -8 -12    3.92    2.12
 -10   8  12    0.20    1.81
  10  -8 -11    6.48    2.17
 -10   8  11    6.20    2.08
 -10   8  10   17.88    2.80
 -10   8   9    5.50    1.96
 -10   8   9    5.22    1.79
 -10   8   8    2.20    1.58
 -10   8   8    3.34    1.72
 -10   8   7   15.13    2.22
 -10   8   7   14.14    2.05
 -10   8   6   26.93    2.50
 -10   8   6   24.45    2.47
  10  -8  -5   12.66    1.88
 -10   8   5   13.15    1.81
 -10   8   5    9.15    1.93
  10  -8  -4   68.56    3.49
 -10   8   4   69.44    3.55
  10  -8  -3   47.18    2.64
 -10   8   3   38.17    1.92
 -10   8   3   38.32    2.54
  10  -8  -2   23.55    1.78
 -10   8   2   23.93    2.10
 -10   8   2   22.94    1.53
  10  -8  -1   11.09    1.33
 -10   8   1   13.92    1.23
 -10   8   1   12.58    1.58
  10  -8   0   35.65    1.99
 -10   8   0   37.52    2.43
 -10   8   0   35.07    1.94
  10  -8   1   12.81    1.25
 -10   8  -1   15.99    1.76
 -10   8  -1   11.39    1.30
  10  -8   2   20.62    1.49
 -10   8  -2   27.37    2.17
 -10   8  -2   24.00    1.75
  10  -8   3   41.57    2.08
 -10   8  -3   48.47    2.71
 -10   8  -3   46.47    2.71
  10  -8   4   67.57    2.68
 -10   8  -4   70.62    3.50
 -10   8  -4   69.83    3.43
  10  -8   5   12.42    0.81
 -10   8  -5   12.15    1.89
 -10   8  -5   12.80    1.84
 -10   8  -6   26.64    2.33
 -10   8  -7   13.10    1.89
 -10   8  -8    5.66    1.57
 -10   8  -9    6.72    2.00
 -10   8 -10   18.92    2.42
 -10   8 -11    7.42    1.98
 -10   8 -12   -1.22    1.76
 -10   8 -12    3.20    1.97
 -10   8 -13    0.40    1.93
 -10   8 -13   -0.33    1.84
 -10   8 -14    0.66    2.01
   9  -7 -15   -0.92    2.00
   9  -7 -14    2.28    2.19
   9  -7 -13    0.08    2.34
  -9   7  13    6.54    2.61
   9  -7 -12    7.31    2.19
  -9   7  12    7.07    2.22
  -9   7  11    0.85    1.70
  -9   7  10    1.58    1.78
  -9   7   9    2.22    1.72
  -9   7   8   19.58    2.58
  -9   7   8   23.31    2.43
  -9   7   7   38.43    2.90
  -9   7   7   41.73    2.85
  -9   7   6   22.98    2.23
  -9   7   6   22.65    2.44
  -9   7   5   10.90    1.58
  -9   7   5    9.51    1.61
   9  -7  -4  122.55    5.10
  -9   7   4  121.23    5.07
  -9   7   4  121.05    5.11
   9  -7  -3   40.24    2.33
  -9   7   3   37.10    1.79
  -9   7   3   43.75    2.48
   9  -7  -2    1.76    0.91
  -9   7   2    1.70    1.09
  -9   7   2    3.27    0.81
  -9   7   1   60.06    2.97
  -9   7   1   59.19    2.52
   9  -7   0   22.36    1.51
  -9   7   0   19.86    1.43
  -9   7   0   26.18    2.00
   9  -7   1   58.39    2.60
  -9   7  -1   63.09    3.03
   9  -7   2    2.06    0.77
  -9   7  -2    3.23    1.01
  -9   7  -2    4.46    1.23
   9  -7   3   37.96    1.89
  -9   7  -3   44.10    2.44
  -9   7  -3   40.31    2.49
   9  -7   4  124.94    4.43
  -9   7  -4  124.93    5.06
  -9   7  -4  123.85    5.16
   9  -7   5    8.99    0.74
  -9   7  -5    8.11    1.42
   9  -7   6   22.89    1.20
  -9   7  -6   26.22    2.05
   9  -7   7   39.63    1.78
  -9   7  -7   40.55    2.78
  -9   7  -8   22.18    2.32
  -9   7  -9   -0.36    1.61
  -9   7 -10    0.23    1.38
  -9   7 -11    1.74    1.63
  -9   7 -12    5.98    1.94
  -9   7 -13    6.28    2.48
  -9   7 -13    6.23    2.03
  -9   7 -14   -0.46    2.26
  -9   7 -15   -1.98    1.86
   8  -6 -15   -2.45    1.90
   8  -6 -14    0.68    2.06
   8  -6 -13    7.53    2.60
  -8   6  13    7.10    2.48
  -8   6  12    1.08    2.01
  -8   6  11    0.95    1.70
  -8   6  10    0.23    2.00
  -8   6   9   11.22    2.06
  -8   6   8    0.15    1.27
  -8   6   8   -0.44    1.36
  -8   6   7   36.90    2.60
  -8   6   7   36.87    2.71
  -8   6   6   52.87    2.95
  -8   6   6   52.63    3.20
  -8   6   5    3.29    1.21
  -8   6   5    3.73    1.16
  -8   6   4   35.51    2.23
  -8   6   4   30.39    2.09
   8  -6  -3    4.57    1.21
  -8   6   3    6.22    1.19
   8  -6  -2    6.76    1.05
  -8   6   2    8.83    0.90
  -8   6   2    8.13    1.21
  -8   6   1   35.02    2.02
  -8   6   1   33.60    1.66
   8  -6   0   15.95    1.22
  -8   6   0   18.33    1.59
  -8   6   0   14.57    1.17
   8  -6   1   34.41    1.75
  -8   6  -1   36.70    2.09
   8  -6   2    7.88    0.93
  -8   6  -2    8.41    1.23
  -8   6  -2    7.41    1.19
   8  -6   3    5.29    0.74
  -8   6  -3    5.09    1.24
  -8   6  -3    4.01    1.09
   8  -6   4   33.11    1.47
  -8   6  -4   30.31    2.02
   8  -6   5    3.32    0.59
  -8   6  -5    3.75    1.25
   8  -6   6   52.90    2.12
  -8   6  -6   49.28    2.68
   8  -6   7   38.90    1.85
  -8   6  -7   37.27    2.37
   8  -6   8    0.86    0.80
  -8   6  -8    0.73    1.18
   8  -6   9   13.85    1.40
  -8   6  -9   14.09    1.85
  -8   6 -10    1.88    1.68
  -8   6 -11    0.63    1.57
  -8   6 -12    0.98    1.69
  -8   6 -13    0.78    2.15
  -8   6 -13    2.46    1.89
  -8   6 -14    1.49    1.95
  -8   6 -14    4.19    2.14
  -8   6 -15    0.05    1.91
   7  -5 -15   -1.36    1.84
   7  -5 -14    6.57    2.28
  -7   5  14    1.27    1.91
   7  -5 -13   -1.97    1.74
  -7   5  13   -0.83    1.71
  -7   5  12    2.27    1.82
  -7   5  11    4.93    1.90
  -7   5  10   16.17    2.39
  -7   5   9   13.18    2.15
  -7   5   8   24.27    2.41
  -7   5   7    3.71    1.41
  -7   5   7    2.11    1.15
  -7   5   6   16.21    1.80
  -7   5   6   17.18    1.76
  -7   5   5   13.79    1.61
  -7   5   5   13.81    1.55
  -7   5   4    6.57    1.02
  -7   5   4    7.56    1.24
   7  -5  -3   33.62    2.03
  -7   5   3   39.46    2.14
  -7   5   3   38.16    2.08
   7  -5  -2   50.04    2.28
  -7   5   2   43.45    2.27
  -7   5   2   43.81    1.94
   7  -5  -1   37.81    2.05
  -7   5   1   48.23    1.92
  -7   5   1   42.41    2.08
   7  -5   0  274.51    9.22
  -7   5   0  264.04    9.34
  -7   5   0  264.16    9.13
   7  -5   1   48.48    2.01
  -7   5  -1   38.02    2.07
  -7   5  -1   46.29    2.27
   7  -5   2   46.05    2.03
  -7   5  -2   47.04    2.30
  -7   5  -2   49.55    2.45
   7  -5   3   39.89    1.66
  -7   5  -3   32.95    2.04
  -7   5  -3   35.36    2.10
   7  -5   4    7.04    0.71
  -7   5  -4    5.46    1.17
   7  -5   5   12.69    0.91
  -7   5  -5   12.59    1.35
   7  -5   6   16.07    1.10
  -7   5  -6   13.85    1.44
   7  -5   7    3.44    0.82
  -7   5  -7    2.90    1.08
   7  -5   8   22.92    1.65
  -7   5  -8   25.25    1.99
   7  -5   9   14.05    1.48
  -7   5  -9   15.54    2.00
   7  -5  10   17.17    1.79
  -7   5 -10   23.80    2.38
  -7   5 -11    4.50    1.79
  -7   5 -12    1.36    1.70
  -7   5 -13    2.26    1.75
  -7   5 -13    3.06    1.86
  -7   5 -14    4.27    1.98
  -7   5 -14    3.44    1.96
  -7   5 -15   -2.70    2.04
   6  -4 -16   -0.65    2.19
   6  -4 -15   -0.40    2.17
   6  -4 -14    7.64    2.34
  -6   4  14    7.09    2.26
  -6   4  13    0.37    1.69
  -6   4  12    0.36    1.62
  -6   4  11   21.87    2.68
  -6   4  10   15.93    2.30
  -6   4   9   24.81    2.57
  -6   4   8    0.85    1.35
  -6   4   7    9.80    1.60
  -6   4   6  144.93    5.72
  -6   4   6  147.84    5.90
  -6   4   5   19.80    1.45
  -6   4   5   18.69    1.74
  -6   4   4    9.30    1.26
  -6   4   4   13.68    1.33
   6  -4  -3  245.78    8.91
  -6   4   3  254.34    8.96
  -6   4   3  254.07    8.83
   6  -4  -2  262.11    9.85
  -6   4   2  292.61    9.55
  -6   4   2  299.98    9.89
   6  -4  -1   14.77    1.17
  -6   4   1   11.54    0.94
  -6   4   1   11.84    1.17
   6  -4   0    1.04    0.66
  -6   4   0    0.88    0.79
  -6   4   0    0.66    0.63
   6  -4   1   13.74    1.11
  -6   4  -1   13.00    1.25
  -6   4  -1   16.24    1.29
   6  -4   2  303.08    9.57
  -6   4  -2  268.47    9.69
  -6   4  -2  274.92    9.77
   6  -4   3  249.93    8.51
  -6   4  -3  254.40    8.92
  -6   4  -3  252.19    8.76
   6  -4   4   10.56    0.81
  -6   4  -4    9.83    1.18
   6  -4   5   19.24    1.15
  -6   4  -5   16.76    1.47
   6  -4   6  148.81    5.43
  -6   4  -6  154.59    5.70
   6  -4   7    9.69    1.11
  -6   4  -7    9.04    1.41
   6  -4   8    2.64    1.02
  -6   4  -8    1.92    1.05
   6  -4   9   25.32    2.00
  -6   4  -9   26.77    2.07
   6  -4  10   16.80    1.81
  -6   4 -10   17.74    2.08
   6  -4  11   26.52    2.32
  -6   4 -11   27.07    2.41
  -6   4 -12    2.35    1.68
  -6   4 -13    1.28    1.66
  -6   4 -14    6.09    2.08
  -6   4 -14    3.78    2.25
  -6   4 -15    0.15    1.78
  -6   4 -16    1.23    1.90
   5  -3 -16    3.66    2.45
   5  -3 -15   -0.08    2.13
   5  -3 -14    2.23    2.20
  -5   3  14    0.69    2.13
  -5   3  13    2.00    1.73
  -5   3  12    3.92    1.76
  -5   3  11   10.36    2.37
  -5   3  10   32.33    2.91
  -5   3   9   19.38    2.42
  -5   3   8   17.79    2.20
  -5   3   7   38.40    2.49
  -5   3   6    1.61    1.05
  -5   3   5    2.34    0.95
  -5   3   5    3.34    0.93
  -5   3   4  148.10    5.46
  -5   3   4  144.50    5.57
   5  -3  -3  197.10    6.93
  -5   3   3  186.32    6.75
  -5   3   3  186.33    6.88
   5  -3  -2  206.16    7.45
  -5   3   2  213.44    7.40
  -5   3   2  216.53    7.16
   5  -3  -1   22.16    1.46
  -5   3   1   25.64    1.29
  -5   3   1   23.41    1.38
  -5   3   0   39.81    1.85
   5  -3   1   26.80    1.27
  -5   3  -1   22.98    1.41
  -5   3  -1   22.31    1.44
   5  -3   2  220.95    7.32
  -5   3  -2  213.20    7.52
  -5   3  -2  209.71    7.41
   5  -3   3  190.56    6.56
  -5   3  -3  195.22    6.97
  -5   3  -3  191.19    6.71
   5  -3   4  147.45    5.16
  -5   3  -4  147.42    5.31
   5  -3   5    2.37    0.63
  -5   3  -5    5.62    0.95
   5  -3   6    0.53    0.67
  -5   3  -6    4.11    0.86
   5  -3   7   36.05    1.98
  -5   3  -7   36.48    2.00
   5  -3   8   18.58    1.61
  -5   3  -8   19.20    1.77
   5  -3   9   21.05    1.92
  -5   3  -9   22.68    2.05
   5  -3  10   29.60    2.37
  -5   3 -10   31.97    2.51
   5  -3  11   10.34    1.82
  -5   3 -11    8.92    1.64
   5  -3  12    4.27    1.50
  -5   3 -12    5.98    1.78
   5  -3  13    4.63    1.54
  -5   3 -13    2.41    1.48
  -5   3 -14    1.42    2.04
  -5   3 -14   -1.54    1.59
  -5   3 -15   -0.10    1.75
  -5   3 -16    5.01    2.03
   4  -2 -16    1.78    1.94
   4  -2 -15    2.13    2.13
   4  -2 -14    1.37    1.76
  -4   2  14    1.30    1.74
  -4   2  13    0.88    1.64
  -4   2  12   10.02    2.10
  -4   2  11    2.47    1.88
  -4   2  10  165.76    6.98
  -4   2   9   13.77    1.94
  -4   2   8   32.24    2.37
  -4   2   7    0.18    1.02
  -4   2   6   -0.76    0.89
  -4   2   5   30.23    1.89
  -4   2   4   -1.05    0.69
  -4   2   4    0.51    0.79
   4  -2  -3   97.21    3.77
  -4   2   3   93.64    3.78
  -4   2   3   94.95    3.67
   4  -2  -2  307.28   10.61
  -4   2   2  315.73   10.51
   4  -2  -1   17.48    1.06
  -4   2   1   17.97    0.95
  -4   2   1   16.12    1.01
  -4   2   0   53.18    2.10
   4  -2   1   16.46    0.95
  -4   2  -1   16.30    1.00
  -4   2  -1   14.97    0.94
   4  -2   2  320.51   10.53
  -4   2  -2  319.53   10.68
  -4   2  -2  304.33   10.50
   4  -2   3   95.88    3.50
  -4   2  -3   97.35    3.82
  -4   2  -3   98.16    3.57
   4  -2   4   -0.03    0.56
  -4   2  -4    0.16    0.66
   4  -2   5   29.12    1.53
  -4   2  -5   31.95    1.62
   4  -2   6    0.79    0.77
  -4   2  -6    0.36    0.76
   4  -2   7   -1.27    0.72
  -4   2  -7   -0.89    0.81
   4  -2   8   33.35    2.09
  -4   2  -8   36.19    2.14
   4  -2   9   13.02    1.64
  -4   2  -9   15.69    1.70
   4  -2  10  173.51    6.91
  -4   2 -10  176.90    6.84
   4  -2  11   -1.08    1.29
  -4   2 -11   -1.73    1.40
   4  -2  12    7.20    1.74
  -4   2 -12    7.66    1.83
   4  -2  13    0.54    1.44
  -4   2 -13    1.36    1.36
   4  -2  14   -0.02    1.67
  -4   2 -14   -0.27    1.89
  -4   2 -14   -0.27    1.38
  -4   2 -15   -0.20    1.98
  -4   2 -16   -1.71    1.99
   3  -1 -16    0.39    2.12
   3  -1 -15    2.49    2.16
   3  -1 -14    0.53    1.97
  -3   1  13   23.84    2.92
  -3   1  12    1.44    1.56
  -3   1  11   18.18    2.31
  -3   1  10   28.94    2.64
  -3   1   9    2.98    1.47
  -3   1   8   14.27    1.74
  -3   1   7  109.99    4.63
  -3   1   6    0.23    1.03
  -3   1   5    4.67    1.00
  -3   1   4   35.92    1.92
   3  -1  -3   41.29    1.99
   3  -1  -2  489.42   15.94
  -3   1   2  465.69   15.78
   3  -1  -1  103.48    3.54
  -3   1   1   91.97    3.44
   3  -1   0   96.84    3.66
  -3   1   0  103.43    3.63
  -3   1   0  113.68    3.61
  -3   1  -1  103.38    3.57
  -3   1  -1  104.30    3.68
   3  -1   2  463.09   15.92
  -3   1  -2  485.86   15.79
  -3   1  -2  498.62   16.00
   3  -1   3   56.19    2.02
  -3   1  -3   42.30    1.88
  -3   1  -3   46.32    2.21
   3  -1   4   37.40    1.75
  -3   1  -4   37.85    1.69
   3  -1   5    4.74    0.82
  -3   1  -5    5.31    0.79
   3  -1   6    1.47    0.80
  -3   1  -6    1.03    0.72
   3  -1   7  117.89    4.68
  -3   1  -7  118.66    4.56
   3  -1   8   16.00    1.57
  -3   1  -8   16.49    1.55
   3  -1   9    2.53    1.26
  -3   1  -9    1.90    1.16
   3  -1  10   34.30    2.57
  -3   1 -10   34.73    2.32
   3  -1  11   16.90    2.17
  -3   1 -11   16.34    2.09
   3  -1  12   -1.14    1.44
  -3   1 -12    1.08    1.53
   3  -1  13   21.89    2.59
  -3   1 -13   25.66    2.48
   3  -1  14    1.23    1.62
  -3   1 -14    0.54    1.89
  -3   1 -14   -0.87    1.61
   3  -1  15   -1.56    1.66
  -3   1 -15    0.59    1.65
  -3   1 -16   -1.05    1.95
   2   0 -16    1.55    2.11
   2   0 -15    3.50    2.10
   2   0 -14   38.13    3.62
   2   0 -13   20.60    2.75
  -2   0  13   15.55    2.51
  -2   0  12    1.64    1.51
  -2   0  11    3.38    1.78
  -2   0  10   14.60    2.10
  -2   0   9    5.48    1.40
  -2   0   8    1.23    1.09
  -2   0   7  106.83    4.45
  -2   0   6  341.28   11.93
  -2   0   5   30.16    1.85
  -2   0   4  357.15   12.21
   2   0  -3  110.70    4.09
   2   0  -2  680.58   22.50
   2   0  -1  280.61    9.39
   2   0   0  146.32    4.87
  -2   0   0  143.12    4.73
  -2   0   0  137.73    4.80
  -2   0  -1  264.78    8.81
  -2   0  -1  265.34    8.64
  -2   0  -2  674.36   21.92
  -2   0  -2  673.95   22.15
  -2   0  -3  111.33    4.13
  -2   0  -3  112.74    3.87
   2   0   6  204.23    7.37
   2   0   7  100.00    4.14
   2   0   8    2.66    1.13
   2   0   9    3.23    1.17
   2   0  10   18.82    2.16
   2   0  11    3.11    1.45
   2   0  12   -0.81    1.53
   2   0  13   17.57    2.37
  -2   0 -13   17.50    2.57
   2   0  14   21.91    2.76
  -2   0 -14   23.22    2.87
  -2   0 -14   26.13    2.76
   2   0  15    0.08    1.72
  -2   0 -15   -0.81    1.82
  -2   0 -15    0.44    1.68
   2   0  16    0.39    1.45
  -2   0 -16    2.02    2.01
   1   1 -16    0.38    1.98
   1   1 -15    1.31    1.63
   1   1 -14   39.54    3.44
   1   1 -13    1.06    1.54
  -1  -1  13    1.11    1.52
  -1  -1  12    4.00    1.85
  -1  -1  11    3.13    1.44
  -1  -1  10   -0.51    1.17
  -1  -1   9    1.14    1.27
  -1  -1   8   31.74    2.24
  -1  -1   7   18.13    1.68
  -1  -1   6  410.18   14.08
  -1  -1   5    8.90    1.04
   1   1  -4  227.68    7.98
  -1  -1   4  230.60    8.01
   1   1  -3   87.25    3.28
   1   1  -2    9.15    0.68
   1   1  -1  150.48    5.13
   1   1   0  558.99   17.81
  -1  -1   0  525.05   17.68
   1   1   1  141.47    4.82
  -1  -1  -1  140.11    4.76
   1   1   2    9.49    0.73
  -1  -1  -2    8.43    0.60
   1   1   3   86.35    3.21
  -1  -1  -3   82.58    3.15
   1   1   4  223.76    8.04
  -1  -1  -4  237.57    8.01
   1   1   5    7.14    1.00
   1   1   6  396.93   13.69
   1   1   7   19.14    1.69
   1   1   8   31.92    2.17
   1   1   9    0.69    1.14
   1   1  10    1.47    1.28
   1   1  11    4.73    1.80
   1   1  12    2.31    1.77
   1   1  13    0.19    1.72
  -1  -1 -13   -0.98    1.58
   1   1  14   29.31    3.21
  -1  -1 -14   37.37    3.35
   1   1  15    3.43    2.14
  -1  -1 -15    2.86    1.93
   1   1  16    2.65    2.08
  -1  -1 -16    1.08    1.60
   0   2 -16    2.71    1.95
   0   2 -15    3.17    2.09
   0   2 -15    0.79    1.78
   0   2 -14   29.44    3.02
   0   2 -13   20.74    2.51
   0   2 -12    1.57    1.65
   0  -2  12   -0.47    0.38
   0  -2  11   -0.41    0.34
   0  -2  10   -0.29    0.34
   0  -2   9    0.03    0.40
   0  -2   8   -0.08    0.43
   0  -2   7   51.13    2.44
   0  -2   6  304.40   10.57
   0   2  -5   34.47    1.79
   0  -2   5   34.57    1.78
   0   2  -4  366.53   12.35
   0   2  -3  116.55    4.15
   0   2  -2  670.10   22.04
   0   2  -1  273.10    9.19
   0   2  -1  281.36    9.19
   0   2   0  134.70    4.57
   0   2   1  267.67    8.76
   0   2   1  265.41    8.91
   0  -2  -1  266.34    8.78
   0   2   2  680.70   22.02
   0   2   2  651.89   21.68
   0  -2  -2  664.70   21.74
   0   2   3  113.48    4.19
   0   2   3  113.44    3.93
   0  -2  -3  112.43    4.00
   0   2   4  364.53   12.85
   0  -2  -4  389.39   12.64
   0   2   5   29.47    1.79
   0  -2  -5   33.38    1.72
   0   2   6  342.41   11.98
   0   2   7  108.99    4.57
   0   2   8    2.28    1.15
   0   2   9    2.50    1.47
   0   2  10   16.55    2.11
   0   2  11    3.06    1.55
   0   2  12    1.18    1.47
   0  -2 -12   -0.21    1.54
   0   2  13   16.70    2.64
   0  -2 -13   19.78    2.46
   0   2  14   21.33    2.93
   0  -2 -14   24.84    2.77
   0   2  15    1.41    1.71
   0  -2 -15    0.26    1.66
   0   2  16    2.67    2.15
  -1   3 -16    3.11    1.92
  -1   3 -15    0.24    1.70
  -1   3 -14    0.97    1.68
  -1   3 -14    5.17    1.77
  -1   3 -13   23.25    2.51
  -1   3 -13   23.79    2.84
  -1   3 -12    1.65    1.57
  -1   3 -12   -1.97    1.37
  -1   3 -11   17.85    2.13
  -1   3 -10   33.30    2.50
   1  -3  10   29.25    2.43
   1  -3   9    3.30    1.32
   1  -3   8   16.08    1.58
   1  -3   7  114.02    4.49
  -1   3  -6    1.29    0.80
   1  -3   6    1.29    0.75
  -1   3  -5    6.39    0.81
  -1   3  -4   37.99    1.96
  -1   3  -4   39.07    1.74
  -1   3  -3   58.41    2.43
  -1   3  -3   55.22    2.17
  -1   3  -2  452.93   15.04
  -1   3  -2  454.69   14.92
  -1   3  -1   92.53    3.30
  -1   3  -1   90.46    3.15
  -1   3   0  116.48    3.98
  -1   3   0  111.66    3.91
  -1   3   1  105.53    3.75
  -1   3   2  477.78   15.29
   1  -3  -2  438.72   14.93
  -1   3   3   33.83    1.51
  -1   3   3   40.47    1.87
  -1   3   4   31.13    1.59
  -1   3   4   36.89    1.94
   1  -3  -4   38.76    1.64
  -1   3   5    4.71    1.01
   1  -3  -5    5.70    0.85
  -1   3   6    1.22    0.91
   1  -3  -6    2.64    0.80
  -1   3   7  118.50    5.01
  -1   3   8   14.93    1.81
  -1   3   9    1.50    1.34
  -1   3  10   34.26    2.89
  -1   3  11   15.79    2.29
   1  -3 -11   18.08    2.12
  -1   3  12    0.70    1.89
   1  -3 -12    0.51    1.57
  -1   3  13   21.38    2.73
   1  -3 -13   23.18    2.47
  -1   3  14   -1.08    1.84
   1  -3 -14   -0.06    1.56
  -1   3  15    3.91    1.98
  -1   3  16   -0.84    2.08
  -2   4 -16    2.77    1.98
  -2   4 -15    1.60    2.09
  -2   4 -14    2.17    1.78
  -2   4 -13    0.35    1.43
  -2   4 -13    2.65    1.63
  -2   4 -12    7.99    1.98
  -2   4 -12    8.29    1.85
  -2   4 -11   -1.02    1.42
  -2   4 -11    0.28    1.46
  -2   4 -10  180.28    7.42
  -2   4 -10  191.01    7.19
  -2   4  -9   13.38    1.59
  -2   4  -9   16.37    1.91
  -2   4  -8   38.38    2.41
  -2   4  -8   34.04    2.11
  -2   4  -7   -0.98    0.94
  -2   4  -7   -0.42    0.69
  -2   4  -6    0.64    0.67
  -2   4  -6    0.60    0.88
  -2   4  -5   33.96    1.92
  -2   4  -5   32.99    1.57
  -2   4  -4    0.34    0.52
  -2   4  -4    0.91    0.81
  -2   4  -3  104.14    3.58
  -2   4  -3  101.03    3.94
  -2   4  -2  321.54   10.49
  -2   4  -2  314.69   10.76
  -2   4  -1   16.80    0.79
  -2   4  -1   15.94    1.10
  -2   4   0   53.97    2.20
  -2   4   0   53.43    2.06
  -2   4   1   15.25    1.08
  -2   4   1   16.44    0.97
  -2   4   2  312.85   10.52
  -2   4   2  303.65   10.34
  -2   4   3   74.39    3.25
  -2   4   3   93.05    3.54
   2  -4  -3   94.39    3.04
  -2   4   4   -0.06    0.81
  -2   4   4    0.26    0.46
   2  -4  -4   -0.23    0.47
  -2   4   5   29.37    1.90
   2  -4  -5   32.13    1.51
  -2   4   6    0.29    0.95
   2  -4  -6    0.13    0.69
  -2   4   7    2.06    1.16
   2  -4  -7    0.20    0.81
  -2   4   8   33.78    2.66
   2  -4  -8   33.90    2.00
  -2   4   9   14.95    1.98
   2  -4  -9   14.32    1.67
  -2   4  10  175.50    7.47
   2  -4 -10  183.75    6.98
  -2   4  11   -0.85    1.54
   2  -4 -11    0.25    1.35
  -2   4  12    5.66    2.12
   2  -4 -12   10.98    1.81
  -2   4  13    2.38    1.70
   2  -4 -13    0.23    1.52
  -2   4  14   -1.05    1.52
  -2   4  15    0.77    2.13
  -2   4  16   -0.29    1.85
  -3   5 -16   -0.32    2.21
  -3   5 -15   -1.82    1.65
  -3   5 -14   -0.42    1.66
  -3   5 -13    2.58    1.95
  -3   5 -12    4.40    2.06
  -3   5 -12    6.08    1.61
  -3   5 -11    9.98    1.72
  -3   5 -11    9.43    1.97
  -3   5 -10   31.36    2.90
  -3   5 -10   32.91    2.32
  -3   5  -9   21.73    2.17
  -3   5  -9   18.15    1.71
  -3   5  -8   17.83    1.49
  -3   5  -8   17.44    1.89
  -3   5  -7   40.62    2.42
  -3   5  -7   37.91    1.95
  -3   5  -6    0.92    0.96
  -3   5  -6    1.77    0.67
  -3   5  -5    1.99    0.95
  -3   5  -5    1.68    0.54
  -3   5  -4  151.10    5.12
  -3   5  -4  150.64    5.62
  -3   5  -3  192.93    6.39
  -3   5  -3  192.32    6.89
  -3   5  -2  219.58    7.35
  -3   5  -2  226.12    7.79
  -3   5  -1   28.28    1.64
  -3   5  -1   26.72    1.19
  -3   5   0   42.01    1.74
  -3   5   0   39.73    2.06
  -3   5   1   23.96    1.37
  -3   5   1   19.66    1.21
  -3   5   2  209.28    7.34
  -3   5   2  210.92    7.39
  -3   5   3  189.33    6.75
  -3   5   3  188.98    6.60
   3  -5  -3  181.37    6.12
  -3   5   4  144.94    5.50
  -3   5   4  144.93    5.26
   3  -5  -4  142.75    4.85
  -3   5   5    5.44    1.12
  -3   5   5    3.43    0.79
   3  -5  -5    2.59    0.54
  -3   5   6    2.51    1.10
  -3   5   6    2.04    0.78
   3  -5  -6    0.72    0.61
  -3   5   7   37.35    2.45
  -3   5   7   34.71    2.02
   3  -5  -7   34.54    1.78
  -3   5   8   17.30    2.04
   3  -5  -8   19.38    1.55
  -3   5   9   22.96    2.41
   3  -5  -9   20.41    1.76
  -3   5  10   33.32    3.15
   3  -5 -10   32.46    2.28
  -3   5  11    7.95    2.04
   3  -5 -11   10.37    1.68
  -3   5  12    7.38    2.00
   3  -5 -12    5.31    1.52
  -3   5  13    3.36    1.84
  -3   5  14   -0.17    1.63
  -3   5  15    1.00    1.82
  -3   5  16    4.13    2.24
  -4   6 -16   -1.14    2.23
  -4   6 -15   -0.80    1.72
  -4   6 -14    4.68    1.98
  -4   6 -13   -0.41    1.65
  -4   6 -12   -1.30    1.84
  -4   6 -11   24.53    2.60
  -4   6 -11   23.04    2.12
  -4   6 -10   17.10    2.23
  -4   6 -10   18.12    1.73
  -4   6  -9   27.37    2.47
  -4   6  -9   24.65    1.87
  -4   6  -8    2.04    0.87
  -4   6  -8    0.28    1.26
  -4   6  -7   10.14    1.01
  -4   6  -7    8.03    1.48
  -4   6  -6  150.94    5.99
  -4   6  -6  158.46    5.40
  -4   6  -5   20.96    1.01
  -4   6  -5   17.50    1.67
  -4   6  -4    9.84    1.25
  -4   6  -4    9.89    0.52
  -4   6  -3  262.60    9.22
  -4   6  -2  286.71   10.07
  -4   6  -2  293.92    9.59
  -4   6  -1   10.47    1.31
  -4   6  -1   11.56    0.81
  -4   6   0    0.46    0.94
  -4   6   0   -0.14    0.62
  -4   6   1   12.57    1.14
  -4   6   1   13.39    1.23
  -4   6   2  269.72    9.23
  -4   6   2  258.42    9.22
  -4   6   3  251.03    8.81
  -4   6   3  245.19    8.70
  -4   6   4   10.52    1.14
  -4   6   4   11.51    1.36
   4  -6  -4   10.03    0.51
  -4   6   5   17.79    1.49
  -4   6   5   16.06    1.68
   4  -6  -5   18.77    0.90
  -4   6   6  153.51    6.06
  -4   6   6  149.09    5.70
   4  -6  -6  147.15    5.15
  -4   6   7    8.23    1.36
  -4   6   7    8.65    1.60
   4  -6  -7    8.89    0.92
  -4   6   8    0.61    1.30
   4  -6  -8    3.00    0.91
  -4   6   9   22.29    2.47
   4  -6  -9   25.29    1.70
  -4   6  10   14.93    2.30
   4  -6 -10   16.29    1.60
  -4   6  11   22.43    2.77
   4  -6 -11   23.69    2.07
  -4   6  12   -1.69    1.54
  -4   6  13    0.89    1.74
  -4   6  14    6.22    2.22
  -4   6  15    0.28    1.91
  -4   6  16    0.94    2.02
  -5   7 -15    3.28    2.01
  -5   7 -14    3.97    1.97
  -5   7 -13    1.63    2.05
  -5   7 -12    0.77    1.60
  -5   7 -11    4.17    2.04
  -5   7 -10   15.90    2.45
  -5   7  -9   14.89    1.40
  -5   7  -9   14.61    2.07
  -5   7  -8   24.93    2.29
  -5   7  -8   22.13    1.45
  -5   7  -7    2.80    0.68
  -5   7  -7    3.17    1.32
  -5   7  -6   16.33    0.90
  -5   7  -6   14.86    1.71
  -5   7  -5   15.14    1.66
  -5   7  -4    8.41    1.28
  -5   7  -3   37.20    2.13
  -5   7  -2   42.58    2.29
  -5   7  -2   42.40    1.62
  -5   7  -1   48.17    2.45
  -5   7  -1   44.84    1.89
  -5   7   0  274.07    9.28
  -5   7   0  268.69    9.59
  -5   7   1   47.68    2.16
  -5   7   1   48.32    2.50
  -5   7   2   50.14    2.36
  -5   7   2   50.12    2.55
  -5   7   3   35.71    2.02
  -5   7   3   36.08    2.04
  -5   7   4    4.84    1.11
  -5   7   4    3.53    0.99
  -5   7   5   12.00    1.38
  -5   7   5   14.56    1.64
  -5   7   6   15.52    1.69
  -5   7   6   13.45    1.76
   5  -7  -6   15.64    0.84
  -5   7   7    1.35    1.32
  -5   7   7    3.92    1.15
   5  -7  -7    3.47    0.65
  -5   7   8   24.03    2.44
  -5   7   8   27.56    2.35
   5  -7  -8   22.51    1.42
  -5   7   9   17.91    2.56
   5  -7  -9   15.32    1.35
  -5   7  10   17.61    2.47
  -5   7  11    1.34    1.75
  -5   7  12    1.41    1.82
  -5   7  13   -0.87    2.05
  -5   7  14    5.95    2.27
  -5   7  15    0.35    1.96
  -6   8 -15    1.21    2.33
  -6   8 -14    4.62    2.01
  -6   8 -13    5.29    2.33
  -6   8 -12   -1.98    1.88
  -6   8 -11    0.93    1.64
  -6   8 -10    3.26    1.72
  -6   8  -9   12.41    2.06
  -6   8  -8    1.51    1.52
  -6   8  -7   41.11    2.79
  -6   8  -7   43.43    1.64
  -6   8  -6   55.34    3.05
  -6   8  -5    5.76    1.34
  -6   8  -4   30.31    2.12
  -6   8  -3    4.76    1.20
  -6   8  -2    7.81    0.66
  -6   8  -2    7.50    1.30
  -6   8  -1   33.42    2.16
  -6   8  -1   32.89    1.56
  -6   8   0   17.23    1.73
  -6   8   0   17.23    1.25
  -6   8   1   38.28    2.31
  -6   8   1   38.41    1.99
  -6   8   2    7.94    1.20
  -6   8   2    7.65    1.33
  -6   8   3    4.48    1.09
  -6   8   3    3.85    1.19
  -6   8   4   34.93    2.22
  -6   8   4   31.06    2.09
  -6   8   5    2.19    1.18
  -6   8   5    2.51    1.04
  -6   8   6   51.15    3.03
  -6   8   6   52.34    2.82
  -6   8   7   41.98    2.60
  -6   8   7   40.91    2.87
   6  -8  -7   39.65    1.52
  -6   8   8    2.08    1.48
  -6   8   8    2.34    1.54
  -6   8   9   13.34    2.21
  -6   8   9   12.27    1.83
  -6   8  10    2.11    1.74
  -6   8  11   -1.50    1.92
  -6   8  12   -0.10    1.68
  -6   8  13    3.68    2.04
  -6   8  14    4.32    2.17
  -6   8  15    0.44    1.97
  -7   9 -15    1.04    1.98
  -7   9 -14    0.46    2.24
  -7   9 -13    8.05    2.19
  -7   9 -12    8.62    2.16
  -7   9 -11   -0.47    1.60
  -7   9 -10    2.73    1.75
  -7   9  -9   -3.81    1.48
  -7   9  -8   21.84    2.39
  -7   9  -7   41.50    2.89
  -7   9  -6   23.93    2.27
  -7   9  -5    8.24    1.55
  -7   9  -4  118.88    4.97
  -7   9  -3   39.15    2.31
  -7   9  -2    3.18    0.61
  -7   9  -2    2.31    1.22
  -7   9  -1   61.38    2.55
  -7   9  -1   63.24    3.19
  -7   9   0   21.24    1.48
  -7   9   0   24.90    2.11
  -7   9   1   62.35    2.84
  -7   9   1   65.51    3.26
  -7   9   2    3.42    1.07
  -7   9   2    2.08    1.19
  -7   9   3   44.16    2.56
  -7   9   3   43.84    2.62
  -7   9   4  126.05    5.26
  -7   9   4  124.02    5.20
  -7   9   5   10.88    1.58
  -7   9   5   10.88    1.65
  -7   9   6   20.80    2.23
  -7   9   6   28.82    2.37
  -7   9   7   42.15    2.79
  -7   9   7   39.90    2.97
  -7   9   8   25.74    2.87
  -7   9   8   21.15    2.30
  -7   9   9   -1.70    1.56
  -7   9   9    0.43    1.33
  -7   9  10    1.71    1.75
  -7   9  10    2.73    1.68
  -7   9  11    0.12    1.72
  -7   9  12    6.17    2.14
  -7   9  13    7.89    2.40
  -7   9  14    0.24    2.00
  -7   9  15   -0.60    1.95
  -8  10 -14    0.72    2.29
  -8  10 -13    1.06    1.85
  -8  10 -12    1.23    2.13
  -8  10 -11    6.02    1.98
  -8  10 -10   20.91    2.54
  -8  10  -9    7.10    1.95
  -8  10  -8    3.47    1.72
  -8  10  -7   15.97    2.17
  -8  10  -6   23.29    2.33
  -8  10  -5    9.95    1.77
  -8  10  -4   69.67    3.59
  -8  10  -3   46.25    2.81
   8 -10   3   42.27    1.61
  -8  10  -2   22.71    2.13
  -8  10  -2   21.18    1.22
  -8  10  -1   14.46    1.84
  -8  10  -1   13.74    1.20
  -8  10   0   34.85    2.50
  -8  10   0   33.67    1.94
  -8  10   1   16.15    1.74
  -8  10   1   14.37    1.46
  -8  10   2   25.24    2.01
  -8  10   2   26.96    1.98
  -8  10   3   48.12    2.82
  -8  10   3   45.79    2.68
  -8  10   3   41.41    1.59
  -8  10   4   70.24    3.48
  -8  10   4   65.49    3.52
  -8  10   5   14.86    1.94
  -8  10   5   16.55    2.06
  -8  10   6   30.13    2.56
  -8  10   6   25.23    2.52
  -8  10   7   18.07    2.18
  -8  10   7   18.25    2.31
  -8  10   8    1.75    1.66
  -8  10   8    2.73    1.52
  -8  10   9    5.89    2.02
  -8  10   9    5.60    1.71
  -8  10  10   17.45    2.62
  -8  10  10   17.76    2.50
  -8  10  11    5.09    2.04
  -8  10  12    1.57    1.95
  -8  10  13    2.56    2.12
  -8  10  14    1.54    2.12
  -9  11 -14    6.28    2.54
  -9  11 -13    1.91    1.96
  -9  11 -12    3.39    1.89
  -9  11 -11    9.74    2.18
  -9  11 -10    0.52    1.71
  -9  11  -9   11.32    2.18
  -9  11  -8    6.67    1.94
  -9  11  -7    8.55    2.00
  -9  11  -6   57.57    3.53
  -9  11  -5    9.95    1.91
  -9  11  -4   24.69    2.43
  -9  11  -3   81.98    4.08
   9 -11   3   78.89    2.86
  -9  11  -2   27.96    2.44
   9 -11   2   26.66    1.46
  -9  11  -1   18.33    1.44
  -9  11  -1   17.35    2.07
  -9  11   0   11.22    1.83
  -9  11   0   12.39    1.36
  -9  11   1   15.77    1.60
  -9  11   1   16.22    2.04
  -9  11   2   25.11    1.42
  -9  11   2   26.23    2.46
  -9  11   2   27.28    2.15
  -9  11   3   81.43    4.18
  -9  11   3   81.57    2.95
  -9  11   3   90.25    4.09
  -9  11   4   25.88    2.48
  -9  11   4   24.26    2.27
  -9  11   5   13.42    2.02
  -9  11   5   12.25    1.85
  -9  11   6   68.12    3.79
  -9  11   6   58.98    3.67
  -9  11   7    9.61    1.97
  -9  11   7    7.07    2.20
  -9  11   8    7.80    2.02
  -9  11   8   11.59    2.10
  -9  11   9    9.94    2.05
  -9  11   9   13.78    2.35
  -9  11  10    1.77    2.09
  -9  11  10    1.94    1.48
  -9  11  11   14.15    2.33
  -9  11  11   14.31    2.58
  -9  11  12    4.64    2.44
  -9  11  13    1.35    1.95
  -9  11  14    6.96    2.51
 -10  12 -13    3.62    2.17
 -10  12 -12    0.43    1.92
 -10  12 -11    7.89    2.17
 -10  12 -10    8.85    2.13
 -10  12  -9    4.04    1.85
 -10  12  -8    1.29    1.75
 -10  12  -7    0.30    1.72
 -10  12  -6    1.49    1.74
 -10  12  -5   12.55    2.14
 -10  12  -4   11.71    2.06
 -10  12  -3   37.69    2.94
  10 -12   3   35.47    1.58
 -10  12  -2    3.32    1.69
  10 -12   2    6.22    0.91
 -10  12  -1    1.02    0.93
 -10  12  -1   -0.03    1.48
 -10  12   0    1.20    1.05
 -10  12   0    0.19    1.45
 -10  12   1    1.55    1.15
 -10  12   1    0.00    1.45
 -10  12   2    6.27    0.94
 -10  12   2    8.54    1.90
 -10  12   2    6.32    1.34
 -10  12   3   36.15    1.57
 -10  12   3   33.49    2.51
 -10  12   3   41.18    3.00
 -10  12   4   10.05    1.77
 -10  12   4   13.62    2.18
 -10  12   5   15.89    2.27
 -10  12   5   11.82    1.96
 -10  12   6    1.17    1.63
 -10  12   6   -1.56    1.73
 -10  12   7    2.21    1.72
 -10  12   7    0.90    1.95
 -10  12   8    2.75    1.66
 -10  12   8    2.22    1.79
 -10  12   9    3.95    1.71
 -10  12   9    5.13    2.19
 -10  12  10    7.43    2.02
 -10  12  10    6.79    2.39
 -10  12  11    8.82    2.15
 -10  12  11    8.32    2.36
 -10  12  12    0.92    2.01
 -10  12  13    3.48    2.53
 -11  13 -13    0.82    2.03
 -11  13 -12    7.98    2.37
 -11  13 -11    0.19    1.89
 -11  13 -10   15.11    2.53
 -11  13  -9    0.75    1.74
 -11  13  -8   14.49    2.35
 -11  13  -7    3.34    1.90
 -11  13  -6   -0.30    1.75
 -11  13  -5    2.77    1.84
 -11  13  -4    1.38    1.80
 -11  13  -3    1.20    1.73
 -11  13  -2   46.15    3.29
  11 -13   2   40.75    2.10
 -11  13  -1    3.76    1.78
  11 -13   1    5.98    1.15
 -11  13   0   83.06    4.42
 -11  13   0   82.79    3.77
 -11  13   1    4.63    1.52
 -11  13   1    3.57    1.83
 -11  13   1    5.21    1.13
 -11  13   2   40.90    2.89
 -11  13   2   41.73    2.85
 -11  13   2   40.64    2.05
 -11  13   3    3.38    1.43
 -11  13   3    2.23    1.64
 -11  13   4    3.12    1.55
 -11  13   4    2.49    1.65
 -11  13   5   -0.29    1.76
 -11  13   5   -0.13    1.68
 -11  13   6   -0.64    1.61
 -11  13   6    0.46    1.90
 -11  13   7    4.10    1.91
 -11  13   7    3.32    1.81
 -11  13   8   17.54    2.59
 -11  13   8   16.04    2.47
 -11  13   9    0.61    1.74
 -11  13   9   -0.37    1.54
 -11  13  10   22.10    3.25
 -11  13  11    2.69    2.41
 -11  13  11    1.95    1.76
 -11  13  12    8.66    2.49
 -11  13  12    2.62    1.84
 -11  13  13    1.32    2.11
 -12  14 -12   -1.60    1.88
 -12  14 -11    1.42    2.38
 -12  14 -10   -0.17    1.88
 -12  14  -9   -1.09    1.74
 -12  14  -8   -0.08    2.21
 -12  14  -7   22.85    2.80
 -12  14  -6   -1.17    1.69
 -12  14  -5    4.98    2.06
 -12  14  -4    6.23    2.10
 -12  14  -3    3.36    1.95
 -12  14  -2    0.62    1.75
 -12  14  -1   22.16    2.65
  12 -14   1   20.07    1.74
 -12  14   0    2.18    1.83
 -12  14   0    0.56    1.26
 -12  14   1   21.83    2.14
 -12  14   1   22.08    2.70
 -12  14   1   23.14    1.82
 -12  14   2    0.03    1.41
 -12  14   2    1.04    1.79
 -12  14   3    1.88    1.38
 -12  14   3    0.65    1.66
 -12  14   4    2.10    1.83
 -12  14   4    2.10    1.60
 -12  14   5   -0.70    1.72
 -12  14   5    2.01    1.68
 -12  14   6   -0.56    1.60
 -12  14   6   -0.52    1.59
 -12  14   7   21.00    2.76
 -12  14   7   17.77    2.58
 -12  14   8    0.66    1.68
 -12  14   8    0.64    1.79
 -12  14   9    0.49    1.66
 -12  14   9   -2.08    1.68
 -12  14  10    2.46    2.01
 -12  14  10    4.56    1.99
 -12  14  11    3.69    2.37
 -12  14  11    4.00    2.49
 -12  14  12   -0.55    2.07
 -12  14  12   -0.64    1.95
 -13  15 -11    2.77    2.16
 -13  15 -10    4.69    2.22
 -13  15  -9    2.59    2.08
 -13  15  -8    2.10    1.95
 -13  15  -7    8.93    2.23
 -13  15  -6    8.88    2.24
 -13  15  -5    0.68    1.82
 -13  15  -4    9.31    2.26
 -13  15  -3    1.25    1.86
 -13  15  -2    9.77    2.23
 -13  15  -1   15.22    2.18
 -13  15   0   -1.40    1.79
 -13  15   0   -0.47    1.20
  13 -15   0    0.15    1.19
 -13  15   1   18.90    2.15
 -13  15   1   15.52    2.54
 -13  15   2   13.47    2.07
 -13  15   2   12.38    2.38
 -13  15   3    2.58    1.90
 -13  15   3    3.73    1.78
 -13  15   4    7.02    2.09
 -13  15   4    7.83    1.88
 -13  15   5    0.88    1.76
 -13  15   5    2.01    1.90
 -13  15   6    9.91    2.25
 -13  15   6   13.34    2.33
 -13  15   7   13.26    2.57
 -13  15   7   13.99    2.51
 -13  15   8   -0.50    1.78
 -13  15   8    0.20    1.77
 -13  15   9    1.84    1.86
 -13  15   9    3.64    2.07
 -13  15  10    1.54    2.01
 -13  15  10    0.87    2.17
 -13  15  11    0.03    2.32
 -13  15  11    2.09    2.29
 -14  16 -11   -0.88    2.03
 -14  16 -10   -0.49    1.98
 -14  16  -9   -0.72    2.03
 -14  16  -8    5.11    2.52
 -14  16  -7    3.56    2.37
 -14  16  -6    3.44    2.01
 -14  16  -5   -1.89    1.69
 -14  16  -4    2.08    1.85
 -14  16  -3    0.82    1.82
 -14  16  -2    0.32    1.76
 -14  16  -1    3.59    1.44
 -14  16  -1    1.94    1.88
 -14  16   0   14.65    2.48
 -14  16   1    1.73    1.91
  14 -16  -1    3.73    1.43
 -14  16   2    1.88    1.76
 -14  16   2    0.54    1.53
 -14  16   3    1.94    1.70
 -14  16   3   -1.30    1.71
 -14  16   4    0.23    1.47
 -14  16   4    2.08    1.90
 -14  16   5    2.70    1.96
 -14  16   5    3.74    2.21
 -14  16   6    4.67    2.16
 -14  16   6    1.62    1.93
 -14  16   7    0.92    2.15
 -14  16   7    3.01    2.00
 -14  16   8    1.57    1.96
 -14  16   8    7.33    2.55
 -14  16   9    1.85    1.93
 -14  16   9    1.38    1.98
 -14  16  10    0.18    1.93
 -14  16  10    2.51    2.01
 -14  16  11    0.97    2.34
 -15  17 -10    0.67    2.12
 -15  17  -9    3.38    2.21
 -15  17  -8   -1.91    1.87
 -15  17  -7    3.18    2.15
 -15  17  -6    9.09    2.34
 -15  17  -5    0.23    1.91
 -15  17  -4    2.89    2.03
 -15  17  -3    0.25    1.84
 -15  17  -2    1.89    1.55
 -15  17  -2    2.45    1.90
 -15  17  -1    0.99    1.84
 -15  17   0    2.96    1.96
 -15  17   1    0.12    1.78
 -15  17   2    1.86    1.88
  15 -17  -2    2.33    1.55
 -15  17   3    5.35    1.98
 -15  17   3    2.27    1.93
 -15  17   4    2.77    2.01
 -15  17   4    2.81    1.67
 -15  17   5   -2.14    1.49
 -15  17   5    0.50    1.88
 -15  17   6    7.72    2.16
 -15  17   6    7.51    2.44
 -15  17   7    1.28    2.23
 -15  17   7    2.06    1.98
 -15  17   8   -1.52    2.21
 -15  17   8    0.64    2.21
 -15  17   9    3.22    2.17
 -15  17   9    2.16    2.11
 -15  17  10    1.29    2.15
 -16  18  -8    3.07    2.23
 -16  18  -7    0.41    2.00
 -16  18  -6    1.97    2.02
 -16  18  -5    0.73    1.94
 -16  18  -4    2.72    2.06
 -16  18  -4    2.83    0.65
 -16  18  -3    9.85    2.01
 -16  18  -3    8.50    2.33
 -16  18  -2    0.04    1.88
 -16  18  -1    1.29    1.94
 -16  18   0   -2.38    1.76
 -16  18   1    0.97    1.88
 -16  18   2    1.20    1.90
 -16  18   3    6.41    2.17
  16 -18  -3    9.49    2.11
 -16  18   4    2.46    2.03
 -16  18   4    4.21    2.18
  16 -18  -4    1.90    0.67
 -16  18   5   -1.88    1.77
 -16  18   5   -1.44    1.91
 -16  18   6    1.76    2.08
 -16  18   6   -0.02    2.12
 -16  18   7    0.09    2.31
 -16  18   7    2.43    2.05
 -16  18   8   -2.70    2.17
 -16  18   8    3.54    2.22
 -17  19  -7    1.24    1.75
 -17  19  -7   -3.31    1.87
 -17  19  -6    0.81    1.62
 -17  19  -6   -0.32    1.99
 -17  19  -5   -0.01    1.76
 -17  19  -5    1.70    2.00
 -17  19  -4    1.82    2.04
 -17  19  -4    4.01    1.86
 -17  19  -3    1.08    1.98
 -17  19  -2    3.85    2.44
 -17  19  -1    1.21    2.06
 -17  19   0    4.31    2.16
 -17  19   1   -0.05    1.87
 -17  19   2    9.56    2.46
 -17  19   3    0.50    1.91
 -17  19   4    0.95    1.94
  17 -19  -4    1.54    1.73
 -17  19   5    0.19    1.91
  17 -19  -5    2.29    2.13
 -17  19   6   -1.15    1.86
  17 -19  -6    3.97    2.22
 -17  19   7   -1.81    1.86
 -17  19   7   -3.44    1.83
  17 -19  -7    1.07    1.99
 -18  20  -5   -2.04    2.33
 -18  20  -5    2.70    1.60
 -18  20  -4    3.06    2.14
 -18  20  -3    0.88    2.05
 -18  20  -2   -2.72    1.85
 -18  20  -1    1.19    2.05
 -18  20   0    2.34    2.10
 -18  20   1    0.67    1.90
 -18  20   2    0.27    1.91
 -18  20   3   -0.95    1.71
 -18  20   4    1.13    1.98
 -18  20   5    2.10    2.08
  18 -20  -5    0.18    1.74
 -19  21  -1    3.28    2.14
 -19  21   0   -1.06    1.97
 -19  21   1    0.69    2.01
 -21  18   3    1.29    2.04
 -21  18   2    1.55    1.95
 -21  18   1    1.24    1.90
 -21  18   0   -0.24    1.90
 -21  18  -1   -1.05    1.74
 -21  18  -2   -1.31    1.73
 -21  18  -3    0.69    1.94
  20 -17  -6    0.21    1.96
 -20  17   6    0.03    1.95
  20 -17  -5   -2.95    1.55
 -20  17   5   -0.23    1.81
  20 -17  -4   -0.28    1.23
 -20  17   4   -0.46    1.81
 -20  17   3    4.24    2.16
 -20  17   2    5.61    2.17
 -20  17   1   -2.82    1.67
 -20  17   0    2.76    1.98
 -20  17  -1   -0.01    1.70
 -20  17  -2    2.98    1.94
 -20  17  -3    2.40    1.91
 -20  17  -4   -0.14    1.92
 -20  17  -4   -1.50    0.90
 -20  17  -5   -0.02    1.83
 -20  17  -5   -0.06    2.22
 -20  17  -6    3.11    2.07
 -20  17  -6   -0.36    1.91
  19 -16  -8    2.42    2.60
  19 -16  -7    2.18    2.45
 -19  16   7    1.92    2.09
  19 -16  -6    2.25    2.29
 -19  16   6    1.11    1.83
  19 -16  -5    1.17    2.16
 -19  16   5    0.41    1.76
  19 -16  -4    2.73    2.04
 -19  16   4   -1.24    1.73
  19 -16  -3   13.07    2.37
 -19  16   3    6.23    2.12
 -19  16   2    2.91    1.93
 -19  16   1    3.62    2.01
 -19  16   0    5.60    2.07
 -19  16  -1    0.18    1.79
 -19  16  -2    0.74    2.19
 -19  16  -3    8.69    2.07
 -19  16  -3   10.20    2.33
 -19  16  -4   -1.69    1.78
 -19  16  -4    0.80    1.73
 -19  16  -5    0.53    1.83
 -19  16  -5   -0.67    1.74
 -19  16  -6    2.14    1.99
 -19  16  -6    1.19    2.25
 -19  16  -7    3.10    2.22
 -19  16  -7   -1.23    1.74
 -19  16  -8    5.41    2.48
 -19  16  -8    0.25    1.83
  18 -15  -9   -0.12    2.53
 -18  15   9   -0.10    2.00
  18 -15  -8    4.00    2.56
 -18  15   8    1.05    1.91
  18 -15  -7    0.90    2.00
 -18  15   7    1.40    1.96
  18 -15  -6    4.07    2.36
 -18  15   6    0.09    1.75
  18 -15  -5    6.30    2.34
 -18  15   5    2.23    1.95
  18 -15  -4    6.41    1.99
 -18  15   4    6.72    2.17
  18 -15  -3    1.20    0.97
 -18  15   3    0.50    1.75
  18 -15  -2    3.24    1.71
 -18  15   2    3.27    1.87
 -18  15   1    2.22    1.83
 -18  15   0    3.00    1.83
 -18  15  -1    1.36    1.76
 -18  15  -2    4.66    1.71
 -18  15  -2    4.08    1.97
 -18  15  -3    2.77    1.85
 -18  15  -3   -0.67    0.87
 -18  15  -4   15.23    2.35
 -18  15  -4    7.71    2.17
 -18  15  -5    5.18    2.07
 -18  15  -5    6.10    2.13
 -18  15  -6    3.63    2.07
 -18  15  -6    0.19    1.76
 -18  15  -7    3.47    1.94
 -18  15  -7   -1.87    1.98
 -18  15  -8    2.19    1.87
 -18  15  -8   -4.36    1.90
 -18  15  -9   -3.64    1.71
 -18  15  -9    7.66    2.52
  17 -14 -10    6.48    2.79
 -17  14  10    1.59    2.11
  17 -14  -9    1.72    2.15
 -17  14   9    2.15    2.15
  17 -14  -8    0.36    2.01
 -17  14   8    3.62    2.04
  17 -14  -7    7.46    2.36
 -17  14   7   10.59    2.39
  17 -14  -6    5.06    1.97
 -17  14   6    1.56    1.86
  17 -14  -5    1.96    1.81
 -17  14   5    2.96    1.79
  17 -14  -4    0.27    1.82
 -17  14   4    1.37    1.73
  17 -14  -3    2.31    1.41
 -17  14   3    1.84    1.74
  17 -14  -2   11.91    2.03
 -17  14   2   11.31    2.22
  17 -14  -1    2.40    1.54
 -17  14   1    3.51    1.83
  17 -14   0   -2.88    1.14
 -17  14   0   -1.21    1.29
 -17  14   0    1.76    1.66
 -17  14  -1    3.24    1.80
 -17  14  -1    2.86    1.48
 -17  14  -2   15.29    2.10
 -17  14  -2   16.33    2.47
 -17  14  -3    0.89    1.73
 -17  14  -3    1.70    1.14
 -17  14  -4    3.43    1.83
 -17  14  -4    0.80    1.48
 -17  14  -5    5.34    1.98
 -17  14  -5    1.59    1.79
 -17  14  -6    2.21    2.02
 -17  14  -6    1.63    1.78
 -17  14  -7   13.56    2.64
 -17  14  -7    8.56    2.21
 -17  14  -8    1.65    1.79
 -17  14  -8   -0.62    1.76
 -17  14  -9    2.90    2.04
 -17  14  -9    1.38    2.17
 -17  14 -10    3.03    2.39
 -17  14 -10    5.74    2.09
  16 -13 -11    5.52    2.45
 -16  13  11    1.49    2.33
  16 -13 -10    4.92    2.26
 -16  13  10    0.99    1.98
  16 -13  -9    2.60    2.13
 -16  13   9    1.14    1.91
  16 -13  -8    7.07    2.27
 -16  13   8    6.21    2.21
  16 -13  -7    1.53    1.90
 -16  13   7    0.44    1.73
  16 -13  -6    1.32    1.76
 -16  13   6    1.25    1.66
  16 -13  -5   -0.22    1.60
 -16  13   5    0.38    1.62
  16 -13  -4    0.09    1.77
 -16  13   4   -3.22    1.42
  16 -13  -3   11.01    2.07
 -16  13   3    9.81    2.10
  16 -13  -2    1.42    1.33
 -16  13   2    0.89    1.72
  16 -13  -1    1.35    1.50
 -16  13   1   -0.21    1.59
 -16  13   1   -0.91    1.31
  16 -13   0    5.20    1.66
 -16  13   0    3.64    1.42
 -16  13   0    6.42    1.93
  16 -13   1    2.59    1.47
 -16  13  -1    0.72    1.68
 -16  13  -1    3.35    1.50
 -16  13  -2    1.72    1.48
 -16  13  -2    5.28    1.97
 -16  13  -3   10.65    2.12
 -16  13  -3    6.34    1.60
 -16  13  -4    0.26    1.41
 -16  13  -4    2.76    1.73
 -16  13  -5   -2.85    1.47
 -16  13  -5   -0.56    1.46
 -16  13  -6    1.85    1.97
 -16  13  -6    2.79    1.76
 -16  13  -7   -0.25    1.93
 -16  13  -7   -0.59    1.90
 -16  13  -8    3.90    1.96
 -16  13  -8    3.85    1.91
 -16  13  -9    0.65    1.82
 -16  13  -9    3.09    1.88
 -16  13 -10    1.98    2.00
 -16  13 -10    1.80    1.87
 -16  13 -11    1.01    2.05
 -16  13 -11    2.80    1.90
  15 -12 -12    0.30    2.55
  15 -12 -11    1.13    2.12
 -15  12  11    2.19    1.92
  15 -12 -10    3.66    2.19
 -15  12  10   -0.54    1.80
  15 -12  -9    0.67    1.93
 -15  12   9    0.17    1.80
  15 -12  -8    0.50    2.14
 -15  12   8   -0.50    1.64
  15 -12  -7    1.78    2.04
 -15  12   7    0.33    1.67
  15 -12  -6    8.59    2.39
 -15  12   6    8.42    2.10
  15 -12  -5    8.49    2.02
 -15  12   5    9.42    2.12
  15 -12  -4   21.65    2.52
 -15  12   4   19.62    2.63
  15 -12  -3    4.15    1.90
 -15  12   3    4.94    1.89
  15 -12  -2    1.62    1.11
 -15  12   2    4.33    1.48
 -15  12   2    1.86    1.67
  15 -12  -1    2.37    1.47
 -15  12   1    3.35    1.79
 -15  12   1    2.67    1.39
  15 -12   0    4.41    1.46
 -15  12   0    2.99    1.43
 -15  12   0    2.29    1.72
  15 -12   1    2.47    1.38
 -15  12  -1    2.93    1.58
 -15  12  -1    4.65    1.83
  15 -12   2    1.79    1.33
 -15  12  -2    3.91    1.87
 -15  12  -2    1.37    1.13
 -15  12  -3    4.60    1.88
 -15  12  -3    4.10    1.53
 -15  12  -4   16.88    2.26
 -15  12  -4   23.50    2.80
 -15  12  -5    9.84    2.08
 -15  12  -5   11.44    2.26
 -15  12  -6    5.65    1.84
 -15  12  -6    8.43    2.16
 -15  12  -7    0.58    1.91
 -15  12  -7    1.89    1.90
 -15  12  -8    0.01    1.94
 -15  12  -8    1.93    1.75
 -15  12  -9    1.47    1.76
 -15  12  -9    1.57    2.03
 -15  12 -10    3.31    1.87
 -15  12 -10    1.72    1.90
 -15  12 -11    1.19    1.77
 -15  12 -11    0.59    1.87
 -15  12 -12    0.63    2.38
  14 -11 -12    1.87    2.46
  14 -11 -11    6.05    2.36
  14 -11 -10   -3.30    2.09
 -14  11  10   -0.65    1.76
  14 -11  -9   11.66    2.75
 -14  11   9   12.85    2.47
  14 -11  -8   10.53    2.25
 -14  11   8    7.30    2.03
  14 -11  -7    0.66    1.63
 -14  11   7    2.06    1.71
  14 -11  -6    3.26    1.73
 -14  11   6    4.92    1.84
  14 -11  -5   11.36    2.34
 -14  11   5    7.89    1.99
  14 -11  -4    3.61    1.62
 -14  11   4    2.63    1.76
  14 -11  -3   17.48    2.15
 -14  11   3   19.45    2.23
  14 -11  -2   -0.66    0.62
 -14  11   2   -1.32    1.10
 -14  11   2   -0.23    1.48
  14 -11  -1    4.39    1.57
 -14  11   1    4.76    1.32
 -14  11   1    1.81    1.55
  14 -11   0   53.51    3.02
 -14  11   0   49.95    2.90
 -14  11   0   44.52    3.21
  14 -11   1    1.93    1.32
 -14  11  -1    1.60    1.34
 -14  11  -1    2.08    1.68
  14 -11   2    0.61    1.16
 -14  11  -2   -0.32    0.53
 -14  11  -2    0.44    1.59
 -14  11  -3   16.44    2.25
 -14  11  -3   17.16    2.16
 -14  11  -4    4.37    2.01
 -14  11  -4    2.25    1.75
 -14  11  -5    9.84    2.18
 -14  11  -5   12.21    2.38
 -14  11  -6    1.24    1.65
 -14  11  -6    5.64    1.80
 -14  11  -7    5.10    2.00
 -14  11  -7   -0.03    1.58
 -14  11  -8   10.07    1.98
 -14  11  -8    5.18    1.97
 -14  11  -9    7.63    2.40
 -14  11  -9    9.27    2.10
 -14  11 -10    0.19    1.66
 -14  11 -10   -0.33    2.07
 -14  11 -11    3.43    1.88
 -14  11 -11    3.55    2.00
 -14  11 -12    5.84    2.43
 -14  11 -12    2.59    2.39
  13 -10 -13    2.58    2.20
  13 -10 -12    2.85    2.14
  13 -10 -11    6.43    2.28
  13 -10 -10   16.71    2.74
 -13  10  10   17.55    2.65
  13 -10  -9    1.51    1.80
 -13  10   9    2.28    1.78
  13 -10  -8    3.92    1.97
 -13  10   8    2.14    1.68
  13 -10  -7   11.66    2.20
 -13  10   7   19.71    2.59
  13 -10  -6    8.60    2.25
 -13  10   6    9.47    1.99
  13 -10  -5    4.38    1.68
 -13  10   5    4.18    1.69
  13 -10  -4   12.66    2.17
 -13  10   4   12.19    2.04
  13 -10  -3   11.90    2.02
 -13  10   3   11.54    1.44
 -13  10   3    9.07    1.90
  13 -10  -2   56.21    3.30
 -13  10   2   73.34    3.82
 -13  10   2   73.24    3.20
  13 -10  -1    2.18    1.27
 -13  10   1   -1.16    1.04
 -13  10   1    0.75    1.47
  13 -10   0    2.35    1.20
 -13  10   0    2.25    1.48
 -13  10   0    2.53    1.28
  13 -10   1    1.00    1.20
 -13  10  -1    2.85    1.30
 -13  10  -1    3.12    1.54
  13 -10   2   71.16    3.20
 -13  10  -2   51.09    3.26
 -13  10  -2   75.04    3.74
  13 -10   3   12.69    1.53
 -13  10  -3   12.76    1.98
 -13  10  -3   12.34    1.95
 -13  10  -4   14.69    2.29
 -13  10  -4   15.28    2.19
 -13  10  -5    1.03    1.47
 -13  10  -5    2.89    1.61
 -13  10  -6    9.85    2.27
 -13  10  -6   11.92    2.03
 -13  10  -7   15.52    2.41
 -13  10  -7   13.01    2.21
 -13  10  -8    3.03    1.70
 -13  10  -8    2.44    1.80
 -13  10  -9    1.36    1.68
 -13  10  -9    1.44    1.91
 -13  10 -10   17.75    2.61
 -13  10 -10   13.86    2.46
 -13  10 -11    5.92    2.16
 -13  10 -11    5.89    2.16
 -13  10 -12    2.60    2.04
 -13  10 -12    4.91    1.91
 -13  10 -13    3.60    2.14
  12  -9 -14    0.67    2.16
  12  -9 -13    5.96    2.70
  12  -9 -12    0.86    1.99
  12  -9 -11    1.31    1.96
  12  -9 -10   16.71    2.84
  12  -9  -9   -0.25    1.65
 -12   9   9    0.64    1.61
  12  -9  -8    4.23    1.89
 -12   9   8    3.33    1.75
  12  -9  -7   24.55    2.99
 -12   9   7   26.84    2.82
  12  -9  -6   19.39    2.38
 -12   9   6   18.92    2.37
  12  -9  -5   15.61    2.13
 -12   9   5   18.68    2.26
  12  -9  -4   57.50    3.43
 -12   9   4   66.22    3.61
  12  -9  -3   15.47    1.88
 -12   9   3   16.67    2.05
 -12   9   3   14.35    1.50
  12  -9  -2   12.65    1.61
 -12   9   2   10.52    1.74
 -12   9   2   10.99    1.41
  12  -9  -1   18.74    1.85
 -12   9   1   22.50    1.74
 -12   9   1   24.65    2.22
  12  -9   0    2.50    1.11
 -12   9   0    4.24    1.19
 -12   9   0    2.68    1.35
  12  -9   1   22.54    1.83
 -12   9  -1   20.50    1.88
 -12   9  -1   22.20    2.17
  12  -9   2    8.41    1.35
 -12   9  -2    9.33    1.56
 -12   9  -2   10.32    1.71
  12  -9   3   14.94    1.53
 -12   9  -3   15.07    1.93
 -12   9  -3   13.53    1.91
  12  -9   4   66.76    2.93
 -12   9  -4   67.48    3.58
 -12   9  -4   65.90    3.73
 -12   9  -5   21.32    2.27
 -12   9  -5   12.50    2.16
 -12   9  -6   16.54    2.21
 -12   9  -6   14.65    2.04
 -12   9  -7   20.89    2.51
 -12   9  -7   22.17    2.79
 -12   9  -8    0.87    1.67
 -12   9  -8    6.40    1.94
 -12   9  -9    1.52    1.73
 -12   9  -9   -0.09    1.76
 -12   9 -10   16.74    2.45
 -12   9 -10   18.52    2.82
 -12   9 -11   -0.44    1.83
 -12   9 -11   -0.08    1.78
 -12   9 -12   -0.28    1.79
 -12   9 -12    1.46    1.67
 -12   9 -13    2.09    1.99
 -12   9 -14    4.96    2.28
  11  -8 -14   -3.65    1.94
  11  -8 -13   -1.42    1.89
  11  -8 -12    4.70    2.21
  11  -8 -11    3.71    2.00
  11  -8 -10   11.80    2.35
  11  -8  -9   10.85    2.48
 -11   8   9    5.91    1.89
  11  -8  -8    3.79    1.89
 -11   8   8    5.97    1.84
  11  -8  -7   12.64    2.38
 -11   8   7   12.89    2.07
  11  -8  -6    5.06    1.67
 -11   8   6    6.32    1.75
  11  -8  -5    3.81    1.72
 -11   8   5    7.49    1.66
  11  -8  -4    7.71    1.55
 -11   8   4    9.37    1.63
  11  -8  -3   37.83    2.63
 -11   8   3   38.13    2.58
 -11   8   3   36.03    2.02
  11  -8  -2    4.46    1.36
 -11   8   2    5.45    1.12
 -11   8   2    5.75    1.37
 -11   8   1   16.55    1.47
 -11   8   1   16.15    1.84
  11  -8   0   20.10    1.70
 -11   8   0   21.61    1.65
 -11   8   0   21.86    2.04
  11  -8   1   14.88    1.49
 -11   8  -1   10.19    1.60
  11  -8   2    6.21    1.11
 -11   8  -2    6.93    1.39
 -11   8  -2    6.30    1.42
  11  -8   3   30.46    1.94
 -11   8  -3   36.36    2.49
 -11   8  -3   30.51    2.30
  11  -8   4    8.82    1.09
 -11   8  -4    7.51    1.52
 -11   8  -4    7.90    1.54
  11  -8   5    7.66    0.86
 -11   8  -5    6.32    1.59
 -11   8  -5    4.07    1.46
 -11   8  -6    5.15    1.72
 -11   8  -6    6.37    1.56
 -11   8  -7   10.41    2.26
 -11   8  -7   14.13    2.11
 -11   8  -8    4.88    1.88
 -11   8  -8    5.03    1.88
 -11   8  -9    7.44    2.35
 -11   8  -9    7.85    1.91
 -11   8 -10   12.19    2.32
 -11   8 -10   12.82    1.97
 -11   8 -11    1.30    2.09
 -11   8 -11    3.93    1.84
 -11   8 -12    2.44    1.94
 -11   8 -12    1.14    2.13
 -11   8 -13    0.83    1.97
 -11   8 -14    1.78    2.04
  10  -7 -14   -2.71    1.87
  10  -7 -13    7.23    2.41
  10  -7 -12    2.68    2.34
  10  -7 -11    6.74    2.13
  10  -7 -10    1.61    1.78
  10  -7  -9    5.22    2.03
  10  -7  -8   17.67    2.47
 -10   7   8   17.46    2.26
  10  -7  -7   73.63    4.09
 -10   7   7   72.36    3.94
  10  -7  -6    5.51    1.62
 -10   7   6    2.63    1.14
  10  -7  -5   42.76    2.79
 -10   7   5   41.47    2.73
  10  -7  -4    6.41    1.57
 -10   7   4    5.70    1.37
  10  -7  -3   69.08    3.34
 -10   7   3   68.08    2.88
 -10   7   3   68.85    3.28
  10  -7  -2   20.22    1.74
 -10   7   2   18.33    1.77
 -10   7   2   18.02    1.42
 -10   7   1   82.14    3.31
 -10   7   1   79.82    3.70
  10  -7   0  122.78    4.79
 -10   7   0  126.02    4.74
 -10   7   0  119.22    4.96
  10  -7   1   82.20    3.48
 -10   7  -1   83.29    3.75
  10  -7   2   20.19    1.59
 -10   7  -2   22.72    1.86
 -10   7  -2   20.46    1.89
  10  -7   3   68.85    2.96
 -10   7  -3   67.07    3.28
 -10   7  -3   71.99    3.34
  10  -7   4    6.26    0.93
 -10   7  -4    7.56    1.38
 -10   7  -4    9.40    1.66
  10  -7   5   45.86    2.01
 -10   7  -5   42.37    2.81
 -10   7  -5   45.80    2.84
  10  -7   6    7.04    0.85
 -10   7  -6    4.81    1.64
 -10   7  -6    5.63    1.66
  10  -7   7   74.78    2.90
 -10   7  -7   74.42    4.02
 -10   7  -7   64.05    3.50
 -10   7  -8   13.62    2.26
 -10   7  -8   14.75    2.05
 -10   7  -9    2.89    1.87
 -10   7  -9    4.02    1.53
 -10   7 -10    1.97    1.75
 -10   7 -10    3.01    1.50
 -10   7 -11    9.97    2.01
 -10   7 -11    5.73    2.09
 -10   7 -12    1.94    1.89
 -10   7 -12    4.18    1.90
 -10   7 -13    7.74    2.30
 -10   7 -14    0.44    2.22
   9  -6 -15    0.63    1.96
   9  -6 -14   13.21    2.75
   9  -6 -13   -1.59    1.83
   9  -6 -12    2.90    2.24
   9  -6 -11    2.81    1.88
   9  -6 -10   -2.60    1.59
   9  -6  -9    2.48    1.80
   9  -6  -8   41.62    3.22
  -9   6   8   43.53    3.01
   9  -6  -7    6.75    1.78
  -9   6   7    6.02    1.33
   9  -6  -6  145.67    6.07
  -9   6   6  139.98    5.89
   9  -6  -5   40.85    2.61
  -9   6   5   40.07    2.53
   9  -6  -4    6.64    1.31
  -9   6   4    4.86    1.19
   9  -6  -3    2.11    1.20
  -9   6   3    0.96    0.72
  -9   6   3    1.36    0.80
   9  -6  -2    5.11    1.06
  -9   6   2    4.87    0.91
  -9   6   2    4.23    1.11
   9  -6  -1    4.40    0.93
  -9   6   1    5.07    1.11
  -9   6   1    4.47    0.89
   9  -6   0  245.58    8.61
  -9   6   0  242.96    8.50
  -9   6   0  240.74    8.70
   9  -6   1    3.87    0.98
  -9   6  -1    3.14    0.93
  -9   6  -1    5.90    1.32
   9  -6   2    4.35    0.94
  -9   6  -2    4.58    1.11
  -9   6  -2    5.69    1.20
   9  -6   3    0.71    0.73
  -9   6  -3    1.15    1.11
  -9   6  -3    3.53    1.22
   9  -6   4    5.79    0.82
  -9   6  -4    4.42    1.24
  -9   6  -4    5.16    1.30
   9  -6   5   35.13    1.75
  -9   6  -5   40.20    2.43
  -9   6  -5   40.70    2.57
   9  -6   6  141.22    5.24
  -9   6  -6  147.27    6.12
  -9   6  -6  152.40    5.82
   9  -6   7    6.23    0.98
  -9   6  -7    7.23    1.37
  -9   6  -7    5.47    1.70
   9  -6   8   38.96    2.09
  -9   6  -8   37.92    3.15
  -9   6  -8   44.96    2.82
  -9   6  -9    0.53    1.27
  -9   6  -9    0.14    1.64
  -9   6 -10   -1.81    1.58
  -9   6 -10   -0.40    1.22
  -9   6 -11    4.25    1.48
  -9   6 -11    2.90    1.83
  -9   6 -12    3.96    1.75
  -9   6 -12    6.14    2.05
  -9   6 -13    0.21    1.74
  -9   6 -13   -1.43    1.66
  -9   6 -14   10.28    2.42
  -9   6 -15    2.46    2.04
   8  -5 -15    3.59    2.53
   8  -5 -14    2.84    2.09
   8  -5 -13   19.96    2.96
   8  -5 -12    2.34    1.91
   8  -5 -11   10.24    2.29
   8  -5 -10    2.19    1.85
  -8   5  10   -2.03    1.61
   8  -5  -9   21.63    2.60
  -8   5   9   25.55    2.73
   8  -5  -8   50.78    3.43
  -8   5   8   53.73    3.39
   8  -5  -7  100.89    4.75
  -8   5   7   96.33    4.68
  -8   5   7  101.13    4.55
   8  -5  -6   -0.02    1.16
  -8   5   6    3.13    1.19
   8  -5  -5  167.65    6.61
  -8   5   5  168.57    6.51
   8  -5  -4   59.42    2.97
  -8   5   4   58.50    2.92
   8  -5  -3   70.29    3.24
  -8   5   3   71.30    3.21
   8  -5  -2   19.45    1.53
  -8   5   2   21.54    1.36
  -8   5   2   21.61    1.60
   8  -5  -1  163.65    5.90
  -8   5   1  156.64    5.92
  -8   5   1  158.98    5.71
   8  -5   0  245.52    8.38
  -8   5   0  213.18    8.20
  -8   5   0  257.62    8.46
   8  -5   1  161.90    5.92
  -8   5  -1  171.12    6.08
  -8   5  -1  160.88    5.96
   8  -5   2   19.70    1.33
  -8   5  -2   18.76    1.49
  -8   5  -2   19.02    1.47
   8  -5   3   73.34    2.90
  -8   5  -3   70.18    3.21
  -8   5  -3   68.84    3.08
   8  -5   4   59.04    2.50
  -8   5  -4   63.61    2.93
  -8   5  -4   61.74    3.06
   8  -5   5  163.41    5.89
  -8   5  -5  169.61    6.25
  -8   5  -5  167.93    6.54
   8  -5   6   -0.30    0.67
  -8   5  -6    0.57    1.23
  -8   5  -6   -0.92    1.01
   8  -5   7   99.42    3.92
  -8   5  -7  106.26    4.76
  -8   5  -7   97.61    4.17
   8  -5   8   55.32    2.57
  -8   5  -8   53.17    2.95
  -8   5  -8   44.58    3.51
   8  -5   9   22.67    1.81
  -8   5  -9   20.97    2.73
  -8   5  -9   22.96    2.04
   8  -5  10    2.89    1.21
  -8   5 -10    2.43    1.76
  -8   5 -10    2.57    1.57
  -8   5 -11   14.66    2.05
  -8   5 -11    9.73    2.15
  -8   5 -12    6.25    1.79
  -8   5 -12    1.55    2.10
  -8   5 -13   23.51    2.60
  -8   5 -13   20.41    2.85
  -8   5 -14    1.30    1.90
  -8   5 -15    2.43    2.30
   7  -4 -15    1.45    2.10
   7  -4 -14    1.69    1.96
   7  -4 -13   16.15    2.68
   7  -4 -12    2.24    1.84
   7  -4 -11    7.92    2.16
   7  -4 -10   15.90    2.65
  -7   4  10    8.49    2.30
   7  -4  -9    1.06    1.64
  -7   4   9    4.33    1.77
   7  -4  -8    7.36    1.77
  -7   4   8    5.96    1.65
   7  -4  -7   33.81    2.53
  -7   4   7   30.84    2.46
   7  -4  -6   17.18    1.90
  -7   4   6   15.60    1.57
   7  -4  -5   81.87    3.68
  -7   4   5   75.33    3.52
   7  -4  -4    6.32    1.16
  -7   4   4    4.08    1.00
   7  -4  -3   40.93    2.21
  -7   4   3   40.91    2.15
   7  -4  -2   11.70    1.31
  -7   4   2    9.46    0.97
  -7   4   2    9.65    1.14
   7  -4  -1  175.64    6.53
  -7   4   1  188.64    6.39
  -7   4   1  179.26    6.50
  -7   4   0   30.82    1.74
   7  -4   1  185.69    6.28
  -7   4  -1  171.23    6.29
  -7   4  -1  172.54    6.32
   7  -4   2    9.98    1.02
  -7   4  -2   10.27    1.16
  -7   4  -2    8.85    1.05
   7  -4   3   42.26    1.87
  -7   4  -3   40.57    2.18
  -7   4  -3   37.67    1.97
   7  -4   4    3.93    0.75
  -7   4  -4    6.08    1.33
  -7   4  -4    5.55    1.04
   7  -4   5   73.20    3.01
  -7   4  -5   80.28    3.63
  -7   4  -5   77.24    3.24
   7  -4   6   15.69    1.26
  -7   4  -6   19.15    1.59
  -7   4  -6   16.72    1.86
   7  -4   7   31.53    1.86
  -7   4  -7   32.91    2.08
  -7   4  -7   31.73    2.46
   7  -4   8    7.10    1.18
  -7   4  -8    9.25    1.87
  -7   4  -8    5.62    1.36
   7  -4   9    6.77    1.29
  -7   4  -9    4.01    1.71
  -7   4  -9    5.77    1.49
   7  -4  10    9.06    1.54
  -7   4 -10    8.35    2.32
  -7   4 -10   13.60    1.91
   7  -4  11    7.23    1.50
  -7   4 -11    7.61    2.31
  -7   4 -11    4.91    1.65
  -7   4 -12   -0.03    1.46
  -7   4 -12    2.54    1.79
  -7   4 -13   12.71    2.21
  -7   4 -13   13.50    2.46
  -7   4 -14    2.08    1.86
  -7   4 -15    0.57    1.83
   6  -3 -16    3.41    2.17
   6  -3 -15    2.65    2.32
   6  -3 -14    7.34    2.22
   6  -3 -13    4.22    1.98
   6  -3 -12    6.86    2.04
   6  -3 -11   32.86    3.34
   6  -3 -10    0.52    1.63
  -6   3  10    2.35    1.71
   6  -3  -9   27.94    2.83
  -6   3   9   26.51    2.84
   6  -3  -8   21.02    2.30
  -6   3   8   24.78    2.39
   6  -3  -7   63.39    3.39
  -6   3   7   64.40    3.40
   6  -3  -6  210.16    7.81
  -6   3   6  198.44    7.77
   6  -3  -5   76.50    3.58
  -6   3   5   82.48    3.50
   6  -3  -4  170.58    6.43
  -6   3   4  169.98    6.30
   6  -3  -3  150.57    5.72
  -6   3   3  153.90    5.64
   6  -3  -2    0.63    0.80
  -6   3   2    1.00    0.66
  -6   3   2    0.21    0.71
   6  -3  -1  383.57   13.23
  -6   3   1  392.54   13.05
  -6   3   1  395.66   13.16
   6  -3   0    0.12    0.49
  -6   3   0    0.80    0.52
  -6   3   0    2.40    0.72
   6  -3   1  395.63   12.99
  -6   3  -1  379.12   12.96
  -6   3  -1  380.65   12.91
   6  -3   2   -1.01    0.59
  -6   3  -2    0.22    0.77
  -6   3  -2   -0.44    0.79
   6  -3   3  156.02    5.47
  -6   3  -3  151.18    5.73
  -6   3  -3  154.45    5.53
   6  -3   4  165.38    5.81
  -6   3  -4  165.66    6.22
  -6   3  -4  161.85    5.85
   6  -3   5   84.00    3.22
  -6   3  -5   80.36    3.67
  -6   3  -5   80.54    3.28
   6  -3   6  188.94    6.92
  -6   3  -6  196.62    7.42
  -6   3  -6  196.94    6.96
   6  -3   7   61.38    2.81
  -6   3  -7   63.70    3.34
  -6   3  -7   62.94    2.90
   6  -3   8   20.90    1.75
  -6   3  -8   22.76    2.28
  -6   3  -8   21.09    1.81
   6  -3   9   22.73    1.99
  -6   3  -9   21.87    2.38
  -6   3  -9   25.76    2.10
   6  -3  10    2.58    1.23
  -6   3 -10    1.12    1.62
  -6   3 -10    2.51    1.40
   6  -3  11   34.50    2.70
  -6   3 -11   31.18    2.57
  -6   3 -11   24.02    2.80
   6  -3  12    6.17    1.54
  -6   3 -12    3.95    1.63
  -6   3 -12    3.28    1.80
  -6   3 -13    6.32    2.24
  -6   3 -13    5.99    1.81
  -6   3 -14    7.37    2.09
  -6   3 -15    1.58    1.83
  -6   3 -16   -1.57    2.07
   5  -2 -16    2.86    2.41
   5  -2 -15    0.85    2.14
   5  -2 -14   -0.14    1.70
   5  -2 -13    3.70    1.83
   5  -2 -12    6.24    1.95
   5  -2 -11   10.87    2.46
   5  -2 -10   34.50    3.06
  -5   2  10   31.59    2.89
   5  -2  -9   23.54    2.61
  -5   2   9   20.59    2.51
   5  -2  -8   16.95    1.97
  -5   2   8   15.12    1.91
   5  -2  -7   36.84    2.47
  -5   2   7   36.85    2.46
   5  -2  -6    2.09    1.08
   5  -2  -5    0.79    1.09
   5  -2  -4  144.81    5.40
  -5   2   4  137.92    5.28
   5  -2  -3  187.14    6.87
  -5   2   3  192.88    6.79
   5  -2  -2  219.66    7.56
  -5   2   2  207.61    7.42
   5  -2  -1   26.48    1.46
  -5   2   1   20.47    1.28
   5  -2   0   39.54    1.84
  -5   2   0   40.81    1.84
  -5   2   0   38.91    1.80
  -5   2  -1   28.78    1.54
  -5   2  -1   27.75    1.47
   5  -2   2  216.24    7.42
  -5   2  -2  216.91    7.51
  -5   2  -2  210.66    7.31
   5  -2   3  194.91    6.60
  -5   2  -3  187.17    6.51
  -5   2  -3  183.85    6.78
   5  -2   4  147.18    5.34
  -5   2  -4  149.66    5.28
  -5   2  -4  151.65    5.64
   5  -2   5    3.24    0.71
  -5   2  -5    5.37    0.86
  -5   2  -5    2.74    1.03
   5  -2   6    1.48    0.81
  -5   2  -6    1.29    0.75
  -5   2  -6    1.25    1.24
   5  -2   7   39.83    2.10
  -5   2  -7   37.07    2.01
  -5   2  -7   35.76    2.46
   5  -2   8   17.52    1.73
  -5   2  -8   16.81    1.95
  -5   2  -8   19.07    1.66
   5  -2   9   17.85    1.91
  -5   2  -9   21.44    1.90
  -5   2  -9   19.85    2.42
   5  -2  10   32.14    2.39
  -5   2 -10   29.56    2.35
  -5   2 -10   33.16    2.91
   5  -2  11   12.59    1.90
  -5   2 -11    9.22    1.76
  -5   2 -11    8.91    2.02
   5  -2  12    6.14    1.66
  -5   2 -12    8.05    1.78
  -5   2 -12    6.25    1.95
   5  -2  13    1.42    1.52
  -5   2 -13    3.26    1.75
  -5   2 -13    2.37    1.62
  -5   2 -14    1.87    1.77
  -5   2 -15    3.11    2.17
  -5   2 -16    0.88    1.77
   4  -1 -16    4.37    2.34
   4  -1 -15    1.10    2.14
   4  -1 -14    0.09    1.66
   4  -1 -13   -0.02    1.92
   4  -1 -12   28.13    3.05
   4  -1 -11   49.68    3.48
   4  -1 -10   24.47    2.58
  -4   1  10   24.59    2.55
   4  -1  -9   95.47    4.46
  -4   1   9   84.96    4.34
   4  -1  -8   78.47    3.93
  -4   1   8   84.51    3.98
   4  -1  -7   25.93    2.02
  -4   1   7   25.16    2.25
   4  -1  -6    6.72    1.25
   4  -1  -5  127.68    4.99
   4  -1  -4  178.09    6.52
   4  -1  -3  789.77   26.26
   4  -1  -2  208.36    7.43
  -4   1   2  216.25    7.34
   4  -1  -1  158.69    5.66
  -4   1   1  161.32    5.54
   4  -1   0   14.50    0.97
  -4   1   0   15.84    1.05
  -4   1   0   14.95    0.83
  -4   1  -1  147.78    5.22
  -4   1  -1  150.19    5.06
   4  -1   2  186.85    6.81
  -4   1  -2  202.55    6.67
  -4   1  -2  204.79    6.92
   4  -1   3  754.28   25.24
  -4   1  -3  788.95   25.31
  -4   1  -3  751.69   24.94
   4  -1   4  190.16    6.60
  -4   1  -4  187.98    6.41
  -4   1  -4  182.50    6.76
   4  -1   5  138.85    4.99
  -4   1  -5  127.77    4.77
  -4   1  -5  137.59    5.25
   4  -1   6    5.98    0.99
  -4   1  -6    5.53    0.88
  -4   1  -6    5.42    1.21
   4  -1   7   23.80    1.81
  -4   1  -7   28.49    2.26
  -4   1  -7   26.51    1.61
   4  -1   8   85.08    3.67
  -4   1  -8   81.12    3.42
  -4   1  -8   73.19    3.80
   4  -1   9   88.80    4.07
  -4   1  -9   91.38    3.88
  -4   1  -9   87.31    4.30
   4  -1  10   24.60    2.32
  -4   1 -10   23.82    2.66
  -4   1 -10   24.70    2.12
   4  -1  11   48.05    3.20
  -4   1 -11   52.41    3.03
  -4   1 -11   46.29    3.35
   4  -1  12   25.07    2.57
  -4   1 -12   27.91    2.54
  -4   1 -12   25.87    2.91
   4  -1  13    2.27    1.61
  -4   1 -13    1.80    1.52
  -4   1 -13    3.08    1.95
   4  -1  14    0.52    1.54
  -4   1 -14   -0.12    1.83
  -4   1 -15    0.93    1.67
  -4   1 -16    0.70    1.68
   3   0 -16    3.74    2.30
   3   0 -15    0.98    2.00
   3   0 -14    3.50    1.81
   3   0 -13   12.99    2.39
   3   0 -12    2.10    1.89
   3   0 -11    1.95    1.60
   3   0 -10   61.19    3.58
   3   0  -9   42.65    2.82
  -3   0   9   43.66    2.82
   3   0  -8    0.40    1.12
  -3   0   8    3.38    1.19
   3   0  -7   48.60    2.65
   3   0  -6   72.17    3.25
   3   0  -5    6.10    1.04
   3   0  -4  230.22    8.14
   3   0  -3  243.72    8.49
   3   0  -2   47.29    2.06
   3   0  -1   34.99    1.58
   3   0   0    0.93    0.45
  -3   0   0    0.96    0.41
  -3   0   0    0.59    0.27
   3   0   1   34.20    1.49
  -3   0  -1   33.28    1.47
  -3   0  -1   32.58    1.23
   3   0   2   40.29    1.89
  -3   0  -2   47.64    1.99
  -3   0  -2   48.08    1.67
  -3   0  -3  252.48    8.27
  -3   0  -3  246.80    8.60
  -3   0  -4  239.46    7.93
  -3   0  -4  233.24    8.28
  -3   0  -5    3.95    1.09
  -3   0  -5    6.49    0.76
  -3   0  -6   74.74    2.93
  -3   0  -6   72.98    3.30
  -3   0  -7   50.49    2.70
   3   0   8    1.24    0.85
  -3   0  -8   -0.40    1.05
   3   0   9   24.44    1.96
   3   0  10   45.09    2.98
  -3   0 -10   68.20    3.66
   3   0  11    0.56    1.15
  -3   0 -11    2.85    1.45
  -3   0 -11    0.79    1.51
   3   0  12    1.00    1.29
  -3   0 -12   -0.39    1.71
  -3   0 -12    0.87    1.36
   3   0  13    3.64    1.42
  -3   0 -13    9.13    1.85
  -3   0 -13    9.80    2.22
   3   0  14    1.37    1.18
  -3   0 -14    5.91    1.90
  -3   0 -14    4.08    2.00
   3   0  15    0.04    0.56
  -3   0 -15    1.77    1.97
  -3   0 -16    2.43    1.75
   2   1 -16   -0.90    1.63
   2   1 -15    1.54    2.02
   2   1 -14   -1.60    1.83
   2   1 -13   24.60    2.81
   2   1 -12   -0.31    1.68
   2   1 -11   20.07    2.48
   2   1 -10   37.39    2.95
   2   1  -9    2.29    1.28
   2   1  -8   14.73    1.65
   2   1  -7  120.48    4.86
   2   1  -6    0.52    0.94
   2   1  -5    4.53    0.90
   2   1  -4   38.75    1.95
   2   1  -3   60.51    2.54
   2   1  -2  453.26   15.11
   2   1  -1   89.74    3.27
   2   1   0  116.82    4.10
  -2  -1   0  115.02    4.04
   2   1   1  107.64    3.66
  -2  -1  -1   95.39    3.59
   2   1   2  478.57   15.42
  -2  -1  -2  447.31   15.30
   2   1   3   41.85    2.05
  -2  -1  -3   52.79    2.11
   2   1   4   39.00    2.00
  -2  -1  -4   40.63    2.05
   2   1   5    6.04    1.03
  -2  -1  -5    6.72    1.01
   2   1   6    0.64    0.91
  -2  -1  -6    0.83    0.97
   2   1   7  115.54    4.68
  -2  -1  -7  113.66    4.64
   2   1   8   15.02    1.74
  -2  -1  -8   13.41    1.73
   2   1   9    2.08    1.37
  -2  -1  -9    1.49    1.39
   2   1  10   36.16    2.61
  -2  -1 -10   32.00    2.64
   2   1  11   13.80    2.30
  -2  -1 -11   19.39    2.39
   2   1  12    0.00    1.60
  -2  -1 -12   -2.71    1.26
   2   1  13   26.09    2.90
  -2  -1 -13   19.01    2.38
   2   1  14    0.94    1.52
  -2  -1 -14    0.41    1.78
   2   1  15   -0.24    1.89
  -2  -1 -15    1.18    1.86
   2   1  16   -0.64    1.91
  -2  -1 -16    0.48    1.86
   1   2 -16    0.95    1.99
   1   2 -16    3.51    2.01
   1   2 -15   -0.90    1.75
   1   2 -14    0.17    1.78
   1   2 -13   19.47    2.54
   1   2 -12   -0.87    1.56
   1   2 -11   19.48    2.33
   1   2 -10   31.72    2.65
   1   2  -9    3.15    1.39
   1   2  -8   16.92    1.74
   1   2  -7  128.12    5.08
   1   2  -6    0.72    0.90
   1   2  -5    9.27    1.12
   1   2  -4   39.00    1.87
   1   2  -3   44.73    2.00
   1   2  -2  508.71   16.87
   1   2  -1  107.01    3.80
   1   2   0  105.73    3.75
   1   2   0  116.26    3.91
   1   2   1   91.20    3.20
   1   2   1   91.18    3.42
  -1  -2  -1  103.24    3.39
   1   2   2  451.10   14.68
   1   2   2  443.40   15.07
  -1  -2  -2  460.51   14.89
   1   2   3   55.56    2.19
  -1  -2  -3   40.15    1.99
   1   2   4   38.10    1.95
  -1  -2  -4   37.83    1.86
   1   2   5    4.58    0.95
  -1  -2  -5    4.93    0.84
   1   2   6    0.84    0.87
  -1  -2  -6    1.77    0.90
   1   2   7  119.22    4.90
  -1  -2  -7  116.00    4.64
   1   2   8   14.22    1.66
  -1  -2  -8   15.79    1.71
   1   2   9    2.60    1.29
  -1  -2  -9    1.34    1.14
   1   2  10   38.06    3.09
  -1  -2 -10   38.05    2.79
   1   2  11   21.57    2.62
  -1  -2 -11   18.70    2.32
   1   2  12   -0.10    1.45
  -1  -2 -12    0.59    1.34
   1   2  13   22.20    2.82
  -1  -2 -13   20.69    2.37
   1   2  14   -0.82    1.48
  -1  -2 -14    1.11    1.68
   1   2  15    0.42    1.60
  -1  -2 -15   -0.37    1.64
   1   2  16    1.46    2.06
  -1  -2 -16   -0.27    1.81
   0   3 -16    7.13    2.52
   0   3 -15    1.03    1.98
   0   3 -15    1.23    2.12
   0   3 -14   10.18    2.45
   0   3 -14    5.00    1.95
   0   3 -13   13.90    2.16
   0   3 -12    0.57    1.53
   0   3 -11    2.76    1.56
   0   3 -10   68.24    3.58
   0   3  -9   41.83    2.61
   0   3  -8    1.96    1.06
   0   3  -7   47.18    2.40
   0   3  -6   73.43    3.12
   0   3  -5    7.75    0.94
   0   3  -4  242.12    8.32
   0   3  -3  253.26    8.61
   0   3  -2   52.47    2.04
   0   3  -2   50.21    2.16
   0   3  -1   32.52    1.45
   0   3  -1   33.79    1.42
   0   3   0    0.71    0.34
   0   3   0   -0.07    0.14
   0   3   1   33.62    1.38
   0   3   1   33.10    1.46
   0  -3  -1   32.00    1.37
   0   3   2   48.44    2.07
   0   3   2   47.13    1.82
   0  -3  -2   47.93    1.88
   0   3   3  238.58    8.05
   0   3   3  245.11    8.42
   0  -3  -3  240.30    8.12
   0   3   4  238.20    8.38
   0   3   4  237.11    7.98
   0  -3  -4  233.62    8.05
   0   3   5    6.13    1.03
   0  -3  -5    6.75    0.88
   0   3   6   75.86    3.46
   0  -3  -6   73.49    3.10
   0   3   7   48.42    2.69
   0  -3  -7   49.06    2.44
   0   3   8    1.12    1.09
   0  -3  -8    0.22    1.01
   0   3   9   41.98    2.79
   0  -3  -9   39.83    2.53
   0   3  10   65.51    3.78
   0  -3 -10   69.33    3.54
   0   3  11    1.36    1.81
   0  -3 -11    3.80    1.58
   0   3  12    0.97    1.55
   0  -3 -12    0.63    1.44
   0   3  13   10.96    2.17
   0  -3 -13    9.93    1.91
   0   3  14    5.93    2.05
   0  -3 -14    4.93    1.91
   0   3  15    3.26    1.89
   0  -3 -15    1.62    1.74
   0   3  16    2.94    1.88
  -1   4 -16   -0.55    2.14
  -1   4 -15    1.92    1.86
  -1   4 -14    0.45    1.70
  -1   4 -13    5.43    1.88
  -1   4 -13    0.66    1.52
  -1   4 -12   28.61    2.68
  -1   4 -12   25.77    2.77
  -1   4 -11   52.85    3.17
  -1   4 -11   48.07    3.37
  -1   4 -10   26.47    2.50
  -1   4 -10   24.20    2.21
  -1   4  -9  101.10    4.59
  -1   4  -9   96.17    4.24
  -1   4  -8   86.28    3.71
  -1   4  -8   86.11    4.00
  -1   4  -7   26.48    1.71
  -1   4  -7   26.38    2.00
  -1   4  -6    6.76    0.96
  -1   4  -6    6.40    1.21
  -1   4  -5  135.38    4.95
  -1   4  -5  139.63    5.27
  -1   4  -4  196.48    7.00
  -1   4  -4  193.48    6.72
  -1   4  -3  745.57   24.59
  -1   4  -3  743.11   24.46
  -1   4  -2  227.11    7.79
  -1   4  -2  223.68    7.60
  -1   4  -1  160.92    5.53
  -1   4  -1  162.62    5.66
  -1   4   0   14.84    1.08
  -1   4   0   15.64    0.94
  -1   4   1  160.40    5.62
  -1   4   2  210.50    7.21
  -1   4   2  208.28    7.38
   1  -4  -2  215.42    7.09
  -1   4   3  749.88   24.25
  -1   4   3  737.48   24.64
   1  -4  -3  733.02   24.17
  -1   4   4  181.06    6.70
  -1   4   4  183.65    6.36
   1  -4  -4  185.08    6.28
  -1   4   5  128.59    5.02
  -1   4   5  124.59    4.62
   1  -4  -5  128.32    4.57
  -1   4   6    4.48    1.19
   1  -4  -6    5.71    0.92
  -1   4   7   24.85    1.99
   1  -4  -7   25.10    1.70
  -1   4   8   74.00    3.86
   1  -4  -8   83.71    3.47
  -1   4   9   87.74    4.47
   1  -4  -9   85.56    3.80
  -1   4  10   22.40    2.49
   1  -4 -10   23.95    2.11
  -1   4  11   49.00    3.41
   1  -4 -11   47.61    2.95
  -1   4  12   24.35    2.81
   1  -4 -12   24.94    2.37
  -1   4  13    0.79    1.62
   1  -4 -13    3.27    1.56
  -1   4  14   -0.59    1.56
   1  -4 -14    2.37    1.63
  -1   4  15    2.11    2.23
  -1   4  16   -1.24    1.78
  -2   5 -16    0.65    2.27
  -2   5 -15    1.36    1.81
  -2   5 -14    2.06    1.86
  -2   5 -13    0.43    1.65
  -2   5 -12    7.36    1.91
  -2   5 -12    7.25    1.77
  -2   5 -11   10.46    2.10
  -2   5 -11   11.81    1.89
  -2   5 -10   30.31    2.38
  -2   5 -10   31.32    2.77
  -2   5  -9   19.42    1.83
  -2   5  -9   20.55    2.16
  -2   5  -8   22.80    1.74
  -2   5  -8   19.21    2.02
  -2   5  -7   39.58    2.06
  -2   5  -7   40.08    2.46
  -2   5  -6    3.26    1.08
  -2   5  -6    3.87    0.80
  -2   5  -5    3.88    0.72
  -2   5  -5    3.67    1.04
  -2   5  -4  157.19    5.78
  -2   5  -4  152.86    5.36
  -2   5  -3  204.07    7.15
  -2   5  -3  196.91    6.77
  -2   5  -2  214.31    7.57
  -2   5  -2  217.21    7.26
  -2   5  -1   22.13    1.11
  -2   5  -1   20.83    1.43
  -2   5   0   42.68    2.04
  -2   5   0   41.60    1.81
  -2   5   1   26.92    1.71
  -2   5   1   25.38    1.40
  -2   5   2  171.67    6.65
  -2   5   2  212.45    6.84
  -2   5   3  177.83    6.64
   2  -5  -3  187.62    6.16
  -2   5   4  147.55    5.61
   2  -5  -4  147.12    5.06
  -2   5   5    1.10    0.56
  -2   5   5    3.02    0.98
   2  -5  -5    4.75    0.66
  -2   5   6    1.95    0.64
  -2   5   6    1.81    1.03
   2  -5  -6    3.68    0.76
  -2   5   7   36.90    2.61
   2  -5  -7   38.63    1.96
  -2   5   8   23.80    2.30
   2  -5  -8   18.90    1.58
  -2   5   9   16.44    2.16
   2  -5  -9   20.38    1.71
  -2   5  10   33.97    3.04
   2  -5 -10   29.51    2.19
  -2   5  11   11.11    2.15
   2  -5 -11    8.22    1.58
  -2   5  12    8.67    2.24
   2  -5 -12    4.91    1.51
  -2   5  13    2.76    1.80
  -2   5  14    1.11    2.04
  -2   5  15   -1.29    1.68
  -2   5  16    2.38    2.37
  -3   6 -16    2.34    2.47
  -3   6 -15    0.13    2.18
  -3   6 -14    5.71    2.09
  -3   6 -13   12.39    2.50
  -3   6 -12    4.49    2.11
  -3   6 -11   28.06    2.83
  -3   6 -11   31.43    2.43
  -3   6 -10    1.56    1.31
  -3   6 -10    1.53    1.61
  -3   6  -9   24.10    1.88
  -3   6  -9   24.18    2.39
  -3   6  -8   20.97    1.59
  -3   6  -8   21.18    2.15
  -3   6  -7   66.27    2.81
  -3   6  -7   71.17    3.44
  -3   6  -6  202.10    7.56
  -3   6  -6  202.34    7.01
  -3   6  -5   85.79    3.78
  -3   6  -5   89.18    3.22
  -3   6  -4  169.94    5.81
  -3   6  -4  172.72    6.36
  -3   6  -3  152.38    5.75
  -3   6  -3  156.00    5.24
  -3   6  -2    0.20    0.89
  -3   6  -2    0.05    0.45
  -3   6  -1  387.56   12.93
  -3   6  -1  390.28   13.20
  -3   6   0    2.66    0.98
  -3   6   0    3.25    0.70
  -3   6   1  377.02   13.00
  -3   6   1  387.48   12.94
  -3   6   2   -0.49    0.76
  -3   6   2    0.57    0.88
  -3   6   3  146.29    5.44
  -3   6   3  149.63    5.58
  -3   6   4  167.46    6.00
  -3   6   4  161.56    6.19
   3  -6  -4  163.21    5.53
  -3   6   5   84.11    3.69
  -3   6   5   77.57    3.33
   3  -6  -5   81.70    2.95
  -3   6   6  195.67    7.39
   3  -6  -6  189.42    6.58
  -3   6   7   63.27    3.40
   3  -6  -7   64.42    2.64
  -3   6   8   18.71    2.19
   3  -6  -8   19.61    1.49
  -3   6   9   26.74    2.65
   3  -6  -9   22.86    1.76
  -3   6  10    1.33    1.60
   3  -6 -10    3.26    1.19
  -3   6  11   33.11    3.25
   3  -6 -11   30.02    2.31
  -3   6  12    6.98    2.04
  -3   6  13    9.80    2.55
  -3   6  14    5.67    2.10
  -3   6  15    0.55    1.88
  -3   6  16    0.38    2.25
  -4   7 -15    4.53    2.09
  -4   7 -14    3.99    2.32
  -4   7 -13   11.60    2.31
  -4   7 -12    2.04    1.70
  -4   7 -11    3.79    1.79
  -4   7 -10   11.56    1.50
  -4   7 -10   12.49    2.09
  -4   7  -9    6.33    1.14
  -4   7  -9    8.45    1.84
  -4   7  -8    6.49    1.05
  -4   7  -8    5.41    1.60
  -4   7  -7   33.42    1.72
  -4   7  -7   34.79    2.45
  -4   7  -6   15.48    1.06
  -4   7  -6   17.76    1.81
  -4   7  -5   80.30    2.84
  -4   7  -5   76.03    3.58
  -4   7  -4    4.50    0.45
  -4   7  -4    2.76    1.07
  -4   7  -3   41.66    1.55
  -4   7  -3   40.46    2.25
  -4   7  -2    9.02    0.70
  -4   7  -2   10.44    1.27
  -4   7  -1  192.37    6.98
  -4   7  -1  190.46    6.57
  -4   7   0   36.39    2.13
  -4   7   0   35.14    1.76
  -4   7   1  183.94    6.39
  -4   7   1  171.19    6.54
  -4   7   2    9.41    1.25
  -4   7   2    8.92    1.15
  -4   7   3   39.80    2.20
  -4   7   3   39.47    2.14
  -4   7   4    7.40    1.07
  -4   7   4    6.74    1.19
  -4   7   5   76.11    3.29
  -4   7   5   79.93    3.59
   4  -7  -5   72.40    2.65
  -4   7   6   18.35    1.92
  -4   7   6   15.69    1.50
   4  -7  -6   15.71    1.00
  -4   7   7   32.20    2.45
   4  -7  -7   30.23    1.54
  -4   7   8    7.18    1.32
  -4   7   8    8.13    1.97
   4  -7  -8    7.64    0.99
  -4   7   9    7.11    1.82
   4  -7  -9    5.26    1.06
  -4   7  10   10.56    2.18
   4  -7 -10   12.48    1.44
  -4   7  11    7.22    2.02
  -4   7  12   -0.99    1.56
  -4   7  13    9.48    2.38
  -4   7  14    2.31    1.98
  -4   7  15    6.10    2.26
  -5   8 -15    0.23    1.94
  -5   8 -14   -0.72    1.78
  -5   8 -13   23.85    3.06
  -5   8 -12    2.15    2.07
  -5   8 -11    9.30    2.05
  -5   8 -10    0.90    1.68
  -5   8  -9   27.83    2.62
  -5   8  -8   60.10    2.55
  -5   8  -8   64.03    3.74
  -5   8  -7  106.81    4.78
  -5   8  -7  105.10    3.79
  -5   8  -6    0.62    0.43
  -5   8  -6    0.91    1.26
  -5   8  -5  170.29    6.60
  -5   8  -4   52.58    2.79
  -5   8  -3   75.36    3.44
  -5   8  -3   76.87    2.68
  -5   8  -2   20.18    1.73
  -5   8  -2   20.00    1.06
  -5   8  -1  163.32    5.72
  -5   8  -1  162.75    6.19
  -5   8   0  272.31    9.36
  -5   8   0  271.08    9.68
  -5   8   1  168.40    6.40
  -5   8   1  168.58    6.11
  -5   8   2   21.53    1.62
  -5   8   2   23.54    1.87
  -5   8   3   73.05    3.29
  -5   8   3   67.90    3.21
  -5   8   4   61.54    3.00
  -5   8   4   57.74    2.89
  -5   8   5  170.13    6.54
  -5   8   5  174.98    6.79
  -5   8   6   -0.72    1.33
  -5   8   6    2.14    1.14
   5  -8  -6    1.03    0.39
  -5   8   7  103.37    4.42
  -5   8   7  101.81    4.79
   5  -8  -7   98.99    3.57
  -5   8   8   48.05    2.87
  -5   8   8   49.44    3.32
   5  -8  -8   52.37    2.16
  -5   8   9   21.88    2.15
  -5   8   9   19.88    2.47
  -5   8  10    2.54    1.74
  -5   8  11   10.14    2.24
  -5   8  12    3.22    1.91
  -5   8  13   19.77    2.93
  -5   8  14   -1.05    2.20
  -5   8  15    7.73    2.75
  -6   9 -15    1.27    2.34
  -6   9 -14   11.41    2.79
  -6   9 -13    3.64    2.32
  -6   9 -12   -1.01    1.65
  -6   9 -11    3.72    2.07
  -6   9 -10   -1.46    1.60
  -6   9  -9   -0.45    1.63
  -6   9  -8   43.90    3.14
  -6   9  -7    5.39    1.68
  -6   9  -6  144.50    6.00
  -6   9  -5   37.22    2.51
  -6   9  -4    3.77    1.32
  -6   9  -3    2.05    0.42
  -6   9  -3   -1.24    1.02
  -6   9  -2    3.74    0.65
  -6   9  -2    5.35    1.10
  -6   9  -1    4.32    0.78
  -6   9  -1    4.17    1.27
  -6   9   0  251.89    9.18
  -6   9   0  250.79    8.76
  -6   9   1    5.57    1.03
  -6   9   1    3.74    1.24
  -6   9   2    5.80    1.33
  -6   9   2    4.85    1.01
  -6   9   3    2.21    1.16
  -6   9   3    1.79    1.14
  -6   9   4    4.16    1.23
  -6   9   4    4.50    1.20
  -6   9   5   40.43    2.61
  -6   9   5   35.26    2.50
  -6   9   6  141.08    5.74
  -6   9   6  138.72    5.96
  -6   9   7    5.98    1.44
  -6   9   7    7.10    1.80
  -6   9   8   37.98    3.15
  -6   9   8   38.19    2.87
  -6   9   9   -2.41    1.46
  -6   9   9    1.86    1.48
  -6   9  10    5.61    1.93
  -6   9  11    1.68    1.80
  -6   9  12    4.07    2.04
  -6   9  13   -1.53    1.73
  -6   9  14    8.20    2.44
  -6   9  15   -1.68    1.93
  -7  10 -14   -0.91    1.90
  -7  10 -13    7.11    2.27
  -7  10 -12    5.90    2.35
  -7  10 -11    4.69    2.22
  -7  10 -10    5.63    1.97
  -7  10  -9    5.66    1.93
  -7  10  -8   15.63    2.27
  -7  10  -7   78.11    4.14
  -7  10  -6    4.93    1.64
  -7  10  -5   41.09    2.78
  -7  10  -4    6.74    1.54
  -7  10  -3   71.97    2.60
  -7  10  -3   72.85    3.62
  -7  10  -2   18.38    1.14
  -7  10  -2   19.48    1.99
  -7  10  -1   78.29    3.74
  -7  10  -1   84.50    3.29
  -7  10   0  126.71    5.36
  -7  10   0  128.90    4.85
  -7  10   1   84.38    3.62
  -7  10   1   86.37    4.05
  -7  10   2   17.71    1.63
  -7  10   2   22.85    2.13
  -7  10   3   70.38    3.43
  -7  10   3   66.00    3.47
  -7  10   4    5.67    1.36
  -7  10   4    5.88    1.42
  -7  10   5   41.57    2.82
  -7  10   5   48.07    2.86
  -7  10   6    4.10    1.42
  -7  10   6    4.55    1.57
  -7  10   7   77.05    3.95
  -7  10   7   75.41    4.15
  -7  10   8   17.10    2.39
  -7  10   8   15.92    2.09
  -7  10   9    1.28    1.73
  -7  10   9    5.39    1.63
  -7  10  10    4.05    1.89
  -7  10  10    6.15    1.67
  -7  10  11    6.16    2.09
  -7  10  12    7.13    2.44
  -7  10  13    5.78    2.24
  -7  10  14    0.22    1.90
  -8  11 -14    1.84    2.06
  -8  11 -13    0.65    1.94
  -8  11 -12    1.91    1.91
  -8  11 -11    4.11    1.99
  -8  11 -10   11.19    2.21
  -8  11  -9    5.65    1.95
  -8  11  -8    6.22    1.98
  -8  11  -7   15.71    2.30
  -8  11  -6    6.79    1.84
  -8  11  -5    6.43    1.70
  -8  11  -4    6.67    1.44
  -8  11  -3   41.57    2.78
  -8  11  -3   35.21    1.52
  -8  11  -2    4.88    1.25
  -8  11  -2    6.77    0.87
  -8  11  -1   16.03    2.00
  -8  11  -1   16.49    1.35
  -8  11   0   18.85    1.52
  -8  11   0   24.60    2.26
  -8  11   1   14.15    1.71
  -8  11   1   12.59    1.46
  -8  11   2    7.22    1.68
  -8  11   2    7.69    1.40
  -8  11   3   40.10    2.77
  -8  11   3   37.32    2.44
  -8  11   4    6.45    1.65
  -8  11   4    4.25    1.39
  -8  11   5    7.57    1.66
  -8  11   5    4.32    1.53
  -8  11   6    8.69    1.77
  -8  11   6    5.28    1.69
  -8  11   7    8.70    2.02
  -8  11   7   12.03    2.07
  -8  11   8    5.46    1.71
  -8  11   8    4.98    1.89
  -8  11   9   11.46    2.26
  -8  11   9    7.94    2.15
  -8  11  10   14.06    2.46
  -8  11  10   11.21    2.06
  -8  11  11    2.68    1.93
  -8  11  11    4.99    1.66
  -8  11  12    3.04    2.11
  -8  11  13    0.30    1.86
  -8  11  14    1.53    2.14
  -9  12 -14    0.88    2.02
  -9  12 -13    1.10    2.00
  -9  12 -12   -0.57    1.76
  -9  12 -11    0.36    1.83
  -9  12 -10   17.31    2.55
  -9  12  -9    2.88    1.84
  -9  12  -8    2.29    1.82
  -9  12  -7   22.35    2.61
  -9  12  -6   15.29    2.19
  -9  12  -5   18.93    2.37
  -9  12  -4   65.51    3.78
  -9  12  -3   15.62    1.94
   9 -12   3   13.59    0.93
  -9  12  -2    7.88    1.82
  -9  12  -2   11.49    1.14
  -9  12  -1   22.41    1.66
  -9  12  -1   23.95    2.46
  -9  12   0   -0.55    0.97
  -9  12   0    0.47    1.47
  -9  12   1   23.69    2.00
  -9  12   1   26.35    2.51
  -9  12   2   12.60    1.72
  -9  12   2   12.95    2.04
  -9  12   3   13.12    1.73
  -9  12   3   14.30    2.14
  -9  12   3   12.60    0.93
  -9  12   4   63.47    3.65
  -9  12   4   59.76    3.67
  -9  12   5   13.73    2.25
  -9  12   6   17.30    2.36
  -9  12   6   14.75    2.25
  -9  12   7   24.85    2.71
  -9  12   7   22.54    2.89
  -9  12   8    3.08    2.11
  -9  12   8    1.04    1.54
  -9  12   9    2.20    1.53
  -9  12   9    0.31    1.68
  -9  12  10   12.79    2.45
  -9  12  10   17.49    2.42
  -9  12  11    4.03    2.07
  -9  12  11    2.41    1.62
  -9  12  12    1.20    2.26
  -9  12  13    2.24    2.55
  -9  12  14    4.20    2.72
 -10  13 -13    7.12    2.37
 -10  13 -12    6.81    2.28
 -10  13 -11    3.66    2.01
 -10  13 -10   13.30    2.46
 -10  13  -9    2.16    1.87
 -10  13  -8    1.39    1.79
 -10  13  -7   13.34    2.34
 -10  13  -6    7.97    2.12
 -10  13  -5    2.71    1.86
 -10  13  -4   11.55    2.15
 -10  13  -3   12.58    2.21
 -10  13  -2   71.73    4.13
 -10  13  -2   75.38    3.11
 -10  13  -1    1.21    1.03
 -10  13  -1    1.77    1.67
 -10  13   0    2.43    1.19
 -10  13   0    3.67    1.79
 -10  13   1    1.23    1.69
 -10  13   1    1.15    1.32
 -10  13   2   82.15    4.40
 -10  13   2   75.64    3.89
 -10  13   3   12.90    2.19
 -10  13   3   12.76    2.02
 -10  13   4   13.24    1.96
 -10  13   4   12.22    2.17
 -10  13   5    2.27    1.75
 -10  13   5    3.48    1.87
 -10  13   6   10.92    2.10
 -10  13   6    8.88    2.13
 -10  13   7   15.48    2.63
 -10  13   7   17.22    2.63
 -10  13   8    4.05    1.87
 -10  13   8    3.25    1.72
 -10  13   9    1.24    1.55
 -10  13   9    0.51    1.72
 -10  13  10   13.27    2.79
 -10  13  10   15.82    2.46
 -10  13  11    7.17    2.32
 -10  13  11    3.68    1.90
 -10  13  12    4.21    1.78
 -10  13  12    4.18    2.17
 -10  13  13   -0.92    1.98
 -11  14 -12    2.66    2.08
 -11  14 -11    6.05    2.54
 -11  14 -10   -0.71    1.84
 -11  14  -9   12.69    2.45
 -11  14  -8    6.08    2.05
 -11  14  -7    3.56    1.93
 -11  14  -6    3.33    1.99
 -11  14  -5   12.12    2.33
 -11  14  -4    1.32    1.91
 -11  14  -3   20.49    2.59
 -11  14  -2   -0.25    1.74
 -11  14  -1    2.89    1.16
 -11  14  -1    2.88    1.84
 -11  14   0   46.04    3.49
 -11  14   0   48.90    2.84
 -11  14   1   -0.59    1.37
 -11  14   1    4.39    1.89
 -11  14   2    1.37    1.87
 -11  14   2   -0.18    1.35
 -11  14   3   20.33    2.35
 -11  14   3   15.09    2.38
 -11  14   4    2.78    1.85
 -11  14   4    1.89    1.88
 -11  14   5   14.06    2.37
 -11  14   5   11.24    2.31
 -11  14   6    5.37    2.29
 -11  14   6    8.04    1.98
 -11  14   7    3.67    1.83
 -11  14   7    3.46    1.79
 -11  14   8   11.27    2.26
 -11  14   8    8.47    2.14
 -11  14   9   10.49    2.34
 -11  14   9   15.53    2.72
 -11  14  10    2.34    2.03
 -11  14  10    1.39    1.68
 -11  14  11    3.31    2.17
 -11  14  11    5.44    2.07
 -11  14  12    1.39    1.78
 -11  14  12    2.17    2.07
 -12  15 -12    1.16    2.16
 -12  15 -11    0.58    2.05
 -12  15 -10    5.25    2.19
 -12  15  -9    1.84    2.04
 -12  15  -8    0.89    1.89
 -12  15  -7    1.13    1.89
 -12  15  -6    7.88    2.18
 -12  15  -5    5.51    2.11
 -12  15  -4   16.81    2.25
 -12  15  -3    3.11    1.98
 -12  15  -2    2.73    1.95
 -12  15  -1    1.06    1.86
 -12  15  -1    3.73    1.23
 -12  15   0    1.03    1.82
 -12  15   0    3.87    1.46
 -12  15   1    3.26    1.98
 -12  15   1    4.28    1.66
 -12  15   2    3.15    2.03
 -12  15   2    5.90    1.78
 -12  15   3    5.64    1.63
 -12  15   3    5.44    1.72
 -12  15   4   20.81    2.80
 -12  15   4   17.50    2.53
 -12  15   5   11.05    2.31
 -12  15   5    8.69    2.20
 -12  15   6    8.32    2.30
 -12  15   6    5.34    2.05
 -12  15   7    2.49    1.79
 -12  15   7    1.00    1.76
 -12  15   8    0.14    1.67
 -12  15   8   -0.30    1.69
 -12  15   9    4.48    2.40
 -12  15   9    2.31    1.85
 -12  15  10    1.00    1.74
 -12  15  10    2.98    2.12
 -12  15  11    2.37    2.13
 -12  15  11    3.25    2.28
 -12  15  12    0.23    2.06
 -12  15  12    0.49    1.71
 -13  16 -11    3.36    2.26
 -13  16 -10   -0.53    2.43
 -13  16  -9    0.55    2.04
 -13  16  -8    4.26    2.12
 -13  16  -7    0.60    1.89
 -13  16  -6    0.37    1.84
 -13  16  -5    2.25    1.87
 -13  16  -4   -1.80    1.70
 -13  16  -3   11.63    2.34
 -13  16  -2    0.91    1.81
 -13  16  -1    2.05    1.91
 -13  16   0    7.14    2.16
 -13  16   0    2.82    1.45
 -13  16   1    1.47    1.85
 -13  16   1    3.15    1.63
 -13  16   2    5.01    2.05
 -13  16   2    3.35    1.71
 -13  16   3    8.23    2.04
 -13  16   3   12.92    2.44
 -13  16   4    2.47    1.81
 -13  16   4   -1.31    1.42
 -13  16   5    0.17    1.87
 -13  16   5    1.79    1.78
 -13  16   6    2.95    1.85
 -13  16   6    2.87    2.03
 -13  16   7    2.92    2.28
 -13  16   7    3.25    2.27
 -13  16   8    5.48    2.20
 -13  16   8    3.57    2.03
 -13  16   9   -0.33    1.92
 -13  16   9    0.10    1.86
 -13  16  10    2.03    2.40
 -13  16  10   -0.20    2.14
 -13  16  11   -0.36    2.00
 -13  16  11    3.63    2.13
 -14  17 -10    5.29    2.42
 -14  17  -9    1.99    2.11
 -14  17  -8    3.24    2.21
 -14  17  -7    9.75    2.44
 -14  17  -6    4.35    2.10
 -14  17  -5    0.98    1.95
 -14  17  -4    3.38    2.04
 -14  17  -3    3.80    1.96
 -14  17  -2   13.57    2.50
 -14  17  -1    2.87    1.52
 -14  17   0    0.71    1.82
 -14  17   1    5.02    1.61
 -14  17   1    2.95    1.99
 -14  17   2   11.85    2.11
 -14  17   2   14.70    2.52
 -14  17   3    7.98    2.04
 -14  17   3    3.74    2.08
 -14  17   4   -1.40    1.71
 -14  17   4    0.43    1.81
 -14  17   5   -0.38    1.94
 -14  17   5    4.28    2.08
 -14  17   6    4.74    2.23
 -14  17   6    5.30    2.32
 -14  17   7   11.29    2.71
 -14  17   7    7.01    2.42
 -14  17   8    0.74    1.94
 -14  17   8   -1.91    1.67
 -14  17   9    0.26    1.97
 -14  17   9   -0.24    2.16
 -14  17  10    5.39    2.56
 -14  17  10    2.59    2.24
 -15  18  -9    0.91    2.28
 -15  18  -8    1.56    2.12
 -15  18  -7    2.62    2.54
 -15  18  -6   -1.98    1.83
 -15  18  -5    2.90    2.09
 -15  18  -4    8.37    2.30
 -15  18  -3   -1.60    1.78
 -15  18  -2    3.82    2.04
 -15  18  -1    4.22    2.10
 -15  18   0    4.96    2.12
 -15  18   1    6.49    2.22
 -15  18   2    2.54    1.86
 -15  18   3    0.55    1.84
 -15  18   3    2.07    1.84
 -15  18   4    7.06    2.25
 -15  18   4    8.80    2.39
 -15  18   5    5.15    2.19
 -15  18   5    1.23    2.02
 -15  18   6   -0.80    1.80
 -15  18   6   -0.41    2.04
 -15  18   7    1.67    1.95
 -15  18   7    3.47    2.20
 -15  18   8    1.17    2.04
 -15  18   8   -1.11    2.15
 -15  18   9    0.83    2.09
 -15  18   9    1.12    2.09
 -16  19  -8    1.22    2.27
 -16  19  -7   -0.11    2.08
 -16  19  -6    0.05    2.06
 -16  19  -5    4.96    2.26
 -16  19  -4   -1.48    1.78
 -16  19  -3   10.08    2.45
 -16  19  -2    1.83    2.06
 -16  19  -1    4.65    2.15
 -16  19   0    4.12    2.12
 -16  19   1    3.18    2.10
 -16  19   2    0.59    1.80
 -16  19   3    9.03    2.39
 -16  19   4    4.58    2.16
 -16  19   4   -0.36    1.91
 -16  19   5    0.95    2.03
 -16  19   5   -1.63    1.90
 -16  19   6    2.77    1.93
 -16  19   6   -1.54    1.93
 -16  19   7    1.25    2.15
 -16  19   7   -0.21    2.23
 -16  19   8    0.29    2.32
 -17  20  -6   -2.28    1.99
 -17  20  -5    1.44    1.82
 -17  20  -5   -0.62    2.33
 -17  20  -4    3.26    2.18
 -17  20  -3    0.47    1.98
 -17  20  -2    6.70    2.28
 -17  20  -1   -0.84    1.98
 -17  20   0    0.21    2.01
 -17  20   1    2.55    2.02
 -17  20   2    0.29    1.93
 -17  20   3    0.92    2.02
 -17  20   4    0.68    1.95
 -17  20   5    2.56    2.05
 -17  20   5   -1.98    2.01
  17 -20  -5    2.97    2.09
 -17  20   6   -2.17    2.11
 -17  20   6    2.98    2.24
 -18  21  -3   -2.55    1.88
 -18  21  -2    0.16    2.03
 -18  21  -1    1.68    2.05
 -18  21   0    1.70    2.05
 -18  21   1    0.25    1.88
 -18  21   2   -1.58    1.71
 -18  21   3    2.39    2.14
  21 -17  -4   -1.47    1.30
 -21  17   4    3.75    2.23
 -21  17   3    0.74    1.94
 -21  17   2    0.48    2.27
 -21  17   1    2.24    1.98
 -21  17   0   -1.53    1.75
 -21  17  -1   -0.22    1.81
 -21  17  -2    3.54    1.97
 -21  17  -3    1.29    1.90
 -21  17  -4   -1.11    1.80
 -21  17  -4   -0.67    1.00
  20 -16  -7   -1.02    2.46
  20 -16  -6    1.50    1.92
 -20  16   6   -1.22    1.75
  20 -16  -5    0.12    2.00
 -20  16   5    1.12    1.88
  20 -16  -4    1.63    1.94
 -20  16   4   -0.72    1.81
  20 -16  -3    2.57    1.95
 -20  16   3   -0.92    1.74
 -20  16   2    1.34    1.89
 -20  16   1    1.19    1.87
 -20  16   0    2.41    1.91
 -20  16  -1   -2.96    1.64
 -20  16  -2    1.51    1.87
 -20  16  -3    1.31    1.75
 -20  16  -3    2.47    1.87
 -20  16  -4    1.90    1.90
 -20  16  -4    2.51    1.94
 -20  16  -5    0.98    1.91
 -20  16  -5    0.61    2.00
 -20  16  -6    0.42    1.82
 -20  16  -6    2.27    1.79
 -20  16  -7    0.58    2.10
  19 -15  -8   -0.86    2.50
 -19  15   8    4.52    2.25
  19 -15  -7    0.18    2.33
 -19  15   7    3.13    2.08
  19 -15  -6   -1.34    2.08
 -19  15   6   -0.92    1.72
  19 -15  -5   -0.17    1.64
 -19  15   5   -0.05    1.82
  19 -15  -4   14.73    2.53
 -19  15   4   13.16    2.53
  19 -15  -3    0.75    0.80
 -19  15   3    4.42    2.04
  19 -15  -2    1.79    1.95
 -19  15   2    3.27    1.90
 -19  15   1    3.69    1.89
 -19  15   0    1.97    1.79
 -19  15  -1    4.20    1.90
 -19  15  -2    4.48    1.91
 -19  15  -2    5.92    1.85
 -19  15  -3    7.39    2.13
 -19  15  -4   12.48    2.36
 -19  15  -4   11.09    2.30
 -19  15  -5    2.00    1.88
 -19  15  -5    1.70    1.88
 -19  15  -6    3.29    1.82
 -19  15  -6    1.32    1.79
 -19  15  -7   -0.19    1.71
 -19  15  -7   -1.00    2.01
 -19  15  -8    6.42    2.06
 -19  15  -8    1.25    2.23
  18 -14  -9   12.16    3.11
 -18  14   9    6.89    2.34
  18 -14  -8    2.20    2.05
 -18  14   8   -1.06    1.84
  18 -14  -7    0.50    2.33
 -18  14   7    0.31    1.85
  18 -14  -6    7.39    2.24
 -18  14   6    6.63    2.17
  18 -14  -5    5.73    2.00
 -18  14   5    8.19    2.19
  18 -14  -4   -1.46    1.48
 -18  14   4    0.13    1.72
  18 -14  -3   11.30    2.10
 -18  14   3   20.86    2.75
  18 -14  -2    1.33    1.61
 -18  14   2    1.51    1.71
  18 -14  -1    1.34    1.70
 -18  14   1    3.80    1.85
 -18  14   0   12.70    2.29
 -18  14  -1    1.77    1.69
 -18  14  -1   -0.97    1.38
 -18  14  -2    3.67    1.85
 -18  14  -2    0.07    1.50
 -18  14  -3   15.55    2.39
 -18  14  -3   12.85    1.99
 -18  14  -4   -1.06    1.71
 -18  14  -4    1.78    2.07
 -18  14  -5   10.24    2.18
 -18  14  -5    5.56    2.10
 -18  14  -6    6.09    1.97
 -18  14  -6    9.69    2.24
 -18  14  -7    2.84    2.13
 -18  14  -7    0.20    1.98
 -18  14  -8   -0.93    1.74
 -18  14  -8    2.08    2.15
 -18  14  -9   10.05    2.46
 -18  14  -9    5.13    2.04
  17 -13 -10    8.94    3.02
 -17  13  10   11.21    2.64
  17 -13  -9    4.50    2.28
 -17  13   9   -0.81    1.78
  17 -13  -8    3.84    2.24
 -17  13   8    3.75    2.00
  17 -13  -7    5.47    2.17
 -17  13   7    4.78    2.05
  17 -13  -6   -0.33    1.72
 -17  13   6    1.26    1.73
  17 -13  -5    3.51    1.84
 -17  13   5    4.11    1.88
  17 -13  -4    2.02    1.89
 -17  13   4    4.80    1.95
  17 -13  -3    3.24    1.78
 -17  13   3    3.41    1.84
  17 -13  -2   16.30    2.22
 -17  13   2   17.26    2.49
  17 -13  -1    9.45    1.89
 -17  13   1    9.70    2.07
  17 -13   0    2.08    1.56
 -17  13   0    3.36    2.09
 -17  13   0    0.99    1.31
 -17  13  -1    8.91    1.92
 -17  13  -1   10.62    2.09
 -17  13  -2   14.66    2.14
 -17  13  -2   19.56    2.47
 -17  13  -3    0.82    1.62
 -17  13  -3    3.61    2.03
 -17  13  -4    1.88    1.69
 -17  13  -4    4.89    1.85
 -17  13  -5    4.38    2.04
 -17  13  -5    3.61    2.08
 -17  13  -6   -3.77    1.67
 -17  13  -6   -0.58    1.55
 -17  13  -7    6.84    2.22
 -17  13  -7    5.09    1.94
 -17  13  -8    2.45    1.91
 -17  13  -8    2.13    1.70
 -17  13  -9    2.51    1.85
 -17  13  -9    4.17    2.07
 -17  13 -10   11.23    2.55
 -17  13 -10   10.13    2.78
  16 -12 -11    5.45    2.47
  16 -12 -10    0.62    2.08
 -16  12  10    2.69    1.95
  16 -12  -9    2.54    2.10
 -16  12   9    1.76    1.92
  16 -12  -8    1.16    1.94
 -16  12   8    0.97    1.78
  16 -12  -7    3.51    1.96
 -16  12   7    2.64    1.84
  16 -12  -6    4.35    2.17
 -16  12   6    1.49    1.70
  16 -12  -5    4.16    2.08
 -16  12   5    4.63    1.83
  16 -12  -4   -1.28    1.70
 -16  12   4    1.19    1.64
  16 -12  -3   14.06    2.23
 -16  12   3   10.72    2.20
 -16  12   2    7.68    1.97
  16 -12  -1    3.05    1.73
 -16  12   1    3.05    1.83
 -16  12   1    4.63    1.66
  16 -12   0    1.81    1.47
 -16  12   0    0.11    1.32
 -16  12   0    1.29    1.63
  16 -12   1    2.72    1.56
 -16  12  -1    0.28    1.63
 -16  12  -1    3.89    1.57
 -16  12  -2    8.16    2.00
 -16  12  -3   15.59    2.32
 -16  12  -3   16.17    2.23
 -16  12  -4    1.87    1.45
 -16  12  -4   -0.57    1.54
 -16  12  -5    4.79    1.73
 -16  12  -5    4.96    1.79
 -16  12  -6    2.57    1.93
 -16  12  -6    0.92    1.62
 -16  12  -7    1.63    1.66
 -16  12  -7    2.88    2.07
 -16  12  -8   -0.01    1.80
 -16  12  -8    1.38    1.68
 -16  12  -9    3.57    1.80
 -16  12  -9    2.86    1.97
 -16  12 -10   -0.09    1.95
 -16  12 -10   -0.05    2.18
 -16  12 -11   -0.92    1.86
  15 -11 -12    4.87    2.55
  15 -11 -11    0.87    2.22
  15 -11 -10    4.82    2.30
 -15  11  10    2.22    1.95
  15 -11  -9    3.76    2.39
 -15  11   9    1.46    1.87
  15 -11  -8    3.20    2.21
 -15  11   8    8.10    2.16
  15 -11  -7    4.02    1.93
 -15  11   7    3.11    1.84
  15 -11  -6   -0.64    1.64
 -15  11   6   -0.12    1.59
  15 -11  -5   -0.67    1.59
 -15  11   5    2.05    1.72
  15 -11  -4   42.80    3.19
 -15  11   4   41.90    3.28
  15 -11  -3   12.28    2.18
 -15  11   3   11.66    2.15
  15 -11  -2    0.06    1.18
 -15  11   2    2.26    1.67
 -15  11   2   -2.02    1.38
  15 -11  -1    3.42    1.53
 -15  11   1    5.15    1.79
 -15  11   1    5.10    1.58
  15 -11   0   31.64    2.57
 -15  11   0   30.14    2.81
 -15  11   0   33.99    2.47
  15 -11   1    4.48    1.61
 -15  11  -1    9.68    1.73
 -15  11  -1    3.67    1.71
  15 -11   2   -1.34    1.26
 -15  11  -2   -1.25    1.53
 -15  11  -2   -1.27    1.03
 -15  11  -3   10.69    2.01
 -15  11  -3    9.65    2.02
 -15  11  -4   45.40    3.42
 -15  11  -4   50.66    3.38
 -15  11  -5    1.19    1.61
 -15  11  -5    1.29    1.79
 -15  11  -6   -2.17    1.73
 -15  11  -6    2.67    1.67
 -15  11  -7    1.01    1.52
 -15  11  -7    1.37    1.72
 -15  11  -8    9.68    2.42
 -15  11  -8   10.55    2.03
 -15  11  -9    0.82    1.94
 -15  11  -9    3.38    1.91
 -15  11 -10    6.71    2.17
 -15  11 -10    8.57    2.20
 -15  11 -11    0.48    1.88
 -15  11 -12    6.08    2.26
  14 -10 -13    2.45    2.29
  14 -10 -12    1.42    2.21
  14 -10 -11    7.85    2.71
  14 -10 -10   13.01    2.64
 -14  10  10   11.17    2.30
  14 -10  -9   14.30    2.62
 -14  10   9   13.73    2.42
  14 -10  -8    1.97    1.81
 -14  10   8    1.05    1.65
  14 -10  -7   10.96    2.28
 -14  10   7   15.57    2.34
  14 -10  -6    1.90    1.78
 -14  10   6    2.09    1.64
  14 -10  -5   23.90    2.65
 -14  10   5   25.73    2.73
  14 -10  -4   39.48    3.04
 -14  10   4   48.42    3.29
  14 -10  -3   33.41    2.93
 -14  10   3   30.84    2.84
 -14  10   3   31.23    2.26
  14 -10  -2   12.41    1.97
 -14  10   2   15.96    1.85
 -14  10   2   15.14    2.14
  14 -10  -1   52.51    3.09
 -14  10   1   50.79    2.97
 -14  10   1   47.50    3.22
  14 -10   0    0.58    1.27
 -14  10   0    1.29    1.47
 -14  10   0    0.32    1.22
  14 -10   1   51.51    2.99
 -14  10  -1   52.99    3.03
 -14  10  -1   48.64    3.18
  14 -10   2   12.13    1.70
 -14  10  -2    9.59    1.80
 -14  10  -2   11.40    1.97
  14 -10   3   28.97    2.29
 -14  10  -3   29.01    2.63
 -14  10  -3   33.02    2.75
 -14  10  -4   41.23    2.94
 -14  10  -4   42.13    3.02
 -14  10  -5   24.79    2.50
 -14  10  -5   26.26    2.62
 -14  10  -6    2.00    1.57
 -14  10  -6    2.39    1.70
 -14  10  -7   10.62    2.13
 -14  10  -7   14.44    2.09
 -14  10  -8    1.20    1.95
 -14  10  -8    4.12    1.95
 -14  10  -9   14.94    2.38
 -14  10  -9   15.39    2.47
 -14  10 -10   10.16    2.36
 -14  10 -10   13.60    2.44
 -14  10 -11    2.11    2.22
 -14  10 -11    6.24    2.11
 -14  10 -12    1.67    1.97
 -14  10 -13    2.62    2.10
  13  -9 -13    1.19    2.40
  13  -9 -12    2.24    2.41
  13  -9 -11   12.23    2.59
  13  -9 -10    0.14    1.86
  13  -9  -9   19.44    2.71
 -13   9   9   16.75    2.48
  13  -9  -8    0.95    2.11
 -13   9   8    2.84    1.76
  13  -9  -7    1.62    1.79
 -13   9   7   -0.25    1.59
  13  -9  -6   56.57    3.69
 -13   9   6   54.00    3.60
  13  -9  -5   29.37    2.78
 -13   9   5   26.55    2.67
  13  -9  -4    9.40    1.85
 -13   9   4   10.45    1.89
  13  -9  -3   85.08    4.28
 -13   9   3   82.50    4.08
 -13   9   3   82.88    3.73
  13  -9  -2   41.22    2.83
 -13   9   2   41.51    2.59
 -13   9   2   43.23    2.92
  13  -9  -1   10.86    1.47
 -13   9   1   19.58    1.85
 -13   9   1   17.08    2.05
  13  -9   0    2.48    1.38
 -13   9   0    2.10    1.19
 -13   9   0    2.30    1.37
  13  -9   1   15.69    1.71
 -13   9  -1   19.23    2.06
 -13   9  -1    8.60    1.34
  13  -9   2   46.42    2.61
 -13   9  -2   37.40    2.53
 -13   9  -2   41.61    2.83
  13  -9   3   78.40    3.62
 -13   9  -3   80.83    4.08
 -13   9  -3   81.96    4.04
  13  -9   4   10.71    1.43
 -13   9  -4   11.32    2.02
 -13   9  -4    7.28    1.69
 -13   9  -5   24.63    2.56
 -13   9  -5   26.82    2.59
 -13   9  -6   49.80    3.39
 -13   9  -6   49.14    3.16
 -13   9  -7    0.04    1.68
 -13   9  -7    1.76    1.63
 -13   9  -8    1.07    1.77
 -13   9  -8   -0.14    1.93
 -13   9  -9   18.55    2.40
 -13   9  -9   15.38    2.45
 -13   9 -10    0.39    2.06
 -13   9 -10    1.96    1.79
 -13   9 -11   13.64    2.48
 -13   9 -11   15.26    2.43
 -13   9 -12    4.53    2.38
 -13   9 -13    1.12    2.34
  12  -8 -14    1.93    2.31
  12  -8 -13    6.51    2.49
  12  -8 -12    2.60    2.08
  12  -8 -11    2.99    2.44
  12  -8 -10    8.86    2.25
  12  -8  -9   18.16    2.63
 -12   8   9   19.41    2.53
  12  -8  -8    4.08    1.93
 -12   8   8    7.37    1.95
  12  -8  -7   38.21    3.28
 -12   8   7   37.61    3.22
  12  -8  -6    8.51    1.93
 -12   8   6    7.77    1.83
  12  -8  -5    7.73    1.82
 -12   8   5   13.74    1.98
  12  -8  -4   26.67    2.44
 -12   8   4   27.29    2.47
  12  -8  -3   20.54    2.13
 -12   8   3   23.62    2.13
 -12   8   3   26.78    1.81
  12  -8  -2   34.46    2.51
 -12   8   2   36.34    2.20
 -12   8   2   35.88    2.54
 -12   8   1   63.65    3.33
 -12   8   1   62.45    3.00
  12  -8   0    1.46    1.10
 -12   8   0   -0.03    1.03
 -12   8   0    0.76    1.15
  12  -8   1   62.44    3.08
 -12   8  -1   59.55    3.22
  12  -8   2   34.90    2.33
 -12   8  -2   37.70    2.54
 -12   8  -2   40.75    2.57
  12  -8   3   24.59    1.94
 -12   8  -3   23.92    2.19
 -12   8  -3   25.08    2.18
  12  -8   4   26.64    1.87
 -12   8  -4   24.11    2.37
 -12   8  -4   26.99    2.50
  12  -8   5   11.66    1.28
 -12   8  -5    8.64    1.80
 -12   8  -5    9.45    1.92
 -12   8  -6    7.21    1.79
 -12   8  -6    9.52    1.88
 -12   8  -7   38.65    3.07
 -12   8  -7   37.78    2.73
 -12   8  -8    6.89    1.89
 -12   8  -8    5.40    1.92
 -12   8  -9   16.26    2.46
 -12   8  -9   17.60    2.34
 -12   8 -10   10.26    2.05
 -12   8 -10    6.26    2.03
 -12   8 -11    0.71    1.76
 -12   8 -11    3.19    1.88
 -12   8 -12    0.04    1.80
 -12   8 -13    6.68    2.26
 -12   8 -14    3.24    2.43
  11  -7 -14    4.53    2.30
  11  -7 -13   -1.04    1.98
  11  -7 -12    4.70    2.22
  11  -7 -11   -0.04    1.84
  11  -7 -10   20.48    2.74
  11  -7  -9    0.13    1.71
  11  -7  -8   24.67    2.81
 -11   7   8   29.55    2.82
  11  -7  -7    5.91    1.85
 -11   7   7    5.13    1.76
  11  -7  -6   16.11    2.19
 -11   7   6   16.65    2.16
  11  -7  -5   -0.26    1.38
 -11   7   5    3.49    1.44
  11  -7  -4    6.21    1.53
 -11   7   4    7.03    1.49
  11  -7  -3    4.43    1.30
 -11   7   3    5.73    1.11
 -11   7   3    5.25    1.34
  11  -7  -2   14.44    1.71
 -11   7   2   14.23    1.75
 -11   7   2   14.90    1.48
  11  -7  -1    8.58    1.35
 -11   7   1    9.94    1.30
 -11   7   1   10.29    1.51
  11  -7   0  212.11    7.86
 -11   7   0  215.05    7.95
 -11   7   0  215.85    7.75
  11  -7   1   12.07    1.40
 -11   7  -1    8.90    1.32
 -11   7  -1   13.58    1.61
  11  -7   2   17.35    1.64
 -11   7  -2   16.98    1.73
 -11   7  -2   15.27    1.62
  11  -7   3    4.28    1.14
 -11   7  -3    7.11    1.36
 -11   7  -3    6.64    1.34
  11  -7   4    6.11    1.09
 -11   7  -4    8.70    1.56
 -11   7  -4    7.02    1.39
  11  -7   5    2.54    0.89
 -11   7  -5    3.05    1.45
 -11   7  -5    1.16    1.19
  11  -7   6   19.51    1.46
 -11   7  -6   18.01    2.19
 -11   7  -6   21.43    2.14
 -11   7  -7    6.84    1.77
 -11   7  -7    3.53    1.71
 -11   7  -8   21.20    2.53
 -11   7  -8   27.32    2.48
 -11   7  -9   -1.58    1.28
 -11   7  -9   -0.78    1.64
 -11   7 -10   22.88    2.42
 -11   7 -10   21.87    2.69
 -11   7 -11    0.84    1.74
 -11   7 -11    0.89    1.58
 -11   7 -12    4.95    2.09
 -11   7 -13   -0.70    1.78
 -11   7 -14    3.01    2.39
  10  -6 -14    3.11    2.25
  10  -6 -13   10.48    2.58
  10  -6 -12    3.36    2.03
  10  -6 -11    1.42    1.78
  10  -6 -10    0.01    1.65
  10  -6  -9   14.02    2.38
  10  -6  -8   21.09    2.55
  10  -6  -7  127.12    5.82
 -10   6   7  118.77    5.44
  10  -6  -6   47.24    3.32
 -10   6   6   47.18    2.99
  10  -6  -5   72.83    3.74
 -10   6   5   71.44    3.65
  10  -6  -4    2.21    1.25
 -10   6   4    3.10    1.21
  10  -6  -3   27.94    2.07
 -10   6   3   29.73    2.09
 -10   6   3   28.19    1.73
  10  -6  -2    8.11    1.28
 -10   6   2   10.12    1.45
 -10   6   2   10.90    1.28
  10  -6  -1  160.64    6.25
 -10   6   1  172.13    6.12
 -10   6   1  159.61    6.23
  10  -6   0   71.55    3.14
 -10   6   0   62.26    2.98
 -10   6   0   77.74    3.27
  10  -6   1  161.40    5.97
 -10   6  -1  163.60    6.14
 -10   6  -1  154.09    6.01
  10  -6   2    8.47    1.25
 -10   6  -2   10.46    1.49
 -10   6  -2    8.28    1.40
  10  -6   3   25.62    1.77
 -10   6  -3   27.99    2.01
 -10   6  -3   24.63    2.01
  10  -6   4    3.15    0.87
 -10   6  -4    1.40    1.18
 -10   6  -4    3.93    1.31
  10  -6   5   72.25    3.02
 -10   6  -5   69.45    3.43
 -10   6  -5   72.86    3.68
  10  -6   6   45.70    2.20
 -10   6  -6   39.87    3.12
 -10   6  -6   46.10    2.74
  10  -6   7  114.41    4.48
 -10   6  -7  119.53    4.97
 -10   6  -7  114.53    5.34
  10  -6   8   21.76    1.62
 -10   6  -8   24.49    2.19
 -10   6  -8   17.00    2.36
 -10   6  -9   12.75    1.94
 -10   6  -9   10.45    2.13
 -10   6 -10   -1.48    1.36
 -10   6 -10   -1.42    1.53
 -10   6 -11    2.07    1.79
 -10   6 -11    0.16    1.53
 -10   6 -12    4.00    1.97
 -10   6 -13   12.90    2.48
 -10   6 -14    4.94    2.14
   9  -5 -15    3.72    2.31
   9  -5 -14    7.38    2.72
   9  -5 -13   17.53    2.83
   9  -5 -12   -2.10    2.01
   9  -5 -11    1.39    2.08
   9  -5 -10    0.10    1.73
   9  -5  -9   11.30    2.21
   9  -5  -8   15.41    2.21
   9  -5  -7  150.74    6.50
  -9   5   7  155.89    6.38
   9  -5  -6   89.32    4.26
  -9   5   6   84.54    3.99
   9  -5  -5   61.20    3.29
  -9   5   5   62.57    3.21
   9  -5  -4   26.21    2.23
  -9   5   4   21.60    1.93
   9  -5  -3   25.10    1.91
  -9   5   3   24.84    1.85
   9  -5  -2   45.46    2.50
  -9   5   2   45.08    2.41
  -9   5   2   43.63    2.16
   9  -5  -1  195.69    7.17
  -9   5   1  198.36    6.99
  -9   5   1  189.43    7.10
  -9   5   0   55.90    2.73
   9  -5   1  191.31    6.91
  -9   5  -1  187.57    6.93
  -9   5  -1  194.32    6.97
   9  -5   2   42.81    2.22
  -9   5  -2   41.31    2.23
  -9   5  -2   44.79    2.31
   9  -5   3   20.45    1.57
  -9   5  -3   25.36    1.87
  -9   5  -3   27.67    1.73
   9  -5   4   20.71    1.47
  -9   5  -4   20.79    1.60
  -9   5  -4   21.64    2.07
   9  -5   5   65.87    2.85
  -9   5  -5   66.51    3.42
  -9   5  -5   69.78    3.17
   9  -5   6   90.39    3.66
  -9   5  -6   91.64    3.93
  -9   5  -6   91.21    4.33
   9  -5   7  154.85    5.68
  -9   5  -7  150.90    6.49
  -9   5  -7  148.14    5.87
   9  -5   8   16.24    1.54
  -9   5  -8   15.35    1.78
  -9   5  -8   13.30    2.08
   9  -5   9   14.70    1.60
  -9   5  -9   14.85    1.86
  -9   5  -9   11.83    2.20
  -9   5 -10    4.84    1.58
  -9   5 -10    1.77    1.71
  -9   5 -11    1.67    1.74
  -9   5 -11   -0.11    1.43
  -9   5 -12    2.15    1.78
  -9   5 -12    1.69    1.62
  -9   5 -13   16.50    2.90
  -9   5 -14    7.69    2.23
  -9   5 -15   -0.34    1.88
   8  -4 -15   -1.10    2.01
   8  -4 -14   15.22    2.81
   8  -4 -13    0.65    2.17
   8  -4 -12    6.29    2.07
   8  -4 -11   -0.73    1.67
   8  -4 -10    0.12    1.73
   8  -4  -9    2.52    1.72
   8  -4  -8   71.21    3.95
   8  -4  -7   29.02    2.53
   8  -4  -6   78.54    3.95
  -8   4   6   86.60    3.91
   8  -4  -5   32.14    2.28
  -8   4   5   32.18    2.17
   8  -4  -4   57.53    3.00
  -8   4   4   61.63    2.95
   8  -4  -3    1.79    0.96
  -8   4   3    3.19    1.01
   8  -4  -2   15.28    1.44
  -8   4   2   15.53    1.42
  -8   4   2   16.71    1.35
   8  -4  -1    0.75    0.89
  -8   4   1   -0.35    0.72
  -8   4   1    0.55    0.77
  -8   4   0  668.97   22.23
   8  -4   1   -0.42    0.76
  -8   4  -1    0.45    0.74
  -8   4  -1    0.49    0.83
   8  -4   2   16.30    1.30
  -8   4  -2   16.18    1.43
  -8   4  -2   15.40    1.31
   8  -4   3    2.74    0.80
  -8   4  -3    2.78    0.95
  -8   4  -3    2.71    1.03
   8  -4   4   64.35    2.72
  -8   4  -4   65.09    3.24
  -8   4  -4   60.18    2.81
   8  -4   5   32.50    1.79
  -8   4  -5   30.79    1.93
  -8   4  -5   31.75    2.42
   8  -4   6   79.18    3.34
  -8   4  -6   83.51    3.95
  -8   4  -6   82.93    3.48
   8  -4   7   29.49    1.86
  -8   4  -7   32.46    2.08
  -8   4  -7   30.49    2.55
   8  -4   8   73.48    3.31
  -8   4  -8   72.86    3.42
  -8   4  -8   71.42    3.94
   8  -4   9    2.93    1.17
  -8   4  -9    1.85    1.63
  -8   4  -9    2.84    1.34
   8  -4  10    0.10    1.13
  -8   4 -10    1.80    1.43
  -8   4 -10    0.61    1.65
  -8   4 -11    1.39    1.42
  -8   4 -11    1.65    1.67
  -8   4 -12    7.41    1.77
  -8   4 -12    7.24    2.05
  -8   4 -13    3.04    1.89
  -8   4 -14   13.93    2.52
  -8   4 -15   -0.57    1.78
   7  -3 -15    0.70    1.93
   7  -3 -14    0.69    1.91
   7  -3 -13   14.15    2.81
   7  -3 -12    0.63    1.70
   7  -3 -11    4.16    1.89
   7  -3 -10   15.45    2.38
   7  -3  -9    4.36    1.72
   7  -3  -8    9.19    1.82
   7  -3  -7   34.28    2.51
   7  -3  -6   15.76    1.80
   7  -3  -5   77.25    3.63
  -7   3   5   78.38    3.52
   7  -3  -4    3.24    1.08
  -7   3   4    6.06    1.10
   7  -3  -3   44.23    2.34
  -7   3   3   42.65    2.21
   7  -3  -2    9.16    1.17
  -7   3   2   10.31    1.06
  -7   3   2   11.28    1.17
   7  -3  -1  188.47    6.59
  -7   3   1  173.33    6.44
   7  -3   0   32.57    1.77
  -7   3   0   29.67    1.64
  -7   3   0   32.61    1.79
  -7   3  -1  180.82    6.31
  -7   3  -1  176.17    6.38
   7  -3   2   10.03    1.16
  -7   3  -2    9.18    1.02
  -7   3  -2    7.86    1.11
   7  -3   3   41.88    2.01
  -7   3  -3   40.74    2.32
  -7   3  -3   40.85    1.98
   7  -3   4    5.93    0.91
  -7   3  -4    3.72    1.11
  -7   3  -4    4.55    0.93
   7  -3   5   77.49    3.10
  -7   3  -5   76.01    3.53
  -7   3  -5   72.02    3.08
   7  -3   6   16.61    1.38
  -7   3  -6   15.58    1.38
  -7   3  -6   14.53    1.77
   7  -3   7   28.09    1.80
  -7   3  -7   32.56    1.98
  -7   3  -7   29.64    2.37
   7  -3   8    6.31    1.26
  -7   3  -8    6.40    1.86
  -7   3  -8    7.03    1.28
   7  -3   9    3.45    1.31
  -7   3  -9    2.51    1.63
  -7   3  -9    6.24    1.41
   7  -3  10   11.92    1.64
  -7   3 -10    8.70    2.02
  -7   3 -10   11.76    1.72
   7  -3  11    6.05    1.62
  -7   3 -11    6.09    1.94
  -7   3 -11    5.28    1.59
   7  -3  12    1.13    1.23
  -7   3 -12   -0.17    1.51
  -7   3 -12    0.56    1.56
  -7   3 -13   11.10    2.23
  -7   3 -14    1.63    1.80
  -7   3 -15    1.79    1.90
   6  -2 -16   -1.20    1.96
   6  -2 -15   -1.29    2.10
   6  -2 -14    8.40    2.46
   6  -2 -13    1.10    1.72
   6  -2 -12    0.12    1.63
   6  -2 -11   23.89    2.78
   6  -2 -10   16.08    2.55
   6  -2  -9   22.97    2.50
   6  -2  -8    0.81    1.37
   6  -2  -7   10.16    1.61
   6  -2  -6  151.56    6.05
   6  -2  -5   18.79    1.76
   6  -2  -4   11.04    1.35
  -6   2   4   10.31    1.20
   6  -2  -3  258.41    9.17
  -6   2   3  257.16    9.03
   6  -2  -2  295.98    9.61
  -6   2   2  258.12    9.32
  -6   2   2  267.54    9.42
   6  -2  -1   13.85    1.30
  -6   2   1   13.65    1.12
   6  -2   0    0.54    0.88
  -6   2   0    0.12    0.70
  -6   2   0    0.56    0.87
  -6   2  -1   12.23    0.99
  -6   2  -1   11.44    1.12
   6  -2   2  267.94    9.78
  -6   2  -2  292.27    9.85
  -6   2  -2  292.55    9.61
   6  -2   3  245.09    8.49
  -6   2  -3  241.86    8.64
  -6   2  -3  245.69    8.33
   6  -2   4   12.26    1.10
  -6   2  -4   11.07    1.30
  -6   2  -4   11.07    1.04
   6  -2   5   16.62    1.30
  -6   2  -5   18.31    1.70
  -6   2  -5   19.05    1.24
   6  -2   6  150.32    5.64
  -6   2  -6  148.69    5.47
  -6   2  -6  155.98    6.02
   6  -2   7    7.29    1.15
  -6   2  -7    6.35    1.45
  -6   2  -7    8.92    1.19
   6  -2   8    3.56    1.19
  -6   2  -8    1.01    1.08
  -6   2  -8    0.10    1.30
   6  -2   9   27.00    2.18
  -6   2  -9   21.14    2.35
  -6   2  -9   25.84    2.00
   6  -2  10   17.04    1.93
  -6   2 -10   15.66    2.20
  -6   2 -10   13.84    1.74
   6  -2  11   22.67    2.39
  -6   2 -11   26.09    2.28
  -6   2 -11   21.02    2.55
   6  -2  12    2.71    1.46
  -6   2 -12   -0.45    1.55
  -6   2 -12   -2.49    1.42
   6  -2  13    0.43    1.35
  -6   2 -13    2.02    1.98
  -6   2 -14    2.52    2.10
  -6   2 -15    1.74    2.07
  -6   2 -16   -2.71    1.95
   5  -1 -16    1.36    2.37
   5  -1 -15    4.93    2.43
   5  -1 -14    1.44    1.89
   5  -1 -13    2.26    2.06
   5  -1 -12    7.21    1.95
   5  -1 -11   29.80    2.97
   5  -1 -10   38.17    2.99
   5  -1  -9   59.67    3.47
   5  -1  -8   16.33    1.94
   5  -1  -7   94.10    4.25
   5  -1  -6    5.12    1.19
   5  -1  -5  102.74    4.29
   5  -1  -4  327.76   11.46
   5  -1  -3  357.29   12.31
   5  -1  -2  159.11    6.06
  -5   1   2  174.42    5.97
   5  -1  -1  244.59    8.62
  -5   1   1  251.55    8.45
  -5   1   1  246.85    8.51
   5  -1   0   10.90    1.12
  -5   1   0    9.27    0.86
  -5   1   0   11.07    1.05
   5  -1   1  246.36    8.38
  -5   1  -1  241.99    8.07
  -5   1  -1  233.42    8.27
  -5   1  -2  157.32    5.64
  -5   1  -2  153.96    5.32
   5  -1   3  299.87   11.44
  -5   1  -3  351.63   11.21
  -5   1  -3  361.41   11.60
   5  -1   4  305.59   10.87
  -5   1  -4  322.85   10.59
  -5   1  -4  322.90   11.03
   5  -1   5  105.62    4.01
  -5   1  -5   95.21    4.16
  -5   1  -5  101.98    3.72
   5  -1   6    5.36    1.04
  -5   1  -6    5.47    1.23
  -5   1  -6    6.47    0.90
   5  -1   7   84.54    3.71
  -5   1  -7   84.51    3.95
  -5   1  -7   89.00    3.44
   5  -1   8   14.42    1.65
  -5   1  -8   17.70    2.11
  -5   1  -8   17.36    1.50
   5  -1   9   56.25    3.01
  -5   1  -9   54.23    2.69
  -5   1  -9   44.09    3.11
   5  -1  10   39.72    2.75
  -5   1 -10   37.95    2.94
  -5   1 -10   40.88    2.48
   5  -1  11   30.20    2.66
  -5   1 -11   30.25    3.00
  -5   1 -11   31.41    2.54
   5  -1  12    3.28    1.62
  -5   1 -12    5.27    2.02
  -5   1 -12    5.09    1.50
   5  -1  13    4.19    1.68
  -5   1 -13    6.01    1.83
   5  -1  14    0.91    1.64
  -5   1 -14   -0.92    1.55
  -5   1 -15    5.84    2.02
  -5   1 -16    5.99    2.36
   4   0 -16   12.46    2.69
   4   0 -15   -2.54    1.97
   4   0 -14    0.11    1.97
   4   0 -13    2.74    2.02
   4   0 -12   64.47    3.99
   4   0 -11    7.08    1.86
   4   0 -10   23.71    2.64
   4   0  -9    6.48    1.81
   4   0  -8  200.11    7.72
   4   0  -7   57.91    3.01
   4   0  -6   -0.43    0.93
   4   0  -5   45.84    2.41
   4   0  -4  893.41   29.75
   4   0  -3   11.16    1.20
   4   0  -2   43.82    2.13
   4   0  -1  372.47   12.36
  -4   0   1  355.66   12.19
   4   0   0    7.63    0.96
  -4   0   0    7.85    0.68
  -4   0   0    7.74    0.97
   4   0   1  362.36   12.37
  -4   0  -1  368.72   12.30
  -4   0  -1  367.15   12.01
   4   0   2   41.53    2.00
  -4   0  -2   40.68    1.95
  -4   0  -2   40.83    1.55
   4   0   3    7.64    0.90
  -4   0  -3    9.07    0.67
  -4   0  -3    7.84    1.07
  -4   0  -4  883.35   28.50
  -4   0  -4  867.19   28.95
  -4   0  -5   45.80    1.90
  -4   0  -5   46.82    2.38
   4   0   6    0.04    0.41
  -4   0  -6   -0.75    0.58
  -4   0  -6   -0.07    0.90
  -4   0  -7   56.44    2.44
  -4   0  -7   57.45    2.95
  -4   0  -8  196.37    7.54
  -4   0  -8  196.99    7.06
  -4   0  -9    4.25    1.46
  -4   0  -9    4.57    1.21
  -4   0 -10   22.24    2.33
  -4   0 -10   22.88    2.00
  -4   0 -11    7.71    2.05
  -4   0 -11    9.01    1.70
  -4   0 -12   70.17    3.56
  -4   0 -12   63.88    4.06
   4   0  13    0.07    0.45
  -4   0 -13    1.56    1.84
   4   0  14    0.26    0.70
  -4   0 -14    0.52    1.60
   4   0  15   -0.31    1.14
  -4   0 -15    0.75    1.92
  -4   0 -16    5.03    2.32
   3   1 -16   -1.16    2.08
   3   1 -15    0.73    1.76
   3   1 -14    0.24    1.60
   3   1 -13    0.56    1.54
   3   1 -12   27.22    2.95
   3   1 -11   54.28    3.70
   3   1 -10   23.96    2.39
   3   1  -9   93.73    4.39
   3   1  -8   86.47    3.99
   3   1  -7   26.07    2.16
   3   1  -6    5.96    1.15
   3   1  -5  138.37    5.29
   3   1  -4  187.23    6.77
   3   1  -3  749.44   24.92
   3   1  -2  217.45    7.60
   3   1  -1  161.56    5.73
   3   1   0   15.50    1.07
  -3  -1   0   13.48    1.01
   3   1   1  160.14    5.70
  -3  -1  -1  161.66    5.64
   3   1   2  204.45    7.20
  -3  -1  -2  208.40    7.14
   3   1   3  763.75   24.75
  -3  -1  -3  733.27   24.59
  -3  -1  -3  738.29   24.13
   3   1   4  186.66    6.74
  -3  -1  -4  189.18    6.28
  -3  -1  -4  187.13    6.70
   3   1   5  126.38    5.01
  -3  -1  -5  138.62    5.09
   3   1   6    4.84    1.10
  -3  -1  -6    5.94    1.09
   3   1   7   25.03    1.81
  -3  -1  -7   24.15    1.94
   3   1   8   75.49    3.63
  -3  -1  -8   79.59    3.65
   3   1   9   82.90    4.14
  -3  -1  -9   88.51    4.08
   3   1  10   22.88    2.43
  -3  -1 -10   23.84    2.29
   3   1  11   40.54    3.01
  -3  -1 -11   48.44    3.33
   3   1  12   25.19    2.78
  -3  -1 -12   23.77    2.22
  -3  -1 -12   21.57    2.61
   3   1  13    2.74    1.74
  -3  -1 -13    1.52    1.74
  -3  -1 -13    1.67    1.44
   3   1  14   -0.31    1.64
  -3  -1 -14    2.82    1.90
   3   1  15    1.23    1.89
  -3  -1 -15    3.28    2.02
   3   1  16    0.26    1.64
  -3  -1 -16   -0.91    1.92
   2   2 -16   -2.46    1.87
   2   2 -15   -1.01    1.92
   2   2 -14   -0.44    1.55
   2   2 -13    0.23    1.82
   2   2 -12    7.65    2.01
   2   2 -11    0.56    1.40
   2   2 -10  195.82    7.83
   2   2  -9   14.79    1.79
   2   2  -8   39.54    2.57
   2   2  -7    0.26    0.90
   2   2  -6   -1.16    0.93
   2   2  -5   32.97    1.85
   2   2  -4    0.18    0.71
   2   2  -3   98.01    3.76
   2   2  -2  312.52   10.62
   2   2  -1   16.35    1.20
   2   2   0   55.11    2.27
  -2  -2   0   53.83    2.21
   2   2   1   17.41    0.72
   2   2   1   16.00    1.10
  -2  -2  -1   15.02    1.05
   2   2   2  299.41   10.49
  -2  -2  -2  317.12   10.41
   2   2   3   93.57    3.67
  -2  -2  -3   91.59    3.53
   2   2   4   -0.01    0.75
  -2  -2  -4    0.04    0.68
   2   2   5   31.71    1.84
  -2  -2  -5   31.84    1.85
   2   2   6    0.03    0.85
  -2  -2  -6    0.42    0.81
   2   2   7    1.00    0.91
  -2  -2  -7    0.00    1.02
   2   2   8   35.66    2.33
  -2  -2  -8   32.30    2.18
   2   2   9   13.36    1.79
  -2  -2  -9   12.21    1.79
   2   2  10  168.22    7.21
  -2  -2 -10  181.33    7.06
   2   2  11   -0.64    1.37
  -2  -2 -11   -0.01    1.57
   2   2  12    5.96    2.03
  -2  -2 -12   10.49    1.99
   2   2  13    0.80    1.78
  -2  -2 -13    2.37    1.49
   2   2  14    0.88    1.81
  -2  -2 -14    1.46    1.79
   2   2  15   -0.47    1.59
  -2  -2 -15    0.51    1.77
   2   2  16   -0.59    1.93
  -2  -2 -16   -0.97    1.84
   1   3 -16    1.81    1.94
   1   3 -15    5.47    2.14
   1   3 -14   -0.78    1.71
   1   3 -13   -0.25    1.64
   1   3 -12   26.22    2.72
   1   3 -11   52.91    3.25
   1   3 -10   20.64    2.23
   1   3  -9  100.35    4.53
   1   3  -8   81.16    3.75
   1   3  -7   24.55    1.86
   1   3  -6    6.99    1.15
   1   3  -5  129.72    4.87
   1   3  -4  188.38    6.69
   1   3  -3  773.18   25.57
   1   3  -2  216.19    7.47
   1   3  -1  161.28    5.69
   1   3  -1  163.03    5.61
   1   3   0   14.95    0.98
   1   3   0   12.78    0.80
   1   3   1  162.70    5.35
   1   3   1  160.54    5.61
  -1  -3  -1  152.15    5.48
   1   3   2  213.57    6.98
   1   3   2  208.59    7.34
  -1  -3  -2  207.02    7.18
   1   3   3  734.17   23.77
   1   3   3  718.21   24.33
  -1  -3  -3  739.87   24.01
   1   3   4  185.91    6.70
  -1  -3  -4  181.78    6.45
   1   3   5  132.15    5.08
  -1  -3  -5  126.61    4.75
   1   3   6    7.16    1.23
  -1  -3  -6    4.03    1.01
   1   3   7   24.91    1.92
  -1  -3  -7   23.94    1.79
   1   3   8   77.70    3.75
  -1  -3  -8   74.60    3.42
   1   3   9   95.05    4.57
  -1  -3  -9   91.55    4.21
   1   3  10   26.77    2.59
  -1  -3 -10   25.74    2.38
   1   3  11   45.65    3.73
  -1  -3 -11   54.07    3.30
   1   3  12   23.17    2.88
  -1  -3 -12   26.74    2.61
   1   3  13    3.26    1.63
  -1  -3 -13    3.74    1.73
   1   3  14    1.93    1.95
  -1  -3 -14   -1.75    1.59
   1   3  15    1.37    1.78
  -1  -3 -15   -0.67    1.73
   1   3  16   -1.15    1.96
   0   4 -16   12.80    2.87
   0   4 -15    1.00    1.84
   0   4 -14   -0.02    1.67
   0   4 -14   -0.24    1.66
   0   4 -13    2.09    1.65
   0   4 -13    3.56    2.08
   0   4 -12   70.22    3.98
   0   4 -11    9.14    1.99
   0   4 -10   27.13    2.36
   0   4  -9    5.14    1.42
   0   4  -8  194.72    7.31
   0   4  -7   57.46    2.76
   0   4  -6   -0.41    0.75
   0   4  -5   47.00    2.18
   0   4  -4  898.75   29.62
   0   4  -4  892.80   29.56
   0   4  -3    9.60    0.95
   0   4  -3   11.07    1.18
   0   4  -2   45.51    1.97
   0   4  -2   41.94    1.92
   0   4  -1  353.99   12.04
   0   4  -1  365.45   12.05
   0   4   0    6.18    0.75
   0   4   1  369.45   12.22
   0   4   1  365.02   12.39
   0   4   2   39.87    1.96
   0   4   2   39.76    1.79
   0  -4  -2   42.37    1.79
   0   4   3    8.45    1.12
   0   4   3    9.55    0.76
   0  -4  -3   10.85    0.93
   0   4   4  867.07   28.70
   0   4   4  881.78   28.11
   0  -4  -4  832.13   28.17
   0   4   5   39.54    2.27
   0   4   5   41.64    1.81
   0  -4  -5   42.62    1.99
   0   4   6   -0.83    0.87
   0  -4  -6    0.44    0.75
   0   4   7   55.05    3.01
   0  -4  -7   57.89    2.67
   0   4   8  191.48    7.64
   0  -4  -8  197.61    7.18
   0   4   9    5.06    1.57
   0  -4  -9    4.05    1.41
   0   4  10   26.55    2.67
   0  -4 -10   24.38    2.20
   0   4  11    9.70    2.09
   0  -4 -11    9.92    1.81
   0   4  12   66.01    4.07
   0  -4 -12   63.70    3.64
   0   4  13    0.77    1.63
   0  -4 -13    2.63    1.58
   0   4  14   -0.85    1.96
   0  -4 -14    0.46    1.52
   0   4  15   -1.71    1.87
   0   4  16   10.22    2.76
  -1   5 -16    3.01    2.44
  -1   5 -15    3.99    2.08
  -1   5 -14    4.90    2.37
  -1   5 -13    6.25    1.87
  -1   5 -13    1.71    2.08
  -1   5 -12    6.64    1.69
  -1   5 -12    6.98    1.99
  -1   5 -11   33.75    2.73
  -1   5 -11   33.81    3.12
  -1   5 -10   40.17    3.10
  -1   5 -10   45.55    2.90
  -1   5  -9   57.09    3.09
  -1   5  -9   57.75    3.41
  -1   5  -8   15.44    1.54
  -1   5  -8   12.53    1.83
  -1   5  -7   91.68    3.73
  -1   5  -7   89.11    4.10
  -1   5  -6    5.07    1.27
  -1   5  -6    4.68    0.96
  -1   5  -5  105.57    4.32
  -1   5  -5  105.22    3.97
  -1   5  -4  306.92   10.50
  -1   5  -4  296.21   10.19
  -1   5  -3  361.15   12.39
  -1   5  -3  364.05   12.15
  -1   5  -2  175.79    6.03
  -1   5  -2  171.12    6.21
  -1   5  -1  241.80    8.30
  -1   5  -1  247.37    8.43
  -1   5   0    8.70    0.93
  -1   5   0   11.27    1.05
  -1   5   1  244.92    8.47
  -1   5   2  152.78    5.58
  -1   5   2  152.58    5.46
  -1   5   3  361.35   11.88
  -1   5   3  356.57   12.21
   1  -5  -3  345.24   11.77
  -1   5   4  318.81   10.92
  -1   5   4  316.83   10.50
   1  -5  -4  297.13   10.40
  -1   5   5  102.64    4.23
  -1   5   5   98.08    3.76
   1  -5  -5   99.67    3.70
  -1   5   6    4.04    1.19
  -1   5   6    7.16    0.93
   1  -5  -6    3.80    0.88
  -1   5   7   80.36    3.99
   1  -5  -7   90.70    3.51
  -1   5   8   16.70    1.99
   1  -5  -8   15.73    1.53
  -1   5   9   53.37    3.36
   1  -5  -9   56.52    2.85
  -1   5  10   43.21    3.36
   1  -5 -10   38.69    2.52
  -1   5  11   27.97    2.98
   1  -5 -11   31.89    2.44
  -1   5  12    5.56    1.85
   1  -5 -12    5.20    1.67
  -1   5  13    5.74    2.22
   1  -5 -13    5.43    1.61
  -1   5  14    2.36    2.13
  -1   5  15    5.12    2.38
  -1   5  16    2.53    2.00
  -2   6 -16   -1.53    1.88
  -2   6 -15    0.86    1.97
  -2   6 -14    3.93    2.01
  -2   6 -13    0.99    2.09
  -2   6 -12    0.25    1.44
  -2   6 -12    0.78    1.64
  -2   6 -11   30.07    2.96
  -2   6 -11   28.88    2.44
  -2   6 -10   15.02    1.79
  -2   6 -10   15.65    2.24
  -2   6  -9   22.94    2.42
  -2   6  -9   22.12    1.87
  -2   6  -8    1.98    0.99
  -2   6  -8    1.80    1.40
  -2   6  -7    9.45    1.55
  -2   6  -7    8.90    1.12
  -2   6  -6  157.66    6.06
  -2   6  -6  154.15    5.60
  -2   6  -5   17.09    1.65
  -2   6  -5   17.13    1.19
  -2   6  -4   12.15    0.96
  -2   6  -4   13.24    1.40
  -2   6  -3  249.77    8.98
  -2   6  -3  260.22    8.64
  -2   6  -2  272.27    9.35
  -2   6  -2  264.31    9.03
  -2   6  -1   13.43    1.03
  -2   6  -1   14.62    1.30
  -2   6   0   -0.36    0.64
  -2   6   0    0.70    0.84
  -2   6   1   13.01    1.14
  -2   6   1   14.74    1.34
  -2   6   2  292.24   10.14
  -2   6   3  246.11    8.68
   2  -6  -3  242.35    8.18
  -2   6   4    8.88    1.23
  -2   6   4   11.92    1.11
   2  -6  -4   10.95    0.87
  -2   6   5   18.72    1.26
  -2   6   5   21.77    1.83
   2  -6  -5   15.49    1.15
  -2   6   6  149.21    5.58
  -2   6   6  156.93    6.09
   2  -6  -6  146.91    5.32
  -2   6   7   10.62    1.26
  -2   6   7    8.66    1.56
   2  -6  -7    8.50    1.05
  -2   6   8    2.35    1.41
   2  -6  -8    1.97    0.96
  -2   6   9   26.83    2.64
   2  -6  -9   24.04    1.87
  -2   6  10   16.18    2.30
   2  -6 -10   15.17    1.65
  -2   6  11   26.15    2.97
   2  -6 -11   24.58    2.15
  -2   6  12    2.85    1.77
   2  -6 -12    0.42    1.32
  -2   6  13   -1.08    1.58
  -2   6  14    3.66    2.30
  -2   6  15   -0.32    2.12
  -2   6  16   -2.36    1.82
  -3   7 -15    1.49    2.04
  -3   7 -14    3.19    2.34
  -3   7 -13   14.86    2.80
  -3   7 -12    2.72    1.81
  -3   7 -11    3.30    1.84
  -3   7 -10   13.70    1.66
  -3   7 -10   12.24    2.22
  -3   7  -9    5.28    1.21
  -3   7  -9    3.92    1.97
  -3   7  -8    9.33    1.78
  -3   7  -8    7.90    1.17
  -3   7  -7   38.99    2.56
  -3   7  -7   31.93    1.85
  -3   7  -6   14.67    1.13
  -3   7  -6   15.37    1.77
  -3   7  -5   82.58    3.08
  -3   7  -5   80.62    3.70
  -3   7  -4    6.54    0.73
  -3   7  -4    6.42    1.22
  -3   7  -3   39.96    1.66
  -3   7  -3   41.88    2.25
  -3   7  -2    9.80    1.26
  -3   7  -2   10.20    0.83
  -3   7  -1  174.92    6.09
  -3   7  -1  175.26    6.42
  -3   7   0   31.40    1.63
  -3   7   0   33.25    1.98
  -3   7   1  187.06    6.93
  -3   7   1  193.76    6.81
  -3   7   2    8.72    1.10
  -3   7   2   11.49    1.39
  -3   7   3   42.32    2.15
  -3   7   3   42.72    2.24
  -3   7   4    2.66    1.00
  -3   7   4    3.20    0.70
   3  -7  -4    6.14    0.63
  -3   7   5   73.24    3.58
   3  -7  -5   79.19    2.88
  -3   7   6   16.34    1.80
   3  -7  -6   15.82    1.14
  -3   7   7   25.96    2.33
  -3   7   7   20.49    1.61
   3  -7  -7   28.39    1.50
  -3   7   8    6.11    1.25
  -3   7   8    7.22    1.68
   3  -7  -8    7.75    1.07
  -3   7   9    7.70    1.89
   3  -7  -9    5.89    1.17
  -3   7  10   12.43    2.24
   3  -7 -10   13.27    1.51
  -3   7  11    7.62    2.32
  -3   7  12   -2.07    1.48
  -3   7  13   10.31    2.52
  -3   7  14    1.72    1.91
  -3   7  15    4.25    2.43
  -4   8 -15    0.50    1.95
  -4   8 -14   13.70    2.59
  -4   8 -13    0.79    1.84
  -4   8 -12   10.63    2.27
  -4   8 -11    3.23    1.84
  -4   8 -10    1.03    1.66
  -4   8  -9    3.02    1.08
  -4   8  -9    3.62    1.70
  -4   8  -8   79.46    4.05
  -4   8  -8   74.59    3.14
  -4   8  -7   36.37    2.62
  -4   8  -7   33.09    1.75
  -4   8  -6   88.35    3.24
  -4   8  -6   84.36    4.05
  -4   8  -5   32.58    2.32
  -4   8  -5   33.42    1.47
  -4   8  -4   58.01    2.90
  -4   8  -4   61.49    2.27
  -4   8  -3    2.96    0.52
  -4   8  -3    3.06    1.11
  -4   8  -2   15.40    1.52
  -4   8  -2   15.02    0.98
  -4   8  -1    0.01    0.90
  -4   8  -1    0.44    0.59
  -4   8   0  707.31   23.55
  -4   8   0  698.93   23.36
  -4   8   1   -0.23    0.75
  -4   8   1   -0.51    1.11
  -4   8   2   17.87    1.61
  -4   8   2   14.10    1.41
  -4   8   3    3.26    1.09
  -4   8   3    2.25    0.99
  -4   8   4   59.96    2.88
  -4   8   4   61.71    3.04
  -4   8   5   34.85    2.34
  -4   8   5   34.43    2.19
  -4   8   6   83.60    4.07
  -4   8   6   87.61    3.79
   4  -8  -6   84.01    3.10
  -4   8   7   29.65    2.58
  -4   8   7   27.43    1.93
   4  -8  -7   31.48    1.56
  -4   8   8   75.14    4.08
   4  -8  -8   73.17    2.98
  -4   8   9    0.58    0.47
  -4   8   9    4.18    1.76
   4  -8  -9    3.03    0.98
  -4   8  10    1.94    2.11
  -4   8  11    2.87    1.78
  -4   8  12    6.20    2.09
  -4   8  13   -0.45    2.08
  -4   8  14   16.83    2.87
  -4   8  15   -2.32    1.78
  -5   9 -15    9.08    2.56
  -5   9 -14    7.04    2.58
  -5   9 -13   15.87    2.59
  -5   9 -12   -0.19    1.68
  -5   9 -11    1.47    2.05
  -5   9 -10    3.79    1.82
  -5   9  -9   15.74    2.28
  -5   9  -8   13.99    2.15
  -5   9  -7  162.27    6.87
  -5   9  -7  172.34    5.81
  -5   9  -6   91.55    3.23
  -5   9  -6   93.34    4.38
  -5   9  -5   66.62    2.34
  -5   9  -5   64.10    3.25
  -5   9  -4   22.18    1.03
  -5   9  -4   23.22    2.04
  -5   9  -3   24.41    2.03
  -5   9  -3   23.58    1.17
  -5   9  -2   42.55    1.86
  -5   9  -2   43.18    2.51
  -5   9  -1  204.48    7.61
  -5   9  -1  204.04    7.15
  -5   9   0   57.03    2.49
  -5   9   0   55.48    2.92
  -5   9   1  185.36    6.80
  -5   9   1  190.46    7.12
  -5   9   2   39.84    2.18
  -5   9   2   41.42    2.50
  -5   9   3   27.35    2.03
  -5   9   3   26.97    2.03
  -5   9   4   24.45    2.02
  -5   9   4   24.92    2.07
  -5   9   5   65.14    3.45
  -5   9   5   71.16    3.32
  -5   9   6   89.98    4.40
  -5   9   6   93.28    4.20
  -5   9   7  154.62    6.64
  -5   9   7  150.55    6.21
   5  -9  -7  160.22    5.34
  -5   9   8   17.69    2.04
  -5   9   8   12.70    2.36
  -5   9   9   15.76    2.59
  -5   9   9   15.11    1.90
  -5   9  10    2.14    2.09
  -5   9  11    0.67    2.02
  -5   9  12    5.62    2.34
  -5   9  13   15.01    2.96
  -5   9  14    6.62    2.62
  -5   9  15    4.35    2.60
  -6  10 -14    3.71    2.57
  -6  10 -13   19.43    3.17
  -6  10 -12    4.84    2.04
  -6  10 -11    3.33    1.88
  -6  10 -10   -0.09    1.72
  -6  10  -9   10.95    2.22
  -6  10  -8   24.91    2.64
  -6  10  -7  113.60    5.25
  -6  10  -6   45.22    3.07
  -6  10  -5   68.76    3.63
  -6  10  -4    3.98    1.11
  -6  10  -4    1.97    0.39
  -6  10  -3   30.44    1.40
  -6  10  -3   31.54    2.30
  -6  10  -2    9.76    1.60
  -6  10  -2    8.52    0.91
  -6  10  -1  157.35    5.74
  -6  10  -1  162.31    6.35
  -6  10   0   91.02    4.08
  -6  10   0   82.89    3.49
  -6  10   1  165.01    6.17
  -6  10   1  163.88    6.45
  -6  10   2    8.95    1.36
  -6  10   2    8.22    1.51
  -6  10   3   28.50    2.31
  -6  10   3   24.59    1.93
  -6  10   4    1.67    1.15
  -6  10   4    2.30    1.35
  -6  10   5   69.81    3.68
  -6  10   5   71.96    3.56
  -6  10   6   41.29    2.72
  -6  10   6   44.83    3.01
  -6  10   7  118.33    5.59
  -6  10   7  121.61    5.25
  -6  10   8   19.77    2.54
  -6  10   8   21.01    2.23
  -6  10   9   13.31    2.32
  -6  10   9   12.96    1.91
  -6  10  10   -1.58    1.84
  -6  10  10    0.05    1.42
  -6  10  11    1.37    1.85
  -6  10  12    3.35    1.99
  -6  10  13   12.72    2.64
  -6  10  14    5.87    2.67
  -7  11 -14    2.89    2.57
  -7  11 -13    0.35    1.97
  -7  11 -12    4.11    2.10
  -7  11 -11   -0.57    1.79
  -7  11 -10   28.05    2.97
  -7  11  -9    1.18    2.11
  -7  11  -8   22.25    2.66
  -7  11  -7    4.93    1.84
  -7  11  -6   19.51    2.33
  -7  11  -5    0.11    1.48
  -7  11  -4    8.33    1.71
  -7  11  -3    5.43    0.69
  -7  11  -3    4.73    1.50
  -7  11  -2   15.64    1.20
  -7  11  -2   14.74    1.97
  -7  11  -1   12.48    1.78
  -7  11  -1    9.28    1.10
  -7  11   0  220.90    8.23
  -7  11   0  206.83    7.64
  -7  11   1   12.57    1.81
  -7  11   1   13.04    1.47
  -7  11   2   18.96    1.73
  -7  11   2   17.97    2.05
  -7  11   3    4.69    1.24
  -7  11   3    6.70    1.54
  -7  11   4    6.63    1.65
  -7  11   4    8.75    1.65
  -7  11   5    3.88    1.45
  -7  11   5    0.24    1.28
  -7  11   6   22.03    2.41
  -7  11   6   20.34    2.28
  -7  11   7    7.24    1.69
  -7  11   7    3.77    1.74
  -7  11   8   27.53    2.68
  -7  11   8   28.18    2.94
  -7  11   9   -1.23    1.93
  -7  11   9    0.10    1.27
  -7  11  10   28.81    2.87
  -7  11  10   20.33    2.77
  -7  11  11    0.48    1.30
  -7  11  11    1.34    1.78
  -7  11  12    3.76    2.36
  -7  11  13    1.27    2.06
  -7  11  14    2.74    2.48
  -8  12 -14   -2.12    2.42
  -8  12 -13    3.18    2.23
  -8  12 -12    3.50    2.50
  -8  12 -11    1.87    1.97
  -8  12 -10   10.13    2.26
  -8  12  -9   16.88    2.46
  -8  12  -8    4.66    1.96
  -8  12  -7   35.77    3.07
  -8  12  -6    9.57    2.09
  -8  12  -5   11.41    2.03
  -8  12  -4   26.43    2.36
  -8  12  -3   25.07    2.48
  -8  12  -3   25.74    1.38
  -8  12  -2   35.16    2.82
  -8  12  -2   35.29    1.85
  -8  12  -1   61.68    2.78
  -8  12  -1   59.12    3.49
  -8  12   0    0.98    0.95
  -8  12   0    1.37    1.45
  -8  12   1   58.32    3.51
  -8  12   1   61.41    3.06
  -8  12   2   37.56    2.84
  -8  12   2   36.78    2.36
  -8  12   3   28.58    2.68
  -8  12   3   25.26    2.25
  -8  12   4   26.79    2.46
  -8  12   4   27.25    2.55
  -8  12   5   10.72    1.93
  -8  12   5    8.23    1.77
  -8  12   6    9.03    1.92
  -8  12   6    9.96    2.13
  -8  12   7   32.04    3.24
  -8  12   7   40.34    3.05
  -8  12   8    3.26    1.60
  -8  12   8    7.00    1.98
  -8  12   9   16.60    2.56
  -8  12   9   20.88    2.51
  -8  12  10   11.53    2.39
  -8  12  10   11.39    2.08
  -8  12  11    2.20    1.90
  -8  12  11    5.39    1.93
  -8  12  12    0.82    1.90
  -8  12  13    3.49    2.50
  -8  12  14   -1.99    1.84
  -9  13 -13   -0.97    2.41
  -9  13 -12   -0.89    2.29
  -9  13 -11   13.24    2.57
  -9  13 -10    1.38    1.92
  -9  13  -9   17.46    2.57
  -9  13  -8   -0.11    1.77
  -9  13  -7    1.58    1.85
  -9  13  -6   55.17    3.68
  -9  13  -5   25.77    2.70
  -9  13  -4   10.12    2.13
  -9  13  -3   86.05    4.49
  -9  13  -3   84.75    3.26
  -9  13  -2   42.06    2.12
  -9  13  -2   37.79    3.04
  -9  13  -1   17.76    1.61
  -9  13  -1   19.49    2.36
  -9  13   0    2.49    1.18
  -9  13   0    1.66    1.71
  -9  13   1   18.90    1.88
  -9  13   1   19.52    2.42
  -9  13   2   41.15    2.78
  -9  13   2   42.16    3.23
  -9  13   3   80.50    4.12
  -9  13   3   94.05    4.83
  -9  13   4    8.83    1.76
  -9  13   4    7.31    1.94
  -9  13   5   22.54    2.48
  -9  13   5   25.45    2.77
  -9  13   6   57.98    3.74
  -9  13   6   54.08    3.61
  -9  13   7    0.95    1.71
  -9  13   7    1.61    1.95
  -9  13   8    0.64    1.48
  -9  13   8    0.53    1.70
  -9  13   9   14.84    2.54
  -9  13   9   22.21    2.63
  -9  13  10    2.28    1.87
  -9  13  10    1.62    1.81
  -9  13  11   12.38    2.28
  -9  13  11   11.00    2.52
  -9  13  12    2.63    2.17
  -9  13  13    1.52    2.10
 -10  14 -13    1.95    2.20
 -10  14 -12    1.18    2.03
 -10  14 -11    4.53    2.19
 -10  14 -10    8.86    2.33
 -10  14  -9   14.76    2.55
 -10  14  -8   -1.98    1.63
 -10  14  -7   11.39    2.24
 -10  14  -6    1.13    1.84
 -10  14  -5   26.45    2.87
 -10  14  -4   40.39    3.36
 -10  14  -3   29.82    2.96
 -10  14  -2    9.91    1.82
 -10  14  -2   10.86    1.33
 -10  14  -1   53.82    3.60
 -10  14  -1   48.06    2.62
 -10  14   0    1.82    1.16
 -10  14   0   -0.54    1.66
 -10  14   1   49.98    3.62
 -10  14   1   52.67    3.00
 -10  14   2   11.80    1.88
 -10  14   2   15.98    2.42
 -10  14   3   35.90    3.22
 -10  14   3   30.20    2.78
 -10  14   4   46.63    3.51
 -10  14   4   50.30    3.50
 -10  14   5   22.99    2.73
 -10  14   5   22.45    2.75
 -10  14   6    4.40    1.89
 -10  14   6   -0.23    1.59
 -10  14   7   15.77    2.49
 -10  14   7   13.24    2.51
 -10  14   8    1.29    1.71
 -10  14   8    0.62    1.54
 -10  14   9   17.03    2.91
 -10  14   9   17.49    2.66
 -10  14  10   11.25    2.57
 -10  14  10    4.74    2.15
 -10  14  11    4.62    2.18
 -10  14  11    8.89    2.45
 -10  14  12    5.74    1.98
 -10  14  12   -2.01    1.89
 -10  14  13    2.63    2.23
 -11  15 -12    7.09    2.48
 -11  15 -11    1.52    2.46
 -11  15 -10    4.00    2.09
 -11  15  -9    2.39    1.99
 -11  15  -8    6.01    2.09
 -11  15  -7    2.44    1.94
 -11  15  -6    0.59    1.87
 -11  15  -5   -0.58    1.76
 -11  15  -4   45.90    3.63
 -11  15  -3   13.07    2.37
 -11  15  -2   -0.88    1.33
 -11  15  -1    4.98    2.04
 -11  15  -1    6.73    1.43
 -11  15   0   29.89    2.39
 -11  15   0   28.41    2.94
 -11  15   1    7.38    2.16
 -11  15   1    5.30    1.69
 -11  15   2    2.75    1.57
 -11  15   2   -2.00    1.73
 -11  15   3   16.81    2.32
 -11  15   3   10.33    2.29
 -11  15   4   50.22    3.60
 -11  15   4   45.43    3.75
 -11  15   5   -1.54    1.63
 -11  15   5   -0.11    1.74
 -11  15   6    0.46    1.90
 -11  15   6   -0.22    1.60
 -11  15   7    2.29    1.76
 -11  15   7    3.60    1.85
 -11  15   8    8.32    2.16
 -11  15   8    6.13    2.39
 -11  15   9    0.29    1.85
 -11  15   9    3.63    1.91
 -11  15  10    4.12    2.15
 -11  15  10    1.87    1.86
 -11  15  11    0.25    2.29
 -11  15  11    5.64    2.09
 -11  15  12    2.19    2.14
 -12  16 -11    2.19    2.19
 -12  16 -10   -0.01    2.03
 -12  16  -9    8.78    2.46
 -12  16  -8    0.09    1.94
 -12  16  -7    1.18    1.96
 -12  16  -6    1.93    1.89
 -12  16  -5    3.61    1.98
 -12  16  -4    1.66    1.88
 -12  16  -3   13.68    2.44
 -12  16  -2    7.08    2.17
 -12  16  -1    3.88    1.58
 -12  16   0    2.68    1.47
 -12  16   0    0.63    1.86
 -12  16   1    3.36    2.01
 -12  16   1    1.70    1.45
 -12  16   2    5.95    1.77
 -12  16   2   10.61    2.40
 -12  16   3    9.31    2.25
 -12  16   3   13.30    2.22
 -12  16   4    2.42    1.60
 -12  16   4   -0.55    1.72
 -12  16   5    3.02    1.88
 -12  16   5    5.56    1.88
 -12  16   6   -0.54    1.69
 -12  16   6   -2.01    1.77
 -12  16   7    3.93    2.17
 -12  16   7   -1.22    1.70
 -12  16   8   -1.28    2.06
 -12  16   8    0.58    1.80
 -12  16   9    6.65    2.19
 -12  16   9    5.80    2.19
 -12  16  10    3.61    2.27
 -12  16  10    0.14    1.96
 -12  16  11    8.41    2.31
 -12  16  11    2.82    2.22
 -13  17 -10   10.26    2.63
 -13  17  -9   -0.60    1.98
 -13  17  -8    2.30    2.07
 -13  17  -7    3.01    2.12
 -13  17  -6    0.62    1.94
 -13  17  -5   -1.25    1.78
 -13  17  -4    3.50    2.02
 -13  17  -3    3.06    1.99
 -13  17  -2   16.06    2.56
 -13  17  -1    8.64    1.87
 -13  17   0    2.64    1.90
 -13  17   1   10.31    1.96
 -13  17   1    5.08    2.11
 -13  17   2   19.18    2.40
 -13  17   2   13.64    2.53
 -13  17   3    3.04    1.81
 -13  17   3    2.42    1.92
 -13  17   4    3.58    1.91
 -13  17   4    2.89    1.75
 -13  17   5   -0.43    1.81
 -13  17   5    2.06    1.97
 -13  17   6    0.28    1.96
 -13  17   6   -1.19    1.76
 -13  17   7    8.90    2.39
 -13  17   7    5.69    2.08
 -13  17   8    0.01    1.84
 -13  17   8    4.12    2.08
 -13  17   9   -0.99    1.87
 -13  17   9    2.80    1.97
 -13  17  10   11.21    2.62
 -13  17  10    9.15    2.99
 -14  18  -9    6.98    2.46
 -14  18  -8    3.77    2.19
 -14  18  -7    2.30    2.14
 -14  18  -6    9.26    2.50
 -14  18  -5    7.97    2.40
 -14  18  -4    1.93    2.04
 -14  18  -3   19.34    2.83
 -14  18  -2    1.82    1.93
 -14  18  -1    3.57    1.99
 -14  18   0   12.34    2.45
 -14  18   1    2.17    1.93
 -14  18   2    1.31    1.80
 -14  18   2    2.02    1.97
 -14  18   3   23.41    2.74
 -14  18   3   24.56    3.13
 -14  18   4   -0.38    1.83
 -14  18   4    0.45    1.88
 -14  18   5    4.80    2.21
 -14  18   5    8.06    2.37
 -14  18   6    5.76    2.32
 -14  18   6    7.58    2.49
 -14  18   7    2.56    2.34
 -14  18   7    3.85    2.13
 -14  18   8    3.49    2.20
 -14  18   8    0.36    1.96
 -14  18   9    9.28    2.59
 -14  18   9    7.46    2.46
 -15  19  -8    6.31    2.45
 -15  19  -7    0.52    2.43
 -15  19  -6   -2.46    1.87
 -15  19  -5   -0.35    1.99
 -15  19  -4    8.20    2.35
 -15  19  -3    5.58    2.21
 -15  19  -2    4.86    2.18
 -15  19  -1    3.60    2.05
 -15  19   0    0.06    1.94
 -15  19   1    4.05    2.13
 -15  19   2    1.33    2.02
 -15  19   3    3.94    2.14
 -15  19   3    3.38    2.06
 -15  19   4   12.31    2.65
 -15  19   4   15.50    2.63
 -15  19   5   -1.01    1.98
 -15  19   5    0.36    1.94
 -15  19   6   -4.62    2.18
 -15  19   6   -1.90    1.71
 -15  19   7    0.95    2.10
 -15  19   7    3.60    2.16
 -15  19   8    4.03    2.53
 -15  19   8    3.07    2.21
 -16  20  -7   -0.88    2.08
 -16  20  -6   -1.27    1.97
 -16  20  -5    2.86    2.17
 -16  20  -4    2.62    2.09
 -16  20  -3    2.19    2.04
 -16  20  -2    1.87    2.06
 -16  20  -1   -1.52    1.85
 -16  20   0    4.87    2.26
 -16  20   1    0.55    1.98
 -16  20   2   -0.28    1.91
 -16  20   3    1.89    2.03
 -16  20   4    0.17    2.00
 -16  20   4    2.12    2.12
 -16  20   5    1.12    1.76
 -16  20   5    1.86    2.03
 -16  20   6   -2.31    1.68
 -16  20   6    2.11    2.49
 -17  21  -4    1.84    2.08
 -17  21  -3    1.59    2.06
 -17  21  -2    1.45    2.07
 -17  21  -1    0.99    2.04
 -17  21   0   -3.85    1.77
 -17  21   1    1.34    2.00
 -17  21   2    3.51    2.12
 -17  21   3    1.99    2.04
 -17  21   4   -1.73    1.94
 -22  17   2    0.09    1.94
 -22  17   1   -0.50    1.85
 -22  17   0    5.16    2.13
 -22  17  -1    3.35    2.07
 -22  17  -2    0.17    1.85
  21 -16  -5    0.08    2.24
 -21  16   5   -0.91    1.88
  21 -16  -4   -0.09    2.05
 -21  16   4    1.04    2.26
 -21  16   3   -0.82    1.83
 -21  16   2    0.79    1.90
 -21  16   1    6.97    2.20
 -21  16   0    3.98    1.99
 -21  16  -1    0.95    1.82
 -21  16  -2    2.04    1.90
 -21  16  -3    2.85    1.96
 -21  16  -4    2.28    1.79
 -21  16  -4   -1.55    1.82
 -21  16  -5    1.21    2.17
 -21  16  -5   -0.60    1.95
  20 -15  -7    1.29    2.38
 -20  15   7   -1.45    1.67
  20 -15  -6    4.01    2.00
 -20  15   6    2.71    2.01
  20 -15  -5   -4.39    1.84
 -20  15   5   -0.14    1.88
  20 -15  -4   -0.48    1.91
 -20  15   4    0.02    1.72
  20 -15  -3    0.93    0.89
 -20  15   3   13.24    2.51
  20 -15  -2    1.93    1.81
 -20  15   2    0.78    1.84
 -20  15   1   -0.96    1.69
 -20  15   0    1.64    1.80
 -20  15  -1   -1.90    1.69
 -20  15  -2   -2.33    1.57
 -20  15  -2    0.29    1.70
 -20  15  -3    0.27    0.82
 -20  15  -3   11.13    2.25
 -20  15  -4   -2.15    1.63
 -20  15  -4   -0.05    1.80
 -20  15  -5    1.83    1.98
 -20  15  -5   -2.95    2.03
 -20  15  -6    1.61    2.05
 -20  15  -6    2.02    1.88
 -20  15  -7    3.01    1.90
 -20  15  -7   -0.58    2.10
  19 -14  -8   -3.88    2.28
 -19  14   8    1.13    1.94
  19 -14  -7    1.46    2.31
 -19  14   7    3.13    2.07
  19 -14  -6    0.92    1.80
 -19  14   6    0.34    1.83
  19 -14  -5    9.22    2.43
 -19  14   5   10.35    2.37
  19 -14  -4   13.13    2.36
 -19  14   4   16.28    2.60
  19 -14  -3    5.42    1.97
 -19  14   3    3.44    1.90
  19 -14  -2    5.34    1.89
 -19  14   2    1.24    1.81
  19 -14  -1   10.21    2.10
 -19  14   1    8.38    2.12
 -19  14   0   -0.25    1.65
 -19  14  -1    8.32    2.04
 -19  14  -1    6.23    2.27
 -19  14  -2    4.05    2.17
 -19  14  -2    3.96    1.75
 -19  14  -3    3.19    1.76
 -19  14  -3    7.73    2.05
 -19  14  -4   16.35    2.74
 -19  14  -4   15.21    2.52
 -19  14  -5    8.55    2.16
 -19  14  -5    7.14    1.97
 -19  14  -6    0.24    2.06
 -19  14  -6    1.59    2.04
 -19  14  -7    3.32    1.89
 -19  14  -7    2.69    1.76
 -19  14  -8   -1.87    1.70
 -19  14  -8    4.39    1.93
  18 -13 -10    4.00    2.42
  18 -13  -9    0.60    2.16
 -18  13   9    1.21    2.00
  18 -13  -8   -0.73    1.89
 -18  13   8    3.99    2.09
  18 -13  -7    3.97    2.08
 -18  13   7    3.48    1.96
  18 -13  -6    1.92    2.18
 -18  13   6    0.20    1.78
  18 -13  -5    0.83    1.68
 -18  13   5    1.26    1.76
  18 -13  -4   12.35    2.38
 -18  13   4   12.79    2.37
  18 -13  -3    5.46    1.95
 -18  13   3    3.75    1.90
  18 -13  -2    7.31    1.84
 -18  13   2   10.33    2.18
  18 -13  -1    0.82    1.52
 -18  13   1   -0.50    1.56
  18 -13   0   10.25    2.04
 -18  13   0    7.63    1.84
 -18  13   0    8.46    2.08
 -18  13  -1    1.29    1.69
 -18  13  -1    3.60    1.62
 -18  13  -2   15.01    2.46
 -18  13  -2    8.55    1.80
 -18  13  -3    3.57    1.79
 -18  13  -3    3.22    1.79
 -18  13  -4   14.05    2.34
 -18  13  -4   14.04    2.52
 -18  13  -5    0.16    1.64
 -18  13  -5    1.03    1.83
 -18  13  -6    5.72    1.89
 -18  13  -6    2.72    1.78
 -18  13  -7    3.49    1.91
 -18  13  -7    8.40    2.03
 -18  13  -8    2.90    2.07
 -18  13  -8    4.97    2.02
 -18  13  -9    3.23    1.83
 -18  13  -9    0.42    1.88
 -18  13 -10    3.68    2.21
  17 -12 -11    5.83    2.98
  17 -12 -10   -0.30    2.13
 -17  12  10    3.11    2.45
  17 -12  -9   10.00    2.83
 -17  12   9    4.47    2.16
  17 -12  -8    5.42    2.24
 -17  12   8    1.90    1.95
  17 -12  -7   -0.24    1.84
 -17  12   7    2.63    1.89
  17 -12  -6    0.71    1.75
 -17  12   6   -0.11    1.65
  17 -12  -5   -0.68    1.82
 -17  12   5    0.39    1.67
  17 -12  -4   -0.17    1.45
 -17  12   4    0.29    1.57
  17 -12  -3   13.74    2.29
 -17  12   3   13.14    2.27
 -17  12   2    2.37    1.68
  17 -12  -1    6.93    1.83
 -17  12   1    7.96    1.79
 -17  12   1    5.11    1.86
  17 -12   0    5.54    1.84
 -17  12   0    7.05    1.72
 -17  12   0    6.19    1.85
  17 -12   1    7.71    1.78
 -17  12  -1    6.51    1.89
 -17  12  -1    8.98    1.78
 -17  12  -2   -0.80    0.48
 -17  12  -2    0.76    1.80
 -17  12  -3    9.79    2.09
 -17  12  -3   14.10    2.15
 -17  12  -4    0.70    1.84
 -17  12  -4   -1.29    1.37
 -17  12  -5    0.65    1.49
 -17  12  -5    1.73    1.88
 -17  12  -6    3.42    2.00
 -17  12  -6   -0.34    1.55
 -17  12  -7    1.35    1.76
 -17  12  -7    4.75    1.79
 -17  12  -8    3.58    2.02
 -17  12  -8    4.17    2.02
 -17  12  -9    6.94    2.15
 -17  12  -9    1.89    1.96
 -17  12 -10    2.78    2.08
 -17  12 -11    5.25    2.62
  16 -11 -11    0.55    2.09
  16 -11 -10    7.00    2.50
 -16  11  10    7.69    2.29
  16 -11  -9    2.36    2.44
 -16  11   9    2.34    1.91
  16 -11  -8    1.47    1.89
 -16  11   8    1.06    1.73
  16 -11  -7   -0.78    2.10
 -16  11   7   -1.38    1.55
  16 -11  -6    1.15    1.73
 -16  11   6    4.15    1.80
  16 -11  -5    5.98    2.17
 -16  11   5    4.25    1.44
  16 -11  -4   12.59    2.33
 -16  11   4   12.55    2.24
  16 -11  -3    7.70    2.00
 -16  11   3    5.46    1.90
  16 -11  -2    7.52    1.88
 -16  11   2    5.36    1.87
 -16  11   2    7.41    1.71
  16 -11  -1    4.51    1.71
 -16  11   1    2.82    1.67
 -16  11   1    4.10    1.52
  16 -11   0   -1.09    1.46
 -16  11   0   -2.21    1.36
 -16  11   0    0.27    1.58
  16 -11   1    1.41    1.55
 -16  11  -1    2.06    1.55
 -16  11  -1    2.30    1.66
  16 -11   2   10.92    1.85
 -16  11  -2    6.94    2.16
 -16  11  -2    6.84    1.81
 -16  11  -3    7.10    2.19
 -16  11  -3    9.22    2.10
 -16  11  -4   12.81    2.05
 -16  11  -4   14.68    2.35
 -16  11  -5    4.46    1.90
 -16  11  -5    4.76    1.72
 -16  11  -6    2.13    1.66
 -16  11  -6    4.90    1.68
 -16  11  -7    2.41    2.02
 -16  11  -7    2.59    1.86
 -16  11  -8   -0.20    1.68
 -16  11  -8    0.98    1.82
 -16  11  -9    1.66    2.28
 -16  11  -9    3.54    1.95
 -16  11 -10    4.90    2.18
 -16  11 -11   -2.45    1.77
  15 -10 -12   -1.50    2.01
  15 -10 -11    9.29    2.61
  15 -10 -10    1.47    2.14
  15 -10  -9   14.27    2.66
 -15  10   9   11.21    2.33
  15 -10  -8    3.72    2.06
 -15  10   8    4.87    1.89
  15 -10  -7    0.67    2.02
 -15  10   7   -0.73    1.55
  15 -10  -6    5.61    1.92
 -15  10   6    4.62    1.59
  15 -10  -5   21.94    2.75
 -15  10   5   13.47    2.35
  15 -10  -4    0.30    1.54
 -15  10   4    2.09    1.67
  15 -10  -3   46.05    3.31
 -15  10   3   46.47    3.30
 -15  10   3   40.88    2.87
  15 -10  -2    1.53    1.65
 -15  10   2    0.94    1.50
 -15  10   2   -0.02    1.38
  15 -10  -1    9.58    1.79
 -15  10   1    9.01    1.93
 -15  10   1    9.15    1.82
  15 -10   0   49.25    3.08
 -15  10   0   50.28    3.11
 -15  10   0   39.75    3.07
  15 -10   1   11.09    1.68
 -15  10  -1   10.33    1.93
 -15  10  -1    7.63    1.59
  15 -10   2   -2.56    1.33
 -15  10  -2    1.21    1.51
 -15  10  -2    0.31    1.54
  15 -10   3   45.24    2.96
 -15  10  -3   44.54    3.14
 -15  10  -3   44.71    3.23
 -15  10  -4   -0.02    1.48
 -15  10  -4   -0.03    1.76
 -15  10  -5   19.16    2.45
 -15  10  -5   18.22    2.51
 -15  10  -6    7.60    1.91
 -15  10  -6    6.65    1.75
 -15  10  -7    0.50    1.68
 -15  10  -7    1.80    1.51
 -15  10  -8    5.52    1.93
 -15  10  -8    7.27    2.04
 -15  10  -9   13.10    2.39
 -15  10  -9   10.47    1.98
 -15  10 -10    1.92    1.95
 -15  10 -10    1.01    1.82
 -15  10 -11    6.63    2.26
 -15  10 -12    2.06    2.06
  14  -9 -13    4.49    2.76
  14  -9 -12    4.71    2.47
  14  -9 -11    4.70    2.59
  14  -9 -10   20.83    3.33
  14  -9  -9    0.38    1.88
 -14   9   9    4.70    1.90
  14  -9  -8   11.34    2.35
 -14   9   8    5.93    1.94
  14  -9  -7    9.99    2.21
 -14   9   7    8.96    1.97
  14  -9  -6   14.75    2.37
 -14   9   6   18.03    2.47
  14  -9  -5    1.31    1.97
 -14   9   5    0.57    1.60
  14  -9  -4   50.56    3.35
 -14   9   4   53.09    3.44
  14  -9  -3   27.56    2.54
 -14   9   3   29.64    2.31
 -14   9   3   28.12    2.67
  14  -9  -2   65.30    3.54
 -14   9   2   67.79    3.41
 -14   9   2   63.12    3.71
 -14   9   1    9.90    1.79
 -14   9   1   13.28    1.86
  14  -9   0   17.31    2.10
 -14   9   0   14.91    2.01
 -14   9   0   15.20    1.88
  14  -9   1   10.39    1.64
 -14   9  -1   11.19    1.84
  14  -9   2   62.33    3.41
 -14   9  -2   66.68    3.57
 -14   9  -2   60.61    3.47
  14  -9   3   26.69    2.32
 -14   9  -3   29.79    2.59
 -14   9  -3   27.51    2.44
  14  -9   4   58.18    3.02
 -14   9  -4   48.78    3.23
 -14   9  -4   50.08    3.44
 -14   9  -5    2.88    1.63
 -14   9  -5    4.51    1.61
 -14   9  -6   19.97    2.42
 -14   9  -6   21.13    2.73
 -14   9  -7    8.84    1.77
 -14   9  -7   12.52    2.25
 -14   9  -8    7.22    2.03
 -14   9  -8    5.34    1.86
 -14   9  -9    3.91    1.82
 -14   9  -9    2.67    1.91
 -14   9 -10   17.30    2.39
 -14   9 -10   16.97    2.89
 -14   9 -11   -0.13    2.21
 -14   9 -12    6.71    2.30
 -14   9 -13    0.63    2.33
  13  -8 -13    1.36    2.33
  13  -8 -12   -0.77    2.34
  13  -8 -11    9.77    2.54
  13  -8 -10   12.64    2.54
  13  -8  -9    3.10    2.22
  13  -8  -8    3.72    1.91
 -13   8   8    1.98    1.63
  13  -8  -7   21.44    2.69
 -13   8   7   20.75    2.58
  13  -8  -6    6.64    2.00
 -13   8   6    2.94    1.67
  13  -8  -5   23.28    2.54
 -13   8   5   29.36    2.69
  13  -8  -4   46.49    3.15
 -13   8   4   49.68    3.18
  13  -8  -3   27.15    2.56
 -13   8   3   29.74    2.18
 -13   8   3   30.15    2.58
  13  -8  -2   18.97    2.03
 -13   8   2   16.91    2.04
 -13   8   2   19.06    1.92
  13  -8  -1   16.29    1.90
 -13   8   1   26.87    2.11
 -13   8   1   21.86    2.14
  13  -8   0    9.22    1.63
 -13   8   0   13.14    1.70
 -13   8   0   12.91    1.80
  13  -8   1   24.89    2.10
 -13   8  -1   23.88    2.21
 -13   8  -1   18.57    1.86
  13  -8   2   19.25    1.91
 -13   8  -2   18.67    2.10
 -13   8  -2   19.13    2.03
  13  -8   3   28.81    2.32
 -13   8  -3   28.09    2.52
 -13   8  -3   24.28    2.28
  13  -8   4   50.08    2.77
 -13   8  -4   43.03    2.96
 -13   8  -4   43.73    3.05
  13  -8   5   24.71    1.98
 -13   8  -5   26.84    2.56
 -13   8  -5   23.39    2.24
 -13   8  -6    5.57    1.85
 -13   8  -6    7.30    1.60
 -13   8  -7   17.45    2.21
 -13   8  -7   17.87    2.46
 -13   8  -8    2.03    1.67
 -13   8  -8   -2.10    1.59
 -13   8  -9    1.83    2.07
 -13   8  -9    3.28    1.71
 -13   8 -10   14.35    2.27
 -13   8 -10   15.42    2.50
 -13   8 -11    6.89    2.19
 -13   8 -12   -0.38    2.18
 -13   8 -13   -0.73    1.87
  12  -7 -14    2.69    2.65
  12  -7 -13    4.52    2.36
  12  -7 -12   10.73    2.94
  12  -7 -11    7.63    2.32
  12  -7 -10    4.18    2.05
  12  -7  -9   10.66    2.36
  12  -7  -8    9.75    2.20
 -12   7   8   10.51    2.09
  12  -7  -7   21.24    2.64
 -12   7   7   18.16    2.37
  12  -7  -6   11.62    2.30
 -12   7   6    8.64    1.59
  12  -7  -5   18.39    2.28
 -12   7   5   18.14    1.98
  12  -7  -4    4.23    1.55
 -12   7   4    6.12    1.51
  12  -7  -3   56.99    3.16
 -12   7   3   56.96    3.19
 -12   7   3   55.98    2.86
  12  -7  -2    0.72    1.30
 -12   7   2   -0.80    1.10
 -12   7   2   -1.05    1.00
  12  -7  -1   83.16    3.91
 -12   7   1   80.51    3.86
 -12   7   1   85.41    3.79
  12  -7   0   52.13    2.74
 -12   7   0   53.26    2.82
 -12   7   0   42.63    2.43
  12  -7   1   78.22    3.55
 -12   7  -1   80.86    3.66
 -12   7  -1   72.76    3.48
  12  -7   2    0.87    1.21
 -12   7  -2    0.64    1.09
 -12   7  -2   -0.99    1.04
  12  -7   3   54.48    3.01
 -12   7  -3   60.56    3.21
 -12   7  -3   65.12    3.30
  12  -7   4    7.64    1.35
 -12   7  -4    3.80    1.48
 -12   7  -4    6.48    1.40
  12  -7   5   19.43    1.73
 -12   7  -5   21.05    2.17
 -12   7  -5   18.42    2.22
  12  -7   6   12.59    1.41
 -12   7  -6   10.52    1.82
 -12   7  -6   12.94    2.24
 -12   7  -7   14.34    1.85
 -12   7  -7   15.28    2.36
 -12   7  -8    6.81    1.99
 -12   7  -8    9.83    1.89
 -12   7  -9   14.86    2.08
 -12   7  -9   15.35    2.39
 -12   7 -10    4.98    1.73
 -12   7 -10    4.22    1.91
 -12   7 -11    8.73    2.17
 -12   7 -12    5.10    2.09
 -12   7 -13    2.98    2.08
 -12   7 -14    1.76    2.47
  11  -6 -14    2.34    2.30
  11  -6 -13    8.41    2.92
  11  -6 -12   -1.45    1.87
  11  -6 -11   -1.43    1.73
  11  -6 -10    1.18    1.81
  11  -6  -9   -0.69    1.73
  11  -6  -8    5.09    1.95
  11  -6  -7   86.45    4.63
 -11   6   7   87.13    4.45
  11  -6  -6   24.09    2.53
 -11   6   6   25.51    2.51
  11  -6  -5   22.07    2.34
 -11   6   5   20.76    2.16
  11  -6  -4   10.65    1.70
 -11   6   4   10.72    1.63
  11  -6  -3    5.60    1.51
 -11   6   3    1.14    1.12
 -11   6   3    2.36    1.04
  11  -6  -2   20.68    2.00
 -11   6   2   23.00    1.84
 -11   6   2   20.70    1.91
  11  -6  -1   97.00    4.29
 -11   6   1   99.14    4.33
 -11   6   1   97.56    4.09
 -11   6   0   23.23    1.85
  11  -6   1   92.73    4.03
 -11   6  -1   93.17    4.01
 -11   6  -1   97.33    4.07
  11  -6   2   25.02    1.90
 -11   6  -2   20.20    1.78
 -11   6  -2   18.72    1.81
  11  -6   3    2.91    1.14
 -11   6  -3    4.55    1.16
 -11   6  -3    1.46    1.36
  11  -6   4    8.32    1.32
 -11   6  -4   10.34    1.59
 -11   6  -4    8.72    1.56
  11  -6   5   22.44    1.81
 -11   6  -5   22.14    1.94
 -11   6  -5   24.67    2.32
  11  -6   6   21.61    1.75
 -11   6  -6   25.71    2.17
 -11   6  -6   29.18    2.60
  11  -6   7   87.79    3.72
 -11   6  -7   88.32    4.13
 -11   6  -7   87.21    4.55
 -11   6  -8    5.20    1.56
 -11   6  -8    3.44    1.79
 -11   6  -9    1.00    1.51
 -11   6  -9   -0.46    1.66
 -11   6 -10   -0.12    1.62
 -11   6 -10   -0.43    1.40
 -11   6 -11   -0.16    1.70
 -11   6 -12   -0.88    2.07
 -11   6 -13   13.76    2.83
 -11   6 -14    2.88    2.14
  10  -5 -15    3.05    2.33
  10  -5 -14   18.33    3.11
  10  -5 -13   -1.56    1.87
  10  -5 -12    6.61    2.23
  10  -5 -11    8.29    2.43
  10  -5 -10    5.81    2.06
  10  -5  -9   20.67    2.70
  10  -5  -8   82.48    4.52
  10  -5  -7   12.39    2.11
 -10   5   7   11.54    1.85
  10  -5  -6  304.84   11.34
 -10   5   6  302.69   11.18
  10  -5  -5   51.68    3.16
 -10   5   5   54.71    3.04
  10  -5  -4    1.25    1.18
 -10   5   4    0.36    1.04
  10  -5  -3   92.79    4.15
 -10   5   3   87.40    3.77
 -10   5   3   90.64    4.00
  10  -5  -2  156.58    6.08
 -10   5   2  152.78    5.94
 -10   5   2  151.34    5.76
  10  -5  -1   52.78    2.77
 -10   5   1   59.97    2.74
 -10   5   1   54.29    2.76
 -10   5   0  170.96    6.34
  10  -5   1   59.03    2.81
 -10   5  -1   53.63    2.62
 -10   5  -1   52.86    2.66
  10  -5   2  150.88    5.73
 -10   5  -2  150.64    5.81
 -10   5  -2  142.96    5.58
  10  -5   3   86.78    3.83
 -10   5  -3   90.63    3.83
 -10   5  -3   94.12    4.04
  10  -5   4    0.18    0.86
 -10   5  -4    1.17    0.87
 -10   5  -4   -0.56    1.09
  10  -5   5   58.00    2.73
 -10   5  -5   54.51    3.17
 -10   5  -5   54.28    2.83
  10  -5   6  301.93   10.56
 -10   5  -6  303.09   10.63
 -10   5  -6  296.57   11.09
  10  -5   7   12.95    1.45
 -10   5  -7    6.76    1.81
 -10   5  -7   10.18    1.60
  10  -5   8   79.07    3.50
 -10   5  -8   78.39    3.72
 -10   5  -8   73.72    4.20
  10  -5   9   19.82    1.79
 -10   5  -9   13.52    2.28
 -10   5  -9   15.95    1.90
 -10   5 -10    6.62    1.72
 -10   5 -10    4.87    1.83
 -10   5 -11    9.04    1.88
 -10   5 -11   12.64    2.25
 -10   5 -12    4.67    1.99
 -10   5 -13   -0.78    1.76
 -10   5 -14   16.77    2.82
 -10   5 -15    2.67    2.08
   9  -4 -15    3.17    2.32
   9  -4 -14    6.80    2.41
   9  -4 -13   13.46    2.68
   9  -4 -12    3.81    2.06
   9  -4 -11   -0.77    1.69
   9  -4 -10    3.88    1.94
   9  -4  -9   12.99    2.30
   9  -4  -8   11.11    2.03
   9  -4  -7  163.28    6.86
   9  -4  -6   95.96    4.50
  -9   4   6   90.17    4.27
   9  -4  -5   68.67    3.51
  -9   4   5   65.95    3.36
   9  -4  -4   21.55    1.99
  -9   4   4   23.59    1.94
   9  -4  -3   22.86    1.92
  -9   4   3   23.40    1.78
   9  -4  -2   39.61    2.35
  -9   4   2   45.01    2.26
  -9   4   2   43.72    2.31
   9  -4  -1  194.47    7.10
  -9   4   1  189.15    6.98
   9  -4   0   54.33    2.71
  -9   4   0   54.16    2.57
  -9   4   0   55.42    2.54
  -9   4  -1  193.67    6.92
  -9   4  -1  186.08    6.79
   9  -4   2   43.26    2.34
  -9   4  -2   39.67    2.27
  -9   4  -2   40.64    2.16
   9  -4   3   23.66    1.65
  -9   4  -3   23.78    1.93
  -9   4  -3   22.74    1.67
   9  -4   4   22.67    1.64
  -9   4  -4   21.36    1.61
  -9   4  -4   20.23    1.90
   9  -4   5   70.05    3.06
  -9   4  -5   68.15    3.44
  -9   4  -5   64.96    3.02
   9  -4   6   89.09    3.73
  -9   4  -6   88.14    3.74
  -9   4  -6   87.60    4.23
   9  -4   7  150.17    5.86
  -9   4  -7  155.98    5.90
  -9   4  -7  154.68    6.46
   9  -4   8   11.82    1.53
  -9   4  -8   10.97    1.54
  -9   4  -8   10.59    2.00
   9  -4   9   17.79    1.82
  -9   4  -9   16.03    2.37
  -9   4  -9   15.88    1.82
   9  -4  10    3.90    1.39
  -9   4 -10    1.98    1.69
  -9   4 -10    4.44    1.42
  -9   4 -11    2.76    1.40
  -9   4 -11   -0.07    1.57
  -9   4 -12    1.99    2.03
  -9   4 -13   14.03    2.73
  -9   4 -14    7.67    2.28
  -9   4 -15    5.66    2.52
   8  -3 -15    2.62    2.23
   8  -3 -14    0.05    1.93
   8  -3 -13   21.82    3.01
   8  -3 -12    6.61    2.16
   8  -3 -11    7.75    2.17
   8  -3 -10    3.30    1.89
   8  -3  -9   19.32    2.51
   8  -3  -8   58.97    3.61
   8  -3  -7  105.88    4.93
   8  -3  -6    1.61    1.29
   8  -3  -5  165.02    6.64
  -8   3   5  172.64    6.55
   8  -3  -4   60.79    3.10
  -8   3   4   62.52    3.01
   8  -3  -3   72.62    3.32
  -8   3   3   71.33    3.20
   8  -3  -2   20.43    1.64
  -8   3   2   23.80    1.57
  -8   3   2   21.68    1.52
   8  -3  -1  160.95    6.11
  -8   3   1  166.46    5.98
   8  -3   0  271.15    9.83
  -8   3   0  283.93    9.78
  -8   3   0  285.10    9.69
  -8   3  -1  155.68    5.59
  -8   3  -1  154.87    5.77
   8  -3   2   22.17    1.60
  -8   3  -2   21.45    1.60
  -8   3  -2   20.62    1.31
   8  -3   3   70.37    3.11
  -8   3  -3   70.89    3.25
  -8   3  -3   72.50    2.99
   8  -3   4   67.31    2.75
  -8   3  -4   53.76    2.90
  -8   3  -4   52.43    2.56
   8  -3   5  173.32    6.28
  -8   3  -5  167.28    6.58
  -8   3  -5  167.46    6.14
   8  -3   6    0.59    0.88
  -8   3  -6    0.46    0.94
  -8   3  -6   -0.97    1.16
   8  -3   7   97.43    4.14
  -8   3  -7   99.43    3.97
  -8   3  -7   98.34    4.60
   8  -3   8   49.96    2.79
  -8   3  -8   53.70    3.32
  -8   3  -8   52.08    2.71
   8  -3   9   22.57    2.10
  -8   3  -9   24.16    1.97
  -8   3  -9   21.95    2.53
   8  -3  10    2.75    1.36
  -8   3 -10   -2.44    1.52
  -8   3 -10   -0.53    1.22
   8  -3  11   13.42    1.86
  -8   3 -11   15.45    1.96
  -8   3 -12    3.67    2.12
  -8   3 -13   19.09    2.92
  -8   3 -14    3.29    1.92
  -8   3 -15    1.47    1.93
   7  -2 -15    2.10    2.44
   7  -2 -14    6.88    2.60
   7  -2 -13   -1.59    1.73
   7  -2 -12    3.30    1.85
   7  -2 -11    4.34    2.22
   7  -2 -10   17.61    2.45
   7  -2  -9   15.67    2.25
   7  -2  -8   25.54    2.53
   7  -2  -7    3.69    1.45
   7  -2  -6   20.01    2.01
   7  -2  -5   12.98    1.63
   7  -2  -4    7.24    1.29
  -7   2   4    4.14    1.05
   7  -2  -3   39.28    2.17
  -7   2   3   35.28    2.01
   7  -2  -2   45.47    2.39
  -7   2   2   48.21    2.25
   7  -2  -1   43.63    2.38
  -7   2   1   53.90    2.27
  -7   2   1   50.20    2.30
   7  -2   0  278.90    9.60
  -7   2   0  270.46    9.47
  -7   2   0  269.35    9.31
   7  -2   1   46.86    2.25
  -7   2  -1   45.14    2.23
  -7   2  -1   45.46    2.03
  -7   2  -2   43.37    2.19
  -7   2  -2   41.86    1.91
   7  -2   3   35.36    1.98
  -7   2  -3   35.67    1.75
  -7   2  -3   39.25    2.13
   7  -2   4    5.82    1.03
  -7   2  -4    8.74    1.27
  -7   2  -4    6.51    0.91
   7  -2   5   14.13    1.40
  -7   2  -5   14.00    1.63
  -7   2  -5   13.93    1.20
   7  -2   6   16.88    1.56
  -7   2  -6   17.50    1.35
  -7   2  -6   18.46    1.91
   7  -2   7    2.84    1.07
  -7   2  -7    4.90    1.03
  -7   2  -7    3.39    1.37
   7  -2   8   25.02    1.96
  -7   2  -8   25.54    2.42
  -7   2  -8   24.08    1.84
   7  -2   9   13.20    1.73
  -7   2  -9   19.53    2.45
  -7   2  -9   16.45    1.65
   7  -2  10   14.52    1.90
  -7   2 -10   17.18    1.90
  -7   2 -10   11.60    2.10
   7  -2  11    6.05    1.69
  -7   2 -11    1.15    1.66
  -7   2 -11    3.48    1.39
   7  -2  12    4.32    1.59
  -7   2 -12    2.03    1.71
   7  -2  13    0.90    1.68
  -7   2 -13    0.40    1.69
  -7   2 -14    4.92    2.31
  -7   2 -15   -0.18    1.75
   6  -1 -15   -0.85    1.77
   6  -1 -14    5.07    2.38
   6  -1 -13    7.09    2.14
   6  -1 -12    4.76    1.93
   6  -1 -11    4.85    1.91
   6  -1 -10   99.58    5.02
   6  -1  -9   21.58    2.64
   6  -1  -8   -0.47    1.32
   6  -1  -7   74.94    3.75
   6  -1  -6  115.39    4.92
   6  -1  -5   73.52    3.46
   6  -1  -4  129.61    5.12
   6  -1  -3  194.79    7.16
   6  -1  -2  434.01   14.94
  -6   1   2  440.41   14.71
   6  -1  -1  140.06    5.21
  -6   1   1  136.52    5.07
  -6   1   1  136.39    4.96
   6  -1   0   17.88    1.48
  -6   1   0   14.00    1.10
  -6   1   0   17.03    1.46
   6  -1   1  141.33    5.32
  -6   1  -1  144.78    4.99
  -6   1  -1  142.01    5.28
   6  -1   2  411.91   14.22
  -6   1  -2  419.45   14.18
  -6   1  -2  423.43   13.81
  -6   1  -3  190.96    6.87
  -6   1  -3  185.48    6.39
   6  -1   4   97.39    4.46
  -6   1  -4  128.61    4.77
  -6   1  -4  131.32    4.25
   6  -1   5   74.00    3.18
  -6   1  -5   70.25    3.36
  -6   1  -5   73.14    2.82
   6  -1   6  112.20    4.50
  -6   1  -6  112.42    4.72
  -6   1  -6  111.17    4.12
   6  -1   7   73.77    3.42
  -6   1  -7   75.20    3.69
  -6   1  -7   75.09    3.08
   6  -1   8    0.23    1.11
  -6   1  -8    1.49    1.35
  -6   1  -8    0.72    0.94
   6  -1   9   24.22    2.23
  -6   1  -9   23.76    2.62
  -6   1  -9   24.47    1.90
   6  -1  10   92.10    4.38
  -6   1 -10   86.34    4.53
  -6   1 -10   91.49    3.93
   6  -1  11    8.22    1.73
  -6   1 -11    6.82    1.55
  -6   1 -11    6.13    1.86
   6  -1  12    6.70    1.77
  -6   1 -12    4.60    2.02
   6  -1  13    3.71    1.70
  -6   1 -13    2.58    1.95
   6  -1  14   -0.29    1.48
  -6   1 -14    1.22    1.77
  -6   1 -15   -0.32    1.69
   5   0 -16   -1.18    2.20
   5   0 -15    7.09    2.55
   5   0 -14    3.46    2.32
   5   0 -13    1.16    1.72
   5   0 -12    9.52    2.09
   5   0 -11   53.70    3.92
   5   0 -10    6.82    2.12
   5   0  -9   66.83    3.75
   5   0  -8   12.24    1.99
   5   0  -7    8.84    1.51
   5   0  -6   37.45    2.38
   5   0  -5  253.07    9.17
   5   0  -4    0.14    0.85
   5   0  -3  433.22   14.82
   5   0  -2   43.03    2.22
   5   0  -1  139.12    5.25
  -5   0   1  144.13    5.17
   5   0   0    0.61    0.89
  -5   0   0   -0.45    0.55
  -5   0   0    1.25    0.81
   5   0   1  145.65    5.36
  -5   0  -1  147.41    4.95
  -5   0  -1  140.35    5.28
   5   0   2   40.35    2.11
  -5   0  -2   39.15    2.02
  -5   0  -2   40.60    1.57
   5   0   3  436.21   14.49
  -5   0  -3  415.91   14.41
  -5   0  -3  424.87   13.93
   5   0   4    0.47    0.79
  -5   0  -4    0.16    0.86
  -5   0  -4    0.38    0.47
  -5   0  -5  250.44    8.34
  -5   0  -5  245.30    8.89
  -5   0  -6   37.83    2.47
  -5   0  -6   38.12    1.76
  -5   0  -7    8.53    1.45
  -5   0  -7    8.26    0.96
  -5   0  -8   12.95    1.29
  -5   0  -8   13.20    1.80
  -5   0  -9   62.79    2.90
  -5   0  -9   57.68    3.42
  -5   0 -10    8.76    1.86
  -5   0 -10    4.12    1.22
  -5   0 -11   53.89    3.57
  -5   0 -11   57.83    3.11
  -5   0 -12    6.36    1.83
   5   0  13    1.06    0.98
  -5   0 -13   -0.75    1.55
   5   0  14    2.78    1.55
  -5   0 -14    3.58    2.06
   5   0  15    5.60    1.95
  -5   0 -15    5.13    1.99
  -5   0 -16   -0.23    2.04
   4   1 -16    0.42    1.87
   4   1 -15    2.91    1.96
   4   1 -14    1.07    1.73
   4   1 -13    2.60    2.01
   4   1 -12    5.48    2.11
   4   1 -11   33.97    3.06
   4   1 -10   43.96    3.12
   4   1  -9   53.03    3.24
   4   1  -8   15.68    1.90
   4   1  -7   95.55    4.33
   4   1  -6    6.63    1.24
   4   1  -5  108.22    4.40
   4   1  -4  312.88   10.93
   4   1  -3  370.38   12.75
   4   1  -2  175.69    6.38
   4   1  -1  247.27    8.65
   4   1   0    9.01    1.12
  -4  -1   0    9.45    1.06
   4   1   1  244.12    8.48
  -4  -1  -1  241.16    8.38
   4   1   2  161.26    5.91
  -4  -1  -2  162.18    5.83
   4   1   3  355.36   11.95
  -4  -1  -3  346.51   11.28
  -4  -1  -3  341.91   11.84
   4   1   4  315.26   10.66
  -4  -1  -4  301.06   10.01
  -4  -1  -4  300.59   10.59
   4   1   5   97.80    4.11
  -4  -1  -5  101.57    4.14
  -4  -1  -5  106.04    3.60
   4   1   6    7.86    1.32
  -4  -1  -6    7.46    1.36
  -4  -1  -6    4.36    0.69
   4   1   7   84.10    3.85
  -4  -1  -7   87.82    3.92
  -4  -1  -7   91.11    3.39
   4   1   8   14.75    1.73
  -4  -1  -8   17.63    2.02
  -4  -1  -8   14.49    1.30
   4   1   9   57.51    3.17
  -4  -1  -9   55.84    3.22
  -4  -1  -9   54.16    2.69
   4   1  10   39.55    2.99
  -4  -1 -10   39.59    2.42
  -4  -1 -10   40.39    2.88
   4   1  11   26.40    2.77
  -4  -1 -11   31.95    2.36
  -4  -1 -11   32.15    2.84
   4   1  12    5.59    1.70
  -4  -1 -12    8.11    2.08
   4   1  13    5.20    1.92
  -4  -1 -13    6.43    2.07
   4   1  14    0.66    1.71
  -4  -1 -14   -0.46    1.50
   4   1  15    6.15    2.07
  -4  -1 -15    2.91    2.03
   4   1  16    6.40    2.24
  -4  -1 -16    2.62    2.11
   3   2 -16    4.93    2.36
   3   2 -15    0.27    1.72
   3   2 -14    0.68    1.96
   3   2 -13    2.93    1.73
   3   2 -12    6.43    1.82
   3   2 -11   10.46    2.20
   3   2 -10   33.80    2.85
   3   2  -9   21.23    2.21
   3   2  -8   18.65    1.90
   3   2  -7   36.62    2.31
   3   2  -6    3.36    1.04
   3   2  -5    3.22    0.94
   3   2  -4  150.57    5.62
   3   2  -3  195.19    7.00
   3   2  -2  207.06    7.31
   3   2  -1   22.17    1.49
   3   2   0   40.42    2.03
  -3  -2   0   42.60    1.97
   3   2   1   25.52    1.52
  -3  -2  -1   21.72    1.58
   3   2   2  223.14    7.65
  -3  -2  -2  208.29    7.50
   3   2   3  187.64    6.75
  -3  -2  -3  186.29    6.64
   3   2   4  143.78    5.34
  -3  -2  -4  139.15    5.22
   3   2   5    2.44    0.91
  -3  -2  -5    2.74    0.88
   3   2   6    1.92    0.95
  -3  -2  -6    1.95    0.95
   3   2   7   39.44    2.46
  -3  -2  -7   38.24    2.30
   3   2   8   17.77    1.99
  -3  -2  -8   19.39    1.96
   3   2   9   22.28    2.31
  -3  -2  -9   19.59    2.18
   3   2  10   36.36    3.04
  -3  -2 -10   35.31    2.90
   3   2  11   11.60    1.92
  -3  -2 -11    6.74    1.97
   3   2  12    5.32    1.71
  -3  -2 -12    5.83    1.90
   3   2  13    1.05    1.78
  -3  -2 -13    1.36    1.75
   3   2  14   -1.28    1.42
  -3  -2 -14   -0.37    1.44
   3   2  15    1.82    1.63
  -3  -2 -15    0.21    1.83
   3   2  16    2.11    1.77
  -3  -2 -16   -3.36    1.75
   2   3 -15   -1.44    1.86
   2   3 -14   -1.46    1.49
   2   3 -13    3.71    1.92
   2   3 -12    7.19    1.97
   2   3 -11   11.61    2.15
   2   3 -10   33.51    2.79
   2   3  -9   19.17    2.16
   2   3  -8   20.03    1.89
   2   3  -7   38.48    2.26
   2   3  -6    1.61    0.87
   2   3  -5    2.98    0.86
   2   3  -4  147.10    5.44
   2   3  -3  197.89    7.06
   2   3  -2  234.16    8.19
   2   3  -1   28.45    1.63
   2   3   0   44.00    1.79
   2   3   0   42.46    2.03
   2   3   1   22.81    1.08
   2   3   1   20.78    1.43
  -2  -3  -1   27.58    1.57
   2   3   2  206.18    7.37
   2   3   2  201.17    6.89
  -2  -3  -2  219.46    7.28
   2   3   3  191.79    6.24
   2   3   3  186.81    6.84
  -2  -3  -3  189.47    6.67
   2   3   4  141.51    5.45
  -2  -3  -4  146.05    5.27
   2   3   5    3.27    0.97
  -2  -3  -5    2.71    0.81
   2   3   6    2.06    1.13
  -2  -3  -6    2.27    1.03
   2   3   7   35.22    2.33
  -2  -3  -7   37.76    2.26
   2   3   8   17.06    1.94
  -2  -3  -8   20.84    1.91
   2   3   9   18.52    2.13
  -2  -3  -9   20.16    2.05
   2   3  10   34.30    3.02
  -2  -3 -10   30.95    2.61
   2   3  11   11.09    2.25
  -2  -3 -11   10.51    1.95
   2   3  12    3.02    1.63
  -2  -3 -12    2.80    1.66
   2   3  13    3.03    1.98
  -2  -3 -13    2.12    1.71
   2   3  14    3.14    2.04
  -2  -3 -14    1.55    1.77
   2   3  15    1.81    2.03
  -2  -3 -15   -1.54    1.70
   2   3  16    3.31    1.93
   1   4 -16    5.48    2.29
   1   4 -15    5.82    2.21
   1   4 -14    0.43    1.76
   1   4 -14    0.08    1.75
   1   4 -13    6.48    1.98
   1   4 -12    9.15    2.01
   1   4 -11   33.81    2.91
   1   4 -10   44.43    3.04
   1   4  -9   57.04    3.21
   1   4  -8   15.66    1.74
   1   4  -7   86.37    3.74
   1   4  -6    6.32    1.14
   1   4  -5  105.56    4.16
   1   4  -4  339.34   11.63
   1   4  -3  371.05   12.59
   1   4  -2  159.34    5.73
   1   4  -2  161.74    5.77
   1   4  -1  251.95    8.57
   1   4  -1  251.10    8.67
   1   4   0    8.15    0.82
   1   4   0    9.79    1.01
   1   4   1  245.76    8.28
   1   4   1  248.33    8.57
  -1  -4  -1  245.37    8.41
   1   4   2  163.33    5.52
   1   4   2  163.26    5.85
  -1  -4  -2  153.67    5.64
   1   4   3  343.76   12.08
   1   4   3  357.64   11.57
  -1  -4  -3  349.60   11.81
   1   4   4  302.72   10.61
   1   4   4  294.33   10.02
  -1  -4  -4  309.65   10.29
   1   4   5   98.74    4.09
  -1  -4  -5   94.77    3.76
   1   4   6    5.24    1.18
  -1  -4  -6    5.68    1.05
   1   4   7   82.22    3.93
  -1  -4  -7   86.99    3.62
   1   4   8   14.02    1.88
  -1  -4  -8   14.68    1.50
   1   4   9   59.56    3.42
  -1  -4  -9   54.79    3.06
   1   4  10   38.63    2.94
  -1  -4 -10   37.03    2.48
   1   4  11   29.55    3.06
  -1  -4 -11   26.97    2.50
   1   4  12    7.51    2.18
  -1  -4 -12    4.11    1.63
   1   4  13    9.16    2.37
  -1  -4 -13    2.27    1.60
   1   4  14    0.69    1.97
  -1  -4 -14   -1.56    1.50
   1   4  15    4.02    2.02
   1   4  16   10.37    2.67
   0   5 -16    1.97    2.42
   0   5 -15    4.62    2.21
   0   5 -14   -1.07    2.08
   0   5 -13   -0.85    1.48
   0   5 -13    0.56    1.72
   0   5 -12    6.29    1.73
   0   5 -12    9.03    2.11
   0   5 -11   54.07    3.67
   0   5 -11   54.04    3.31
   0   5 -10    3.06    1.68
   0   5 -10    5.43    1.64
   0   5  -9   63.24    3.68
   0   5  -9   66.38    3.31
   0   5  -8   13.92    1.56
   0   5  -7    8.78    1.24
   0   5  -7    6.52    1.48
   0   5  -6   38.26    2.38
   0   5  -6   38.23    2.14
   0   5  -5  268.31    9.62
   0   5  -5  269.20    9.36
   0   5  -4    0.76    0.91
   0   5  -4    0.95    0.72
   0   5  -3  445.02   15.10
   0   5  -3  447.14   14.97
   0   5  -2   41.13    1.91
   0   5  -2   43.65    2.10
   0   5  -1  142.61    5.23
   0   5  -1  148.14    5.25
   0   5   0    0.40    0.66
   0   5   0    0.20    0.42
   0   5   1  142.22    5.28
   0   5   1  147.65    5.18
   0   5   2   40.93    1.86
   0   5   2   38.21    2.00
   0  -5  -2   38.99    1.83
   0   5   3  428.86   14.18
   0   5   3  425.94   14.63
   0  -5  -3  428.13   14.25
   0   5   4    0.83    0.54
   0   5   4    1.11    0.84
   0  -5  -4    1.01    0.66
   0   5   5  249.72    8.45
   0   5   5  250.71    9.02
   0  -5  -5  242.11    8.52
   0   5   6   37.45    2.37
   0   5   6   34.39    1.72
   0  -5  -6   36.20    1.90
   0   5   7    9.78    1.57
   0  -5  -7    7.74    1.14
   0   5   8   10.80    1.76
   0  -5  -8   10.71    1.38
   0   5   9   65.28    3.66
   0  -5  -9   59.42    3.09
   0   5  10    5.73    1.76
   0  -5 -10    8.64    1.55
   0   5  11   54.23    3.90
   0  -5 -11   51.23    3.20
   0   5  12    7.98    2.05
   0  -5 -12    8.21    1.68
   0   5  13    1.89    1.69
   0  -5 -13   -0.87    1.53
   0   5  14    1.19    1.99
   0   5  15    3.23    2.31
   0   5  16    1.66    1.98
  -1   6 -15   -0.56    1.84
  -1   6 -14    4.20    2.08
  -1   6 -13    1.96    1.85
  -1   6 -12    5.18    1.93
  -1   6 -12    2.61    1.59
  -1   6 -11    8.38    2.37
  -1   6 -11    8.03    1.71
  -1   6 -10   99.10    4.48
  -1   6 -10  100.06    4.98
  -1   6  -9   21.87    2.48
  -1   6  -9   23.90    2.05
  -1   6  -8    1.74    1.12
  -1   6  -8    0.19    1.38
  -1   6  -7   75.94    3.74
  -1   6  -7   75.84    3.30
  -1   6  -6  120.51    4.60
  -1   6  -6  119.98    5.02
  -1   6  -5   79.76    3.17
  -1   6  -5   80.13    3.62
  -1   6  -4  129.78    4.66
  -1   6  -4  123.33    4.93
  -1   6  -3  198.27    7.32
  -1   6  -3  209.13    7.11
  -1   6  -2  448.53   15.17
  -1   6  -2  450.07   15.03
  -1   6  -1  138.11    5.16
  -1   6  -1  141.89    5.05
  -1   6   0   16.20    1.27
  -1   6   0   16.17    1.30
  -1   6   1  142.57    5.26
  -1   6   2  419.51   14.10
  -1   6   2  418.31   14.28
  -1   6   3  191.79    6.95
  -1   6   3  184.88    6.66
   1  -6  -3  190.53    6.51
  -1   6   4  132.67    5.13
  -1   6   4  131.75    4.70
   1  -6  -4  123.27    4.61
  -1   6   5   71.24    2.92
  -1   6   5   66.07    3.36
   1  -6  -5   77.28    2.92
  -1   6   6  107.91    4.10
  -1   6   6  103.36    4.60
   1  -6  -6  107.71    4.05
  -1   6   7   69.36    3.62
  -1   6   7   72.21    3.05
   1  -6  -7   70.38    3.03
  -1   6   8    1.51    1.38
   1  -6  -8    1.20    1.03
  -1   6   9   22.08    2.45
   1  -6  -9   20.71    1.84
  -1   6  10   98.23    4.99
   1  -6 -10   95.85    4.29
  -1   6  11    8.67    2.07
   1  -6 -11    7.46    1.55
  -1   6  12    3.37    1.86
   1  -6 -12    5.08    1.50
  -1   6  13    0.92    1.97
  -1   6  14    1.19    2.05
  -1   6  15    2.14    2.23
  -2   7 -15    1.82    2.06
  -2   7 -14    4.23    2.08
  -2   7 -13    0.66    1.81
  -2   7 -12    3.32    1.83
  -2   7 -11    3.55    1.85
  -2   7 -11    4.06    1.46
  -2   7 -10   19.82    1.98
  -2   7 -10   20.31    2.50
  -2   7  -9   17.91    1.75
  -2   7  -9   15.64    2.23
  -2   7  -8   24.55    1.82
  -2   7  -8   24.21    2.40
  -2   7  -7    4.93    1.09
  -2   7  -7    1.37    1.37
  -2   7  -6   16.60    1.30
  -2   7  -6   15.15    1.79
  -2   7  -5   15.96    1.70
  -2   7  -5   15.15    1.21
  -2   7  -4    7.81    0.92
  -2   7  -4    6.90    1.25
  -2   7  -3   34.70    1.66
  -2   7  -3   35.76    2.08
  -2   7  -2   48.74    2.10
  -2   7  -2   48.91    2.44
  -2   7  -1   51.22    2.40
  -2   7  -1   45.85    2.13
  -2   7   0  264.94    9.21
  -2   7   0  262.46    9.09
  -2   7   1   48.11    2.28
  -2   7   1   45.49    2.33
  -2   7   2   40.29    2.18
  -2   7   3   36.07    1.96
  -2   7   3   38.70    2.11
  -2   7   4    7.22    1.23
  -2   7   4    6.82    0.95
   2  -7  -4    5.99    0.79
  -2   7   5   13.17    1.26
  -2   7   5   14.45    1.66
   2  -7  -5   14.14    1.09
  -2   7   6   13.92    1.75
  -2   7   6   16.06    1.36
   2  -7  -6   15.93    1.22
  -2   7   7    3.33    1.01
  -2   7   7    2.00    1.28
   2  -7  -7    3.09    0.89
  -2   7   8   23.05    1.88
  -2   7   8   23.24    2.41
   2  -7  -8   21.24    1.63
  -2   7   9   17.27    2.30
   2  -7  -9   15.88    1.56
  -2   7  10   10.77    2.19
   2  -7 -10   17.10    1.73
  -2   7  11    4.53    1.91
   2  -7 -11    2.42    1.32
  -2   7  12    0.78    1.74
  -2   7  13    1.57    1.81
  -2   7  14    2.21    1.91
  -2   7  15    0.45    1.87
  -3   8 -15    1.74    2.09
  -3   8 -14    0.45    2.25
  -3   8 -13   18.39    2.95
  -3   8 -12    6.04    2.07
  -3   8 -11   10.36    2.20
  -3   8 -10   -0.97    1.63
  -3   8  -9   28.36    2.03
  -3   8  -9   25.95    2.67
  -3   8  -8   56.86    3.42
  -3   8  -8   52.97    2.59
  -3   8  -7  111.87    4.99
  -3   8  -7  108.93    4.20
  -3   8  -6    1.37    1.27
  -3   8  -6    1.12    0.79
  -3   8  -5  174.91    6.22
  -3   8  -5  182.37    6.90
  -3   8  -4   62.65    2.52
  -3   8  -4   66.71    3.21
  -3   8  -3   69.97    3.27
  -3   8  -3   71.27    2.73
  -3   8  -2   19.80    1.66
  -3   8  -2   20.53    1.25
  -3   8  -1  166.85    5.93
  -3   8  -1  166.70    6.23
  -3   8   0  273.13    9.34
  -3   8   0  265.57    9.53
  -3   8   1  158.06    5.88
  -3   8   1  160.79    6.02
  -3   8   2   20.41    1.52
  -3   8   2   21.07    1.64
  -3   8   3   77.65    3.47
  -3   8   3   73.26    3.30
  -3   8   5  177.09    6.85
   3  -8  -5  169.52    5.95
  -3   8   6   -0.71    1.07
  -3   8   6   -0.13    0.75
   3  -8  -6    1.37    0.71
  -3   8   7   98.40    4.76
  -3   8   7  106.51    4.35
   3  -8  -7  101.41    3.86
  -3   8   8   57.39    2.92
  -3   8   8   47.17    3.27
   3  -8  -8   50.14    2.47
  -3   8   9   26.25    2.77
   3  -8  -9   23.57    1.77
  -3   8  10   -0.69    1.62
  -3   8  11   10.96    2.32
  -3   8  12    3.63    2.18
  -3   8  13   24.48    3.14
  -3   8  14    2.27    1.98
  -3   8  15    4.16    2.44
  -4   9 -15    6.79    2.48
  -4   9 -14    2.70    2.11
  -4   9 -13   16.52    2.69
  -4   9 -12    1.20    1.82
  -4   9 -11    2.78    1.83
  -4   9 -10    3.31    1.84
  -4   9  -9   17.11    2.36
  -4   9  -8   17.56    1.47
  -4   9  -8   16.06    2.30
  -4   9  -7  155.03    6.61
  -4   9  -7  164.14    5.73
  -4   9  -6   97.81    3.65
  -4   9  -6   97.55    4.56
  -4   9  -5   72.08    3.59
  -4   9  -5   70.15    2.71
  -4   9  -4   23.49    1.26
  -4   9  -4   23.58    2.09
  -4   9  -3   26.37    1.99
  -4   9  -3   23.12    1.28
  -4   9  -2   43.11    1.91
  -4   9  -2   42.10    2.31
  -4   9  -1  194.87    7.21
  -4   9  -1  191.99    6.82
  -4   9   0   61.04    2.99
  -4   9   0   57.02    2.59
  -4   9   1  192.12    7.20
  -4   9   1  190.39    6.94
  -4   9   2   47.79    2.73
  -4   9   2   42.80    2.44
  -4   9   3   25.71    1.94
  -4   9   3   22.22    1.76
  -4   9   4   24.59    1.96
  -4   9   4   23.62    1.92
  -4   9   5   67.45    3.16
  -4   9   5   66.79    3.44
  -4   9   6   90.83    4.36
   4  -9  -6   90.07    3.32
  -4   9   7  149.30    6.39
   4  -9  -7  148.66    5.25
  -4   9   8   10.90    2.02
  -4   9   8    6.99    1.29
   4  -9  -8   14.22    1.21
  -4   9   9   16.54    1.96
  -4   9   9   17.44    2.44
  -4   9  10    2.23    1.85
  -4   9  11    0.41    2.04
  -4   9  12    2.27    1.84
  -4   9  13   17.35    2.84
  -4   9  14    6.37    2.37
  -4   9  15    3.12    2.22
  -5  10 -14   17.58    2.91
  -5  10 -13   -2.00    1.82
  -5  10 -12    7.68    2.56
  -5  10 -11    8.10    2.18
  -5  10 -10    4.30    1.99
  -5  10  -9   20.22    2.63
  -5  10  -8   86.57    4.59
  -5  10  -7   15.52    2.25
  -5  10  -6  303.82   10.35
  -5  10  -6  320.10   11.47
  -5  10  -5   56.66    3.24
  -5  10  -5   51.94    2.06
  -5  10  -4   -0.35    1.19
  -5  10  -4   -0.52    0.52
  -5  10  -3   91.38    4.12
  -5  10  -3   89.35    3.36
  -5  10  -2  140.16    5.69
  -5  10  -2  147.51    5.21
  -5  10  -1   55.05    2.50
  -5  10  -1   58.83    3.07
  -5  10   0  274.96    9.96
  -5  10   0  272.28    9.58
  -5  10   1   56.38    2.74
  -5  10   1   56.14    3.07
  -5  10   2  147.63    5.93
  -5  10   2  145.35    5.67
  -5  10   3   90.77    4.16
  -5  10   3   90.67    4.01
  -5  10   4    0.15    1.03
  -5  10   4    1.39    1.10
  -5  10   5   56.24    3.13
  -5  10   5   53.76    3.15
  -5  10   6  291.32   11.20
  -5  10   6  310.18   10.96
  -5  10   7   12.34    1.68
  -5  10   7   10.61    2.18
  -5  10   8   82.37    4.44
  -5  10   8   75.42    3.81
  -5  10   9   13.88    2.33
  -5  10   9    6.03    1.15
  -5  10  10    4.48    1.95
  -5  10  11    5.59    2.04
  -5  10  12    5.55    2.39
  -5  10  13    0.37    1.92
  -5  10  14   17.89    3.01
  -5  10  15    0.75    2.10
  -6  11 -14    4.17    2.28
  -6  11 -13   14.06    2.81
  -6  11 -12    2.43    2.03
  -6  11 -11   -2.46    1.72
  -6  11 -10    2.75    1.90
  -6  11  -9    1.48    2.18
  -6  11  -8    7.64    2.08
  -6  11  -7   93.98    4.80
  -6  11  -6   21.43    2.42
  -6  11  -5   24.79    2.41
  -6  11  -5   20.80    0.99
  -6  11  -4    6.22    1.62
  -6  11  -4    9.95    0.80
  -6  11  -3    1.33    1.32
  -6  11  -3    1.67    0.70
  -6  11  -2   23.61    1.46
  -6  11  -2   23.30    2.17
  -6  11  -1   92.23    4.32
  -6  11  -1   93.79    3.72
  -6  11   0   23.23    1.67
  -6  11   0   27.10    2.33
  -6  11   1   97.81    4.12
  -6  11   1   98.42    4.52
  -6  11   2   19.31    2.05
  -6  11   2   17.33    1.68
  -6  11   3    2.67    1.16
  -6  11   3    4.02    1.38
  -6  11   4   10.52    1.62
  -6  11   4    7.58    1.56
  -6  11   5   26.17    2.54
  -6  11   5   21.76    2.21
  -6  11   6   27.52    2.58
  -6  11   6   25.66    2.58
  -6  11   7   97.59    4.71
  -6  11   7   93.21    4.87
  -6  11   8    7.92    1.65
  -6  11   8    5.75    1.95
  -6  11   9    1.82    1.53
  -6  11   9    1.33    1.77
  -6  11  10    0.20    1.94
  -6  11  10    0.39    1.21
  -6  11  11   -1.01    1.66
  -6  11  12    0.44    1.78
  -6  11  13   11.17    2.65
  -6  11  14    1.34    2.08
  -7  12 -14    3.78    2.62
  -7  12 -13    0.79    2.10
  -7  12 -12    4.09    2.22
  -7  12 -11    6.04    2.21
  -7  12 -10    7.98    2.23
  -7  12  -9   13.47    2.43
  -7  12  -8    6.94    2.09
  -7  12  -7   16.22    2.40
  -7  12  -6   10.55    2.06
  -7  12  -5   20.30    2.40
  -7  12  -4    4.71    0.67
  -7  12  -4    6.17    1.74
  -7  12  -3   61.47    2.52
  -7  12  -3   59.19    3.26
  -7  12  -2    0.05    0.77
  -7  12  -2   -1.23    1.36
  -7  12  -1   83.65    3.49
  -7  12  -1   81.78    4.17
  -7  12   0   53.62    3.07
  -7  12   0   54.18    2.74
  -7  12   1   82.24    4.16
  -7  12   1   78.96    3.65
  -7  12   2    0.08    1.19
  -7  12   2    1.18    1.49
  -7  12   3   57.93    3.57
  -7  12   3   66.40    3.48
  -7  12   4    6.09    1.51
  -7  12   4    6.75    1.68
  -7  12   5   20.71    2.32
  -7  12   5   20.03    2.54
  -7  12   6   13.16    2.01
  -7  12   6    9.36    2.19
  -7  12   7   19.34    2.32
  -7  12   7   17.44    2.41
  -7  12   8   11.65    2.30
  -7  12   8    7.01    1.80
  -7  12   9   12.43    2.51
  -7  12   9   13.39    2.06
  -7  12  10    6.66    1.91
  -7  12  10    8.15    2.11
  -7  12  11    4.86    2.04
  -7  12  11    6.17    1.87
  -7  12  12    5.79    2.21
  -7  12  13    1.67    2.41
  -7  12  14    0.77    2.15
  -8  13 -13    5.10    2.73
  -8  13 -12    3.31    2.19
  -8  13 -11    6.75    2.28
  -8  13 -10   15.59    2.58
  -8  13  -9    4.10    1.96
  -8  13  -8    0.61    1.82
  -8  13  -7   18.33    2.52
  -8  13  -6    5.08    1.96
  -8  13  -5   23.71    2.59
  -8  13  -4   46.64    3.29
  -8  13  -3   27.05    1.60
  -8  13  -3   27.17    2.67
  -8  13  -2   20.19    1.54
  -8  13  -2   18.05    2.32
  -8  13  -1   29.79    2.73
  -8  13  -1   25.18    1.87
  -8  13   0   11.48    2.05
  -8  13   0   12.02    1.54
  -8  13   1   27.38    2.22
  -8  13   1   29.26    2.76
  -8  13   2   17.58    2.34
  -8  13   2   23.04    2.14
  -8  13   3   30.69    2.65
  -8  13   3   27.86    2.82
  -8  13   4   49.04    3.38
  -8  13   4   45.95    3.31
  -8  13   5   21.15    2.53
  -8  13   5   23.96    2.53
  -8  13   6    5.66    1.76
  -8  13   6    1.99    2.01
  -8  13   7   20.52    2.54
  -8  13   7   20.16    2.65
  -8  13   8    0.37    1.67
  -8  13   8    4.98    1.71
  -8  13   9    2.74    1.79
  -8  13   9    5.07    1.66
  -8  13  10   16.92    2.54
  -8  13  10   16.09    2.66
  -8  13  11    8.50    2.35
  -8  13  11    6.68    1.85
  -8  13  12   -1.74    1.74
  -8  13  13    1.27    2.03
  -9  14 -13    1.41    2.21
  -9  14 -12    6.99    2.42
  -9  14 -11    2.33    2.44
  -9  14 -10   17.65    3.01
  -9  14  -9    1.02    1.93
  -9  14  -8    9.25    2.19
  -9  14  -7    8.14    2.13
  -9  14  -6   24.28    2.78
  -9  14  -5    1.70    1.79
  -9  14  -4   48.35    3.51
  -9  14  -3   30.27    2.94
  -9  14  -2   68.05    2.95
  -9  14  -2   55.88    3.52
  -9  14  -1   13.53    1.55
  -9  14  -1   11.57    2.22
  -9  14   0   12.61    1.92
  -9  14   0   12.93    1.62
  -9  14   1    8.55    2.07
  -9  14   1   13.67    1.80
  -9  14   2   78.98    4.25
  -9  14   2   61.46    3.65
  -9  14   3   34.19    3.19
  -9  14   3   31.55    2.87
  -9  14   4   55.10    4.03
  -9  14   4   55.75    3.49
  -9  14   5    3.83    1.83
  -9  14   5    6.25    2.04
  -9  14   6   21.26    2.72
  -9  14   6   23.67    2.69
  -9  14   7   11.80    2.22
  -9  14   7   13.32    2.34
  -9  14   8    7.51    1.95
  -9  14   8    9.29    2.42
  -9  14   9    3.71    1.94
  -9  14   9    1.16    1.79
  -9  14  10   17.31    2.83
  -9  14  10   18.16    2.65
  -9  14  11    1.13    1.89
  -9  14  11    3.95    2.13
  -9  14  12    8.08    2.43
  -9  14  12    7.42    2.16
  -9  14  13    2.81    2.25
 -10  15 -12    3.56    2.62
 -10  15 -11    6.87    2.42
 -10  15 -10    2.74    2.10
 -10  15  -9   15.04    2.62
 -10  15  -8    2.05    1.88
 -10  15  -7    2.52    1.91
 -10  15  -6    7.14    1.79
 -10  15  -5   18.41    2.65
 -10  15  -4    1.51    1.86
 -10  15  -3   47.22    3.63
 -10  15  -2   -0.65    1.82
 -10  15  -1   11.31    2.30
 -10  15  -1    9.86    1.50
 -10  15   0   49.09    3.63
 -10  15   0   48.91    2.96
 -10  15   1   11.19    1.86
 -10  15   1   12.01    2.35
 -10  15   2   -1.82    1.39
 -10  15   2    0.33    1.85
 -10  15   3   45.26    3.65
 -10  15   3   53.05    3.46
 -10  15   4   -0.21    1.45
 -10  15   4    1.34    1.85
 -10  15   5   16.94    2.35
 -10  15   5   16.18    2.77
 -10  15   6    7.75    2.00
 -10  15   6    5.06    2.00
 -10  15   7    0.66    1.67
 -10  15   7   -0.18    1.90
 -10  15   8    5.89    2.22
 -10  15   8    1.01    1.76
 -10  15   9    9.49    2.34
 -10  15   9   10.54    2.31
 -10  15  10    2.53    2.07
 -10  15  10   -0.62    2.07
 -10  15  11   12.11    2.63
 -10  15  11    5.60    2.30
 -10  15  12    2.24    2.10
 -10  15  12   -1.15    1.89
 -11  16 -11    0.87    2.51
 -11  16 -10   10.52    2.62
 -11  16  -9    2.16    2.02
 -11  16  -8    0.31    2.26
 -11  16  -7    2.01    1.95
 -11  16  -6    1.29    1.92
 -11  16  -5    0.64    1.88
 -11  16  -4   13.28    2.13
 -11  16  -3    4.06    2.08
 -11  16  -2    7.24    2.20
 -11  16  -1   -0.99    1.80
 -11  16   0    1.26    1.94
 -11  16   0    2.94    1.45
 -11  16   1    0.81    1.58
 -11  16   1   -0.16    1.87
 -11  16   2    6.28    1.84
 -11  16   2    5.99    2.20
 -11  16   3    8.97    1.86
 -11  16   3    7.13    2.23
 -11  16   4   19.60    2.96
 -11  16   4   14.06    2.18
 -11  16   5    4.42    1.98
 -11  16   5    4.27    1.92
 -11  16   6    0.26    2.01
 -11  16   6    1.69    1.67
 -11  16   7    0.82    2.01
 -11  16   7   -1.59    1.63
 -11  16   8    2.98    1.84
 -11  16   8    2.33    1.89
 -11  16   9    3.65    2.28
 -11  16   9    1.09    1.91
 -11  16  10   11.32    2.66
 -11  16  10    9.48    2.60
 -11  16  11   -0.87    1.91
 -11  16  11    1.97    2.06
 -12  17 -11    1.40    2.24
 -12  17 -10   -1.04    1.99
 -12  17  -9    5.44    2.33
 -12  17  -8    2.56    2.11
 -12  17  -7   -0.35    1.90
 -12  17  -6    1.66    1.94
 -12  17  -5   -1.92    1.74
 -12  17  -4    1.13    1.88
 -12  17  -3   13.50    2.45
 -12  17  -2    0.12    1.37
 -12  17  -1    9.05    2.20
 -12  17   0    8.21    2.23
 -12  17   1    8.32    1.86
 -12  17   1    4.49    2.08
 -12  17   2    1.64    1.61
 -12  17   2    1.84    1.95
 -12  17   3   14.05    2.51
 -12  17   3   14.35    2.32
 -12  17   4    0.62    1.46
 -12  17   4    0.80    1.78
 -12  17   5    1.11    1.92
 -12  17   5    0.42    1.82
 -12  17   6    2.13    1.80
 -12  17   6    1.07    1.90
 -12  17   7    1.06    1.92
 -12  17   7   -1.00    1.75
 -12  17   8   10.25    2.63
 -12  17   8    0.76    2.35
 -12  17   9    4.97    2.19
 -12  17   9    8.60    2.36
 -12  17  10    0.55    2.00
 -12  17  10    3.27    2.03
 -12  17  11    6.76    2.38
 -13  18 -10    1.76    2.30
 -13  18  -9    2.22    2.27
 -13  18  -8    1.30    2.15
 -13  18  -7    8.01    2.42
 -13  18  -6    3.64    2.24
 -13  18  -5    2.13    2.05
 -13  18  -4    9.89    2.39
 -13  18  -3    7.49    2.18
 -13  18  -2    7.06    2.17
 -13  18  -1    2.01    1.90
 -13  18   0   12.75    2.44
 -13  18   1   -1.11    1.87
 -13  18   2   12.04    2.47
 -13  18   2    8.19    1.96
 -13  18   3    5.07    1.90
 -13  18   3    5.50    2.09
 -13  18   4   11.34    2.43
 -13  18   4   11.11    2.18
 -13  18   5   -0.57    1.89
 -13  18   5    0.71    1.92
 -13  18   6    5.41    2.15
 -13  18   6    2.79    1.87
 -13  18   7    3.64    2.19
 -13  18   7    5.59    2.19
 -13  18   8    5.17    2.16
 -13  18   8    3.41    2.13
 -13  18   9    0.11    2.33
 -13  18   9    1.59    2.41
 -13  18  10    4.73    2.42
 -14  19  -8    2.08    2.23
 -14  19  -7    1.46    2.47
 -14  19  -6    1.28    2.49
 -14  19  -5    8.06    2.47
 -14  19  -4   15.32    2.78
 -14  19  -3    1.58    1.99
 -14  19  -2    2.04    2.00
 -14  19  -1   11.26    2.50
 -14  19   0    2.86    1.95
 -14  19   1    6.50    2.31
 -14  19   2    2.36    2.03
 -14  19   3    5.97    2.07
 -14  19   3    5.69    2.16
 -14  19   4   10.27    2.49
 -14  19   4   11.38    2.51
 -14  19   5    7.57    2.41
 -14  19   5    8.97    2.45
 -14  19   6    2.98    1.97
 -14  19   6   -0.16    1.96
 -14  19   7    4.28    2.28
 -14  19   7    1.99    2.44
 -14  19   8   -0.35    1.96
 -14  19   8   -0.42    2.28
 -15  20  -7    1.54    2.23
 -15  20  -6    4.50    2.30
 -15  20  -5    0.55    2.01
 -15  20  -4   -0.29    1.96
 -15  20  -3   10.10    2.46
 -15  20  -2    1.34    2.03
 -15  20  -1   -1.53    1.91
 -15  20   0    0.11    1.89
 -15  20   1   -2.08    1.85
 -15  20   2    0.19    2.05
 -15  20   3   11.71    2.66
 -15  20   4    0.36    1.92
 -15  20   4    0.53    1.95
 -15  20   5   -2.61    1.85
 -15  20   5    2.58    2.20
 -15  20   6   -0.02    2.25
 -15  20   6    3.69    2.26
 -15  20   7   -1.84    2.34
 -15  20   7   -1.00    2.25
 -16  21  -5    0.66    2.06
 -16  21  -4    0.81    2.06
 -16  21  -3    2.04    2.15
 -16  21  -2    2.52    2.14
 -16  21  -1    1.31    2.01
 -16  21   0   -1.63    1.89
 -16  21   1   -1.19    1.97
 -16  21   2    0.33    1.93
 -16  21   3    0.37    1.95
 -16  21   4    1.75    2.11
 -16  21   5    0.60    2.08
 -16  21   5   -2.24    1.86
 -17  22  -2    1.43    2.14
 -17  22  -1    0.97    2.16
 -17  22   0    2.34    2.17
 -17  22   1    0.59    2.07
 -17  22   2    1.67    2.06
 -22  16   3   -1.02    1.85
 -22  16   2    0.27    2.25
 -22  16   1    2.16    1.89
 -22  16   0   -0.65    1.81
 -22  16  -1    2.91    1.96
 -22  16  -2    2.24    1.92
 -22  16  -3    1.79    1.85
  21 -15  -6   -0.81    1.92
 -21  15   6   -0.74    1.97
  21 -15  -5    1.20    2.27
 -21  15   5   -0.69    1.86
  21 -15  -4    3.89    2.20
 -21  15   4    3.03    2.02
  21 -15  -3   -0.60    0.86
 -21  15   3    0.91    1.87
 -21  15   2   -0.42    1.79
 -21  15   1    1.38    1.88
 -21  15   0    6.48    2.12
 -21  15  -1    1.85    1.81
 -21  15  -2   -1.72    1.61
 -21  15  -3   -1.18    0.68
 -21  15  -3    1.82    2.19
 -21  15  -4    3.80    1.97
 -21  15  -4    3.13    2.05
 -21  15  -5   -1.58    1.65
 -21  15  -5   -0.25    1.69
 -21  15  -6    2.59    1.80
 -21  15  -6    1.64    2.10
  20 -14  -7   -1.26    2.26
 -20  14   7   -0.65    1.73
  20 -14  -6    2.53    2.34
 -20  14   6    1.71    2.11
  20 -14  -5    0.25    1.82
 -20  14   5    1.55    1.88
  20 -14  -4    6.54    2.37
 -20  14   4    3.14    1.96
  20 -14  -3    0.90    1.72
 -20  14   3    7.40    2.13
  20 -14  -2    5.78    2.12
 -20  14   2    8.91    2.26
 -20  14   1    4.59    2.00
 -20  14   0    1.73    1.78
 -20  14  -1    2.21    1.80
 -20  14  -2    1.06    1.79
 -20  14  -2    8.32    2.07
 -20  14  -3    5.36    2.00
 -20  14  -3    2.88    1.82
 -20  14  -4    6.38    2.11
 -20  14  -4    8.62    2.04
 -20  14  -5   -1.02    1.94
 -20  14  -5    1.80    1.74
 -20  14  -6   -0.01    2.08
 -20  14  -6    0.07    2.02
 -20  14  -7    0.73    2.17
 -20  14  -7    5.22    2.26
  19 -13  -9    4.60    2.66
 -19  13   9    5.91    2.31
  19 -13  -8    1.48    2.10
 -19  13   8    1.31    1.91
  19 -13  -7   -0.57    1.79
 -19  13   7    1.43    1.94
  19 -13  -6    5.16    2.05
 -19  13   6    3.48    2.02
  19 -13  -5    2.23    2.14
 -19  13   5    3.39    1.86
  19 -13  -4    0.74    1.74
 -19  13   4    0.22    1.73
  19 -13  -3   12.00    2.44
 -19  13   3   14.06    2.45
  19 -13  -2   -0.17    1.15
 -19  13   2    0.32    2.01
  19 -13  -1    1.22    1.79
 -19  13   1   -0.86    1.56
  19 -13   0    6.56    1.89
 -19  13   0    4.82    1.84
 -19  13  -1    0.34    1.65
 -19  13  -1    0.98    1.81
 -19  13  -2    1.63    1.74
 -19  13  -2   -1.05    1.07
 -19  13  -3    6.88    2.06
 -19  13  -3   15.13    2.36
 -19  13  -4    0.38    1.92
 -19  13  -4   -0.97    1.82
 -19  13  -5    4.21    2.13
 -19  13  -5    3.80    2.13
 -19  13  -6    8.69    2.16
 -19  13  -6    1.71    2.03
 -19  13  -7    0.53    1.77
 -19  13  -7    0.33    1.59
 -19  13  -8    1.28    1.85
 -19  13  -8    0.92    1.91
 -19  13  -9    3.07    2.22
  18 -12 -10    2.46    2.39
 -18  12  10    1.52    2.07
  18 -12  -9   -0.82    2.03
 -18  12   9    0.71    1.90
  18 -12  -8   -1.03    1.85
 -18  12   8    0.52    1.80
  18 -12  -7    3.66    2.06
 -18  12   7    6.17    2.18
  18 -12  -6    3.32    2.19
 -18  12   6   -0.06    1.71
  18 -12  -5    3.96    1.86
 -18  12   5    1.11    1.72
  18 -12  -4   11.83    2.39
 -18  12   4    6.58    2.05
  18 -12  -3    0.24    1.82
 -18  12   3    5.68    1.93
  18 -12  -2    0.18    1.11
 -18  12   2   -0.95    1.49
  18 -12  -1    5.72    1.90
 -18  12   1    7.97    1.89
 -18  12   1    7.83    2.03
  18 -12   0   -2.08    1.41
 -18  12   0    0.29    1.54
 -18  12   0    0.23    1.50
  18 -12   1    5.36    1.84
 -18  12  -1    4.25    1.73
 -18  12  -1    4.88    1.88
 -18  12  -2   -0.13    1.45
 -18  12  -2   -0.83    0.98
 -18  12  -3    2.28    1.61
 -18  12  -3    3.59    1.84
 -18  12  -4    8.89    1.97
 -18  12  -4    7.47    1.80
 -18  12  -5    4.27    2.06
 -18  12  -5    2.15    1.98
 -18  12  -6    4.05    1.79
 -18  12  -6    3.16    1.79
 -18  12  -7    4.62    2.01
 -18  12  -7    4.02    1.97
 -18  12  -8    2.15    1.86
 -18  12  -8   -2.40    1.58
 -18  12  -9    0.47    2.22
 -18  12 -10   -0.33    2.25
  17 -11 -11    4.15    2.39
  17 -11 -10   -0.80    2.49
  17 -11  -9    1.11    2.11
 -17  11   9   -0.15    1.83
  17 -11  -8    1.46    2.05
 -17  11   8    2.56    1.92
  17 -11  -7    1.99    1.93
 -17  11   7    4.28    1.97
  17 -11  -6    5.55    2.32
 -17  11   6    3.11    1.84
  17 -11  -5    2.43    1.70
 -17  11   5    0.00    1.64
  17 -11  -4    1.32    1.88
 -17  11   4    3.85    1.74
  17 -11  -3    6.95    2.07
 -17  11   3    6.86    1.92
  17 -11  -2   -0.95    1.62
 -17  11   2    0.22    1.60
 -17  11   2    0.37    1.55
  17 -11  -1   -0.51    1.50
 -17  11   1    0.03    1.60
 -17  11   1    0.92    1.47
  17 -11   0    2.51    1.63
 -17  11   0   -0.26    1.84
 -17  11   0    0.73    1.73
  17 -11   1    0.25    1.59
 -17  11  -1   -0.59    1.80
 -17  11  -1   -2.71    1.38
  17 -11   2    0.27    1.56
 -17  11  -2   -0.01    1.57
 -17  11  -2   -0.90    1.42
 -17  11  -3    6.37    1.94
 -17  11  -3    5.82    1.73
 -17  11  -4    3.44    1.94
 -17  11  -4    3.42    1.62
 -17  11  -5   -3.42    1.58
 -17  11  -5   -1.11    1.71
 -17  11  -6    6.90    2.00
 -17  11  -6    1.18    1.70
 -17  11  -7    5.92    2.01
 -17  11  -7    4.48    1.88
 -17  11  -8    1.83    1.78
 -17  11  -8    0.04    1.79
 -17  11  -9    2.50    2.22
 -17  11 -10   -1.85    2.13
 -17  11 -11   -0.67    1.98
  16 -10 -11   -1.98    2.05
  16 -10 -10    5.53    2.37
  16 -10  -9    6.91    2.67
 -16  10   9    2.58    1.83
  16 -10  -8    0.82    1.85
 -16  10   8   -0.04    1.67
  16 -10  -7    7.84    2.17
 -16  10   7    8.81    2.11
  16 -10  -6    1.83    1.71
 -16  10   6    2.06    1.68
  16 -10  -5    2.92    2.01
 -16  10   5    1.79    1.67
  16 -10  -4    2.70    1.65
 -16  10   4    3.84    1.78
  16 -10  -3   14.46    2.43
 -16  10   3   15.61    2.33
 -16  10   3   17.92    2.13
  16 -10  -2   18.86    2.28
 -16  10   2   18.05    2.36
 -16  10   2   21.54    2.27
  16 -10  -1    3.37    1.02
 -16  10   1    8.35    1.89
 -16  10   1   13.23    2.10
  16 -10   0   -2.36    1.47
 -16  10   0    1.52    1.58
 -16  10   0   -1.82    1.47
  16 -10   1   12.52    2.00
 -16  10  -1    9.51    1.96
  16 -10   2   24.86    2.49
 -16  10  -2   22.73    2.43
 -16  10  -2   19.75    2.38
  16 -10   3   13.66    2.04
 -16  10  -3   18.41    2.22
 -16  10  -3   16.85    2.20
 -16  10  -4    2.18    1.54
 -16  10  -4    5.82    1.82
 -16  10  -5    2.56    1.84
 -16  10  -5    3.81    1.98
 -16  10  -6    4.72    1.65
 -16  10  -6    0.71    1.57
 -16  10  -7    5.03    1.88
 -16  10  -7    7.99    2.00
 -16  10  -8   -2.17    1.59
 -16  10  -8    1.11    1.67
 -16  10  -9    1.16    2.18
 -16  10  -9    2.90    1.83
 -16  10 -10    4.96    2.12
 -16  10 -11   -0.36    1.86
  15  -9 -12   -3.03    1.94
  15  -9 -11    2.31    2.21
  15  -9 -10    8.18    2.40
  15  -9  -9    8.74    2.35
 -15   9   9    5.33    2.00
  15  -9  -8   -0.38    1.77
 -15   9   8   -0.32    1.54
  15  -9  -7    8.37    2.43
 -15   9   7    5.98    1.92
  15  -9  -6    1.23    1.75
 -15   9   6    0.31    1.60
  15  -9  -5   12.70    2.18
 -15   9   5    8.93    2.06
  15  -9  -4   17.53    2.50
 -15   9   4   14.99    2.25
  15  -9  -3   11.54    2.20
 -15   9   3    8.42    1.76
 -15   9   3    8.84    1.92
  15  -9  -2   29.48    2.78
 -15   9   2   27.59    2.53
 -15   9   2   27.83    2.70
  15  -9  -1   10.42    1.66
 -15   9   1   19.94    2.20
 -15   9   1   19.62    2.30
  15  -9   0   36.30    2.82
 -15   9   0   40.98    2.84
 -15   9   0   31.60    2.76
  15  -9   1   19.72    2.23
 -15   9  -1   17.56    2.15
  15  -9   2   33.34    2.68
 -15   9  -2   30.79    2.57
 -15   9  -2   26.36    2.54
  15  -9   3    9.18    1.83
 -15   9  -3    9.21    1.84
 -15   9  -3    9.73    2.07
  15  -9   4   16.28    2.06
 -15   9  -4   20.15    2.54
 -15   9  -4   14.45    2.21
 -15   9  -5    9.95    2.02
 -15   9  -5   10.30    2.04
 -15   9  -6    1.22    1.66
 -15   9  -6    1.91    1.66
 -15   9  -7    8.03    1.87
 -15   9  -7    8.64    2.26
 -15   9  -8    0.31    2.01
 -15   9  -8    3.15    1.75
 -15   9  -9    3.93    1.95
 -15   9  -9    4.55    1.82
 -15   9 -10    8.93    2.35
 -15   9 -11   -1.27    1.82
 -15   9 -12    0.16    1.86
  14  -8 -13    3.06    2.37
  14  -8 -12    0.93    2.05
  14  -8 -11    9.03    2.79
  14  -8 -10    0.65    1.97
  14  -8  -9    7.17    2.14
  14  -8  -8    5.04    2.09
 -14   8   8    5.97    1.87
  14  -8  -7    4.17    1.90
 -14   8   7    2.80    1.79
  14  -8  -6    5.31    1.98
 -14   8   6    4.16    1.82
  14  -8  -5   31.53    3.13
 -14   8   5   28.54    2.63
  14  -8  -4    1.87    1.54
 -14   8   4    2.50    1.59
  14  -8  -3   96.46    4.74
 -14   8   3   90.43    4.53
 -14   8   3   89.64    4.25
  14  -8  -2   -0.07    1.35
 -14   8   2    0.67    1.48
 -14   8   2    0.68    1.40
  14  -8  -1   21.27    2.35
 -14   8   1   21.98    2.17
 -14   8   1   25.22    2.52
  14  -8   0   68.44    3.54
 -14   8   0   68.59    3.53
 -14   8   0   57.42    3.37
  14  -8   1   23.17    2.25
 -14   8  -1   24.08    2.28
 -14   8  -1   19.75    2.13
  14  -8   2    2.17    1.38
 -14   8  -2    1.80    1.59
 -14   8  -2    3.42    1.60
  14  -8   3   84.61    4.30
 -14   8  -3   91.98    4.39
 -14   8  -3   94.86    4.56
  14  -8   4    3.57    1.50
 -14   8  -4    2.24    1.82
 -14   8  -4    4.10    1.71
  14  -8   5   28.49    2.28
 -14   8  -5   28.85    2.75
 -14   8  -5   27.76    2.45
 -14   8  -6    3.52    1.71
 -14   8  -6    6.46    1.92
 -14   8  -7    5.19    1.72
 -14   8  -7    3.48    1.85
 -14   8  -8    5.84    1.94
 -14   8  -8    7.83    1.82
 -14   8  -9   10.68    2.24
 -14   8  -9    8.96    1.87
 -14   8 -10   -0.98    1.67
 -14   8 -11   10.32    2.67
 -14   8 -12    6.09    2.23
 -14   8 -13    0.96    2.05
  13  -7 -13    4.02    2.37
  13  -7 -12    2.92    2.26
  13  -7 -11    2.33    2.46
  13  -7 -10    3.86    2.08
  13  -7  -9    2.77    2.23
  13  -7  -8    7.89    2.12
 -13   7   8    7.88    1.97
  13  -7  -7   10.21    2.27
 -13   7   7   10.89    2.09
  13  -7  -6    0.78    1.64
 -13   7   6    0.08    1.47
  13  -7  -5   -0.13    1.76
 -13   7   5    1.38    1.52
  13  -7  -4   57.37    3.59
 -13   7   4   52.40    3.32
  13  -7  -3   26.00    2.45
 -13   7   3   24.99    2.21
 -13   7   3   27.94    2.47
  13  -7  -2    1.19    1.49
 -13   7   2    0.12    1.34
 -13   7   2    3.94    1.41
  13  -7  -1    7.27    1.71
 -13   7   1    8.63    1.62
 -13   7   1   10.19    1.62
  13  -7   0    0.17    0.52
 -13   7   0    3.71    1.28
 -13   7   0    0.31    0.45
  13  -7   1    9.30    1.67
 -13   7  -1    8.34    1.43
 -13   7  -1    7.47    1.65
  13  -7   2   -1.79    1.20
 -13   7  -2    0.78    1.17
 -13   7  -2    2.45    1.26
  13  -7   3   28.56    2.44
 -13   7  -3   25.77    2.36
 -13   7  -3   29.48    2.40
  13  -7   4   51.43    3.03
 -13   7  -4   52.80    2.99
 -13   7  -4   60.36    3.57
  13  -7   5   -0.39    1.06
 -13   7  -5    3.37    1.47
 -13   7  -5    0.13    1.45
  13  -7   6    1.76    1.14
 -13   7  -6    0.11    1.43
 -13   7  -6    1.57    1.56
 -13   7  -7    9.92    1.84
 -13   7  -7    9.03    2.09
 -13   7  -8    4.69    1.66
 -13   7  -8    4.24    1.93
 -13   7  -9    2.40    2.03
 -13   7  -9    5.11    1.63
 -13   7 -10    0.10    1.77
 -13   7 -11    3.13    2.23
 -13   7 -12    0.98    1.89
 -13   7 -13    1.84    1.99
  12  -6 -14    3.82    2.80
  12  -6 -13    1.55    2.20
  12  -6 -12    1.88    2.15
  12  -6 -11    0.17    1.88
  12  -6 -10    9.29    2.30
  12  -6  -9    6.35    2.15
  12  -6  -8    4.29    2.00
  12  -6  -7    8.26    2.10
 -12   6   7    7.64    1.82
  12  -6  -6   36.37    3.11
 -12   6   6   36.86    2.89
  12  -6  -5   21.49    2.41
 -12   6   5   24.31    2.38
  12  -6  -4   33.54    2.62
 -12   6   4   35.05    2.61
  12  -6  -3   19.09    2.18
 -12   6   3   14.65    1.86
 -12   6   3   16.30    1.79
  12  -6  -2    4.72    1.34
 -12   6   2    5.23    1.33
 -12   6   2    5.56    1.34
  12  -6  -1   76.55    3.75
 -12   6   1   83.67    3.72
 -12   6   1   79.77    3.74
  12  -6   0    8.14    1.32
 -12   6   0   17.37    1.68
 -12   6   0   11.59    1.54
  12  -6   1   87.03    3.86
 -12   6  -1   77.52    3.77
 -12   6  -1   77.16    3.72
  12  -6   2    4.68    1.36
 -12   6  -2    5.37    1.22
 -12   6  -2    2.19    1.20
 -12   6  -3   18.55    1.86
 -12   6  -3   16.22    1.91
  12  -6   4   28.25    2.25
 -12   6  -4   33.73    2.53
 -12   6  -4   32.65    2.34
  12  -6   5   26.93    2.18
 -12   6  -5   24.85    2.44
 -12   6  -5   27.50    2.26
  12  -6   6   42.59    2.46
 -12   6  -6   37.98    2.96
 -12   6  -6   33.96    2.52
  12  -6   7    6.95    1.33
 -12   6  -7    9.53    1.70
 -12   6  -7    4.69    1.85
 -12   6  -8    1.83    1.75
 -12   6  -8    3.06    1.52
 -12   6  -9    2.74    1.77
 -12   6  -9    6.09    1.64
 -12   6 -10    5.16    2.01
 -12   6 -11    1.18    1.83
 -12   6 -12   -0.61    1.85
 -12   6 -13    0.63    2.27
 -12   6 -14    0.38    2.31
  11  -5 -14    2.65    2.29
  11  -5 -13   11.36    2.73
  11  -5 -12    1.71    2.42
  11  -5 -11   -1.55    1.72
  11  -5 -10    0.70    2.11
  11  -5  -9    0.69    1.86
  11  -5  -8    5.21    2.20
  11  -5  -7   89.78    4.74
  11  -5  -6   23.33    2.48
 -11   5   6   25.37    2.42
  11  -5  -5   23.99    2.38
 -11   5   5   19.63    2.13
  11  -5  -4    9.67    1.66
 -11   5   4   11.26    1.65
  11  -5  -3    3.28    1.29
 -11   5   3    2.03    1.11
 -11   5   3    1.52    1.02
  11  -5  -2   26.10    2.24
 -11   5   2   23.49    1.92
 -11   5   2   20.79    1.90
  11  -5  -1  101.44    4.44
 -11   5   1   97.23    4.20
  11  -5   0   27.16    1.94
 -11   5   0   26.91    2.07
 -11   5   0   23.41    1.82
  11  -5   1   69.17    3.69
 -11   5  -1   90.99    3.82
 -11   5  -1  101.00    3.86
  11  -5   2   22.47    2.03
 -11   5  -2   21.71    1.79
 -11   5  -2   22.09    1.92
  11  -5   3    1.56    1.14
 -11   5  -3    1.15    1.08
 -11   5  -3    2.20    1.20
  11  -5   4    7.90    1.44
 -11   5  -4    8.49    1.59
 -11   5  -4    9.87    1.45
  11  -5   5   21.99    1.91
 -11   5  -5   21.26    1.90
 -11   5  -5   22.24    2.22
  11  -5   6   26.01    1.99
 -11   5  -6   25.15    2.49
 -11   5  -6   25.06    2.11
  11  -5   7   85.46    3.87
 -11   5  -7   88.45    3.92
 -11   5  -7   87.22    4.55
  11  -5   8    7.90    1.47
 -11   5  -8    6.92    1.67
 -11   5  -8    4.64    2.06
 -11   5  -9    2.40    1.48
 -11   5  -9    0.68    1.67
 -11   5 -10   -0.01    1.66
 -11   5 -11   -0.55    1.65
 -11   5 -12   -1.51    2.09
 -11   5 -13   12.38    2.53
 -11   5 -14    3.39    2.10
  10  -4 -14    1.04    2.11
  10  -4 -13   15.72    2.91
  10  -4 -12    3.95    2.17
  10  -4 -11    3.91    1.97
  10  -4 -10    1.24    1.79
  10  -4  -9   15.39    2.50
  10  -4  -8   22.84    2.64
  10  -4  -7  125.11    5.90
  10  -4  -6   44.99    3.10
 -10   4   6   44.30    2.88
  10  -4  -5   64.08    3.49
 -10   4   5   63.34    3.33
  10  -4  -4    3.07    1.43
 -10   4   4    3.53    1.18
  10  -4  -3   30.72    2.21
 -10   4   3   26.11    2.00
  10  -4  -2    8.56    1.40
 -10   4   2    9.18    1.31
 -10   4   2    7.42    1.24
  10  -4  -1  159.34    6.19
 -10   4   1  159.02    6.01
  10  -4   0   77.92    3.56
 -10   4   0   83.47    3.65
 -10   4   0   82.75    3.54
 -10   4  -1  159.16    6.03
 -10   4  -1  157.12    5.85
  10  -4   2   10.27    1.44
 -10   4  -2    6.75    1.13
 -10   4  -2    9.60    1.38
  10  -4   3   24.27    1.93
 -10   4  -3   31.69    1.88
 -10   4  -3   30.07    2.13
  10  -4   4    2.84    1.16
 -10   4  -4    2.83    1.25
 -10   4  -4    0.88    0.93
  10  -4   5   68.62    3.20
 -10   4  -5   66.58    3.54
 -10   4  -5   68.64    3.08
  10  -4   6   46.12    2.55
 -10   4  -6   41.91    2.97
 -10   4  -6   44.19    2.51
  10  -4   7  123.09    5.07
 -10   4  -7  122.62    5.71
 -10   4  -7  122.91    4.97
  10  -4   8   23.94    2.08
 -10   4  -8   18.98    2.38
 -10   4  -8   23.31    2.03
  10  -4   9    9.41    1.60
 -10   4  -9   13.61    1.81
 -10   4  -9   12.55    2.24
  10  -4  10   -0.50    1.15
 -10   4 -10   -0.28    1.60
 -10   4 -10    2.03    1.42
 -10   4 -11    4.05    1.86
 -10   4 -12    1.53    1.84
 -10   4 -13   12.93    2.51
 -10   4 -14    4.14    2.10
   9  -3 -15   -0.45    2.50
   9  -3 -14   10.10    2.61
   9  -3 -13    1.61    2.03
   9  -3 -12    4.92    2.14
   9  -3 -11    3.11    1.94
   9  -3 -10    0.94    1.81
   9  -3  -9    0.84    1.74
   9  -3  -8   43.84    3.48
   9  -3  -7    7.70    1.85
   9  -3  -6  153.47    6.40
   9  -3  -5   36.91    2.54
  -9   3   5   34.46    2.34
   9  -3  -4    5.10    1.32
  -9   3   4    4.64    1.20
   9  -3  -3    1.55    1.10
  -9   3   3    2.31    0.99
   9  -3  -2    5.95    1.26
  -9   3   2    5.28    1.07
   9  -3  -1    6.85    1.23
  -9   3   1    6.52    1.22
  -9   3   1    6.55    1.04
   9  -3   0  246.68    8.96
  -9   3   0  249.44    8.73
  -9   3   0  250.77    8.87
   9  -3   1    5.84    1.09
  -9   3  -1    4.09    1.08
  -9   3  -1    4.77    0.83
   9  -3   2    2.10    0.69
  -9   3  -2    4.42    1.26
  -9   3  -2    6.06    0.91
   9  -3   3    3.13    1.08
  -9   3  -3    1.11    1.23
  -9   3  -3    1.77    0.81
   9  -3   4    4.47    1.05
  -9   3  -4    4.75    0.92
  -9   3  -4    5.99    1.35
   9  -3   5   39.19    2.30
  -9   3  -5   36.24    2.51
  -9   3  -5   37.40    2.05
   9  -3   6  146.60    5.60
  -9   3  -6  142.12    5.88
  -9   3  -6  132.97    5.23
   9  -3   7    7.57    1.42
  -9   3  -7    4.44    1.66
  -9   3  -7    5.87    1.25
   9  -3   8   42.55    2.69
  -9   3  -8   39.11    2.40
  -9   3  -8   45.44    3.39
   9  -3   9    0.43    1.25
  -9   3  -9    0.85    1.68
  -9   3  -9   -0.29    1.19
   9  -3  10    0.28    1.20
  -9   3 -10   -0.08    1.27
  -9   3 -10   -0.80    1.62
   9  -3  11    1.49    1.39
  -9   3 -11    5.54    1.92
  -9   3 -12    2.65    1.90
  -9   3 -13   -1.10    1.69
  -9   3 -14    7.41    2.21
  -9   3 -15   -1.25    2.13
   8  -2 -15    0.55    2.06
   8  -2 -14    1.79    2.37
   8  -2 -13    5.43    2.48
   8  -2 -12    3.08    1.92
   8  -2 -11   -1.79    2.05
   8  -2 -10   -2.75    1.61
   8  -2  -9   12.33    2.20
   8  -2  -8   -0.29    1.49
   8  -2  -7   41.09    2.94
   8  -2  -6   50.15    3.02
   8  -2  -5    4.47    1.31
   8  -2  -4   30.14    2.17
   8  -2  -3    5.52    1.24
  -8   2   3    4.01    1.01
   8  -2  -2    8.21    1.44
  -8   2   2    8.07    1.17
  -8   2   2    9.54    1.11
   8  -2  -1   35.79    2.15
  -8   2   1   38.01    2.00
  -8   2   1   39.64    2.14
   8  -2   0   17.25    1.55
  -8   2   0   13.65    1.16
  -8   2   0   15.70    1.50
   8  -2   1   38.88    2.18
  -8   2  -1   34.50    1.75
  -8   2  -1   33.62    2.02
   8  -2   2    7.98    1.19
  -8   2  -2    7.94    0.87
  -8   2  -2    8.57    1.32
   8  -2   3    3.25    0.82
  -8   2  -3    3.40    0.80
  -8   2  -3    3.37    1.10
   8  -2   4   33.36    2.07
  -8   2  -4   33.30    1.73
  -8   2  -4   35.96    2.30
   8  -2   5    4.73    1.07
  -8   2  -5    3.06    0.87
  -8   2  -5    1.58    1.15
   8  -2   6   50.18    2.67
  -8   2  -6   49.24    2.94
  -8   2  -6   52.69    2.41
   8  -2   7   44.68    2.54
  -8   2  -7   40.94    2.14
  -8   2  -7   37.39    3.03
   8  -2   8    0.79    1.15
  -8   2  -8    0.80    1.45
  -8   2  -8    0.55    1.03
   8  -2   9   14.31    1.86
  -8   2  -9   14.55    1.57
  -8   2  -9   14.29    2.40
   8  -2  10    0.52    1.48
  -8   2 -10    0.00    1.96
  -8   2 -10   -0.77    1.17
   8  -2  11    1.14    1.32
  -8   2 -11    0.79    1.71
   8  -2  12    0.28    1.49
  -8   2 -12   -0.47    1.90
  -8   2 -13    4.56    1.91
  -8   2 -14    3.84    2.20
  -8   2 -15    2.07    1.89
   7  -1 -15    1.12    2.06
   7  -1 -14    5.17    2.44
   7  -1 -13   -0.19    1.78
   7  -1 -12    1.01    2.11
   7  -1 -11    9.38    2.17
   7  -1 -10    3.24    2.11
   7  -1  -9   36.39    3.27
   7  -1  -8   12.11    2.01
   7  -1  -7   43.82    2.88
   7  -1  -6    4.43    1.35
   7  -1  -5  107.94    4.63
   7  -1  -4   39.52    2.41
   7  -1  -3  152.95    5.92
   7  -1  -2    3.68    1.06
  -7   1   2    3.00    0.79
   7  -1  -1   62.91    2.83
  -7   1   1   61.09    2.62
  -7   1   1   57.10    2.70
   7  -1   0   93.74    3.88
  -7   1   0   94.13    3.55
  -7   1   0   91.15    3.76
   7  -1   1   57.28    2.77
  -7   1  -1   59.02    2.75
  -7   1  -1   63.10    2.42
   7  -1   2    4.66    1.08
  -7   1  -2    2.13    0.93
  -7   1  -2    2.18    0.59
   7  -1   3  123.49    5.24
  -7   1  -3  143.33    5.33
  -7   1  -3  145.18    4.82
  -7   1  -4   39.01    1.73
  -7   1  -4   37.43    2.31
   7  -1   5   92.01    4.11
  -7   1  -5  107.43    3.78
  -7   1  -5  107.47    4.43
   7  -1   6    3.66    1.09
  -7   1  -6    4.53    1.31
  -7   1  -6    3.85    0.84
   7  -1   7   46.64    2.64
  -7   1  -7   42.97    2.13
  -7   1  -7   46.13    2.87
   7  -1   8   13.75    1.73
  -7   1  -8   12.33    1.94
  -7   1  -8    9.16    1.17
   7  -1   9   35.91    2.62
  -7   1  -9   35.13    3.01
  -7   1  -9   31.45    2.06
   7  -1  10    3.86    1.68
  -7   1 -10   -0.40    1.24
  -7   1 -10    2.87    1.98
   7  -1  11   10.38    1.88
  -7   1 -11   10.43    2.09
   7  -1  12    2.54    1.49
  -7   1 -12   -0.22    1.86
   7  -1  13    3.45    1.70
  -7   1 -13   -0.18    1.67
  -7   1 -14   -1.56    1.58
  -7   1 -15    1.95    2.17
   6   0 -15   -0.13    1.94
   6   0 -14   -0.23    2.08
   6   0 -13    2.13    2.12
   6   0 -12   -0.57    1.58
   6   0 -11   14.76    2.61
   6   0 -10   58.63    3.77
   6   0  -9   33.07    2.84
   6   0  -8   12.43    1.91
   6   0  -7    5.73    1.50
   6   0  -6   80.04    3.78
   6   0  -5   77.00    3.57
   6   0  -4   79.26    3.58
   6   0  -3  136.51    5.33
   6   0  -2  176.00    6.55
   6   0  -1   47.74    2.47
  -6   0   1   51.55    2.47
   6   0   0  143.15    5.38
  -6   0   0  141.50    5.01
  -6   0   0  138.70    5.28
   6   0   1   55.55    2.61
  -6   0  -1   52.32    2.11
  -6   0  -1   52.72    2.51
   6   0   2  175.87    6.54
  -6   0  -2  174.63    6.45
  -6   0  -2  179.14    5.98
   6   0   3  124.13    4.85
  -6   0  -3  124.65    4.25
  -6   0  -3  124.25    4.82
   6   0   4   80.29    3.40
  -6   0  -4   76.18    2.81
  -6   0  -4   81.68    3.51
   6   0   5   81.21    3.55
  -6   0  -5   79.33    2.94
  -6   0  -5   80.00    3.63
  -6   0  -6   73.26    2.79
  -6   0  -6   72.26    3.48
   6   0   7    1.23    0.74
  -6   0  -7    5.88    0.88
  -6   0  -7    4.53    1.37
  -6   0  -8   10.29    1.20
  -6   0  -8   10.62    1.75
  -6   0  -9   29.15    2.62
  -6   0  -9   28.92    1.95
  -6   0 -10   55.35    3.54
  -6   0 -10   59.02    2.87
  -6   0 -11   14.60    2.41
   6   0  12    0.11    1.08
  -6   0 -12    0.25    1.76
   6   0  13    3.69    1.70
  -6   0 -13    3.06    1.70
   6   0  14    1.03    1.72
  -6   0 -14    1.93    2.03
  -6   0 -15    2.34    2.08
   5   1 -15    4.75    2.40
   5   1 -14    1.71    1.85
   5   1 -13    3.70    1.93
   5   1 -12    7.92    2.26
   5   1 -11    6.58    2.21
   5   1 -10   93.32    4.76
   5   1  -9   19.16    2.25
   5   1  -8   -0.60    1.25
   5   1  -7   77.36    3.86
   5   1  -6  112.41    4.73
   5   1  -5   83.06    3.73
   5   1  -4  122.24    4.88
   5   1  -3  197.48    7.24
   5   1  -2  433.05   14.80
   5   1  -1  150.32    5.59
  -5  -1   1  144.12    5.44
   5   1   0   13.63    1.36
  -5  -1   0   16.54    1.37
   5   1   1  137.07    5.18
  -5  -1  -1  135.25    5.09
   5   1   2  446.27   15.03
  -5  -1  -2  433.55   14.88
   5   1   3  193.32    7.06
  -5  -1  -3  199.82    6.35
  -5  -1  -3  186.57    6.97
   5   1   4  122.71    4.76
  -5  -1  -4  121.19    4.04
  -5  -1  -4  120.50    4.72
   5   1   5   70.12    3.32
  -5  -1  -5   79.88    3.58
  -5  -1  -5   77.35    2.70
   5   1   6  107.64    4.59
  -5  -1  -6  114.63    3.96
  -5  -1  -6  110.56    4.63
   5   1   7   68.77    3.51
  -5  -1  -7   73.12    3.63
  -5  -1  -7   72.56    2.81
   5   1   8   -0.36    1.03
  -5  -1  -8    0.17    0.78
  -5  -1  -8    0.21    1.24
   5   1   9   26.09    2.43
  -5  -1  -9   21.72    2.25
  -5  -1  -9   19.24    1.58
   5   1  10   85.93    4.47
  -5  -1 -10   99.09    4.81
  -5  -1 -10   93.59    3.91
   5   1  11    6.89    1.92
  -5  -1 -11    4.58    1.74
   5   1  12    5.84    1.81
  -5  -1 -12    5.37    1.72
   5   1  13    3.25    1.83
  -5  -1 -13    2.43    1.67
   5   1  14    1.76    1.86
  -5  -1 -14    3.90    1.85
   5   1  15    0.97    1.65
  -5  -1 -15   -1.24    1.91
   4   2 -16   -0.77    2.20
   4   2 -15   -0.64    2.08
   4   2 -14    3.46    2.15
   4   2 -13   -0.66    1.86
   4   2 -12    2.25    1.94
   4   2 -11   27.55    2.93
   4   2 -10   15.86    2.39
   4   2  -9   26.24    2.46
   4   2  -8    0.64    1.44
   4   2  -7    7.00    1.38
   4   2  -6  158.05    6.19
   4   2  -5   17.70    1.74
   4   2  -4   10.40    1.28
   4   2  -3  252.05    8.98
   4   2  -2  266.43    9.37
   4   2  -1   15.51    1.43
   4   2   0   -0.65    0.86
  -4  -2   0    0.83    0.84
   4   2   1   13.85    1.37
  -4  -2  -1   15.41    1.34
   4   2   2  295.79    9.84
  -4  -2  -2  264.67    9.65
   4   2   3  258.64    8.96
  -4  -2  -3  244.69    8.79
   4   2   4   11.41    1.25
  -4  -2  -4    7.15    1.10
   4   2   5   19.89    1.64
  -4  -2  -5   15.58    1.59
  -4  -2  -5   14.90    0.76
   4   2   6  144.50    5.85
  -4  -2  -6  151.81    5.80
  -4  -2  -6  151.39    5.13
   4   2   7    9.02    1.42
  -4  -2  -7    7.18    0.85
  -4  -2  -7    8.60    1.38
   4   2   8    1.22    1.37
  -4  -2  -8    2.01    1.22
  -4  -2  -8    1.39    0.79
   4   2   9   27.56    2.56
  -4  -2  -9   23.37    1.66
  -4  -2  -9   22.37    2.35
   4   2  10   14.12    2.07
  -4  -2 -10   15.38    2.05
  -4  -2 -10   20.39    1.70
   4   2  11   23.88    2.71
  -4  -2 -11   24.74    2.70
   4   2  12    2.41    1.70
  -4  -2 -12    1.84    1.72
   4   2  13    0.62    1.45
  -4  -2 -13    0.95    1.50
   4   2  14    7.54    2.11
  -4  -2 -14    1.31    1.63
   4   2  15    0.43    1.89
  -4  -2 -15    2.28    1.95
   4   2  16   -0.01    1.93
  -4  -2 -16   -0.38    1.91
   3   3 -16    0.54    1.77
   3   3 -15    1.38    2.06
   3   3 -14    8.19    2.29
   3   3 -13    7.69    1.96
   3   3 -12    5.83    2.00
   3   3 -11   27.44    2.81
   3   3 -10    0.84    1.68
   3   3  -9   23.77    2.39
   3   3  -8   20.06    2.06
   3   3  -7   63.15    3.12
   3   3  -6  192.75    7.20
   3   3  -5   87.06    3.71
   3   3  -4  168.34    6.25
   3   3  -3  153.40    5.72
   3   3  -2    0.28    1.01
   3   3  -1  406.50   13.85
   3   3   0    2.83    0.97
   3   3   1  392.42   12.91
   3   3   1  406.03   13.45
  -3  -3  -1  380.52   13.25
   3   3   2    0.16    0.36
   3   3   2    0.51    0.83
  -3  -3  -2    0.70    0.80
   3   3   3  149.52    5.67
  -3  -3  -3  152.62    5.55
   3   3   4  167.38    6.23
  -3  -3  -4  162.38    6.02
   3   3   5   80.71    3.55
  -3  -3  -5   78.29    3.41
   3   3   6  196.68    7.43
  -3  -3  -6  195.39    7.22
   3   3   7   60.62    3.20
  -3  -3  -7   63.88    3.16
   3   3   8   20.07    2.09
  -3  -3  -8   20.48    1.89
   3   3   9   20.75    2.27
  -3  -3  -9   23.01    2.24
   3   3  10    0.99    1.71
  -3  -3 -10    0.65    1.57
   3   3  11   27.70    2.79
  -3  -3 -11   27.51    2.68
   3   3  12    7.60    1.87
  -3  -3 -12    4.38    1.80
   3   3  13    7.76    1.98
  -3  -3 -13    7.47    1.98
   3   3  14    4.07    2.19
  -3  -3 -14    5.02    2.03
   3   3  15    2.78    2.06
  -3  -3 -15    1.15    1.82
   3   3  16    0.42    2.00
  -3  -3 -16    3.83    2.03
   2   4 -16    2.07    2.10
   2   4 -15   -0.73    1.85
   2   4 -15    1.17    1.99
   2   4 -14    5.70    2.05
   2   4 -13    1.28    1.80
   2   4 -12    0.28    1.64
   2   4 -11   28.88    2.74
   2   4 -10   19.05    2.07
   2   4  -9   25.37    2.31
   2   4  -8    2.70    1.34
   2   4  -7   10.20    1.48
   2   4  -6  157.99    6.05
   2   4  -5   21.32    1.58
   2   4  -4   15.67    1.46
   2   4  -3  256.46    8.99
   2   4  -2  296.00   10.24
   2   4  -1    9.69    0.93
   2   4  -1   11.82    1.19
   2   4   0   -0.27    0.58
   2   4   0    0.61    0.95
   2   4   1   13.19    1.23
   2   4   1   12.33    0.93
  -2  -4  -1   12.23    1.16
   2   4   2  267.33    9.03
   2   4   2  263.42    9.48
  -2  -4  -2  281.29    9.32
   2   4   3  245.14    8.09
   2   4   3  240.49    8.72
  -2  -4  -3  248.61    8.52
   2   4   4    9.44    1.26
   2   4   4    9.67    0.62
  -2  -4  -4   11.33    1.12
   2   4   5   16.97    1.65
  -2  -4  -5   19.45    1.52
   2   4   6  143.20    5.79
  -2  -4  -6  145.24    5.48
   2   4   7    7.70    1.47
  -2  -4  -7    9.83    1.40
   2   4   8    3.33    1.34
  -2  -4  -8    0.69    1.24
   2   4   9   23.25    2.47
  -2  -4  -9   22.00    2.12
   2   4  10   15.73    2.25
  -2  -4 -10   15.66    2.05
   2   4  11   23.93    2.71
  -2  -4 -11   25.39    2.46
   2   4  12    0.90    1.75
  -2  -4 -12    1.25    1.57
   2   4  13    2.82    1.70
  -2  -4 -13    1.43    1.39
   2   4  14    5.18    2.21
  -2  -4 -14    4.54    1.82
   2   4  15    0.63    1.99
  -2  -4 -15    1.51    1.78
   2   4  16    0.85    1.82
   1   5 -15    2.53    2.37
   1   5 -14    2.36    1.97
   1   5 -14    2.41    1.78
   1   5 -13    2.95    1.73
   1   5 -13    2.63    1.88
   1   5 -12    5.54    1.74
   1   5 -11    6.53    1.73
   1   5 -10   97.08    4.55
   1   5  -9   29.73    2.49
   1   5  -8    0.59    1.19
   1   5  -7   77.20    3.51
   1   5  -6  116.02    4.63
   1   5  -5   76.28    3.28
   1   5  -4  139.81    5.25
   1   5  -4  141.23    5.38
   1   5  -3  194.99    7.06
   1   5  -3  194.40    6.96
   1   5  -2  459.43   15.27
   1   5  -2  443.10   15.19
   1   5  -1  142.79    5.20
   1   5  -1  137.68    5.08
   1   5   0   13.42    1.23
   1   5   0   14.81    1.13
   1   5   1  138.56    5.19
   1   5   1  139.87    4.94
   1   5   2  429.54   14.10
   1   5   2  417.23   14.46
  -1  -5  -2  424.11   14.21
   1   5   3  193.09    6.49
   1   5   3  190.19    6.95
  -1  -5  -3  185.02    6.66
   1   5   4  118.39    4.93
   1   5   4  125.44    4.38
  -1  -5  -4  130.98    4.68
   1   5   5   75.62    2.77
   1   5   5   76.24    3.46
  -1  -5  -5   67.32    3.06
   1   5   6  110.22    4.73
  -1  -5  -6  103.53    4.17
   1   5   7   71.19    3.66
  -1  -5  -7   74.13    3.25
   1   5   8    1.12    1.32
  -1  -5  -8   -0.18    1.09
   1   5   9   22.66    2.58
  -1  -5  -9   22.52    2.10
   1   5  10   92.24    5.01
  -1  -5 -10   98.51    4.43
   1   5  11    9.61    2.04
  -1  -5 -11    6.72    1.78
   1   5  12    3.78    1.99
  -1  -5 -12    3.62    1.63
   1   5  13    0.41    1.89
  -1  -5 -13    3.38    1.63
   1   5  14    0.92    2.12
  -1  -5 -14    1.90    1.70
   1   5  15    1.42    1.89
   0   6 -15    4.43    2.16
   0   6 -14    0.82    1.86
   0   6 -13    0.14    1.80
   0   6 -12    0.80    1.50
   0   6 -12   -1.08    1.65
   0   6 -11    7.41    2.12
   0   6 -11   10.37    1.89
   0   6 -10   60.05    3.36
   0   6 -10   61.20    3.86
   0   6  -9   29.80    2.77
   0   6  -9   28.98    2.31
   0   6  -8   10.77    1.54
   0   6  -8    8.53    1.85
   0   6  -7    4.26    1.46
   0   6  -7    7.53    1.29
   0   6  -6   85.55    3.58
   0   6  -6   85.59    3.99
   0   6  -5   85.25    3.45
   0   6  -5   78.35    3.70
   0   6  -4   84.63    3.39
   0   6  -4   82.38    3.57
   0   6  -3  127.29    4.98
   0   6  -3  130.13    4.80
   0   6  -2  176.07    6.30
   0   6  -2  176.35    6.41
   0   6  -1   50.44    2.31
   0   6  -1   53.90    2.38
   0   6   0  137.05    5.12
   0   6   1   49.95    2.39
   0   6   1   53.88    2.35
   0   6   2  175.94    6.22
   0   6   2  172.68    6.40
   0   6   3  123.95    4.99
   0   6   3  126.78    4.63
   0  -6  -3  127.44    4.62
   0   6   4   80.75    3.55
   0   6   4   80.10    3.07
   0  -6  -4   78.36    3.17
   0   6   5   72.08    3.52
   0   6   5   78.82    2.99
   0  -6  -5   76.45    3.12
   0   6   6   78.75    3.13
   0   6   6   78.75    3.78
   0  -6  -6   79.47    3.29
   0   6   7    4.67    1.43
   0  -6  -7    3.83    1.08
   0   6   8   12.01    1.88
   0  -6  -8    8.47    1.40
   0   6   9   28.64    2.74
   0  -6  -9   26.77    2.09
   0   6  10   59.06    3.73
   0  -6 -10   56.33    3.24
   0   6  11   12.73    2.43
   0  -6 -11   11.50    1.88
   0   6  12    1.55    1.97
   0  -6 -12    1.24    1.42
   0   6  13    2.24    1.81
   0  -6 -13    1.40    1.52
   0   6  14    1.04    1.82
   0   6  15    0.26    1.82
  -1   7 -15    3.38    2.12
  -1   7 -14    0.27    1.84
  -1   7 -13    3.65    2.00
  -1   7 -12    3.35    1.89
  -1   7 -11    8.74    1.76
  -1   7 -11   11.30    2.25
  -1   7 -10    3.59    1.52
  -1   7 -10    4.56    1.92
  -1   7  -9   34.21    2.40
  -1   7  -9   33.49    2.95
  -1   7  -8   11.48    1.98
  -1   7  -8    9.55    1.50
  -1   7  -7   47.99    2.43
  -1   7  -7   46.85    2.97
  -1   7  -6    2.48    0.99
  -1   7  -6    3.97    1.34
  -1   7  -5  125.56    4.78
  -1   7  -5  127.95    5.23
  -1   7  -4   36.90    1.96
  -1   7  -4   39.05    2.33
  -1   7  -3  143.57    5.62
  -1   7  -3  150.05    5.34
  -1   7  -2    3.25    0.79
  -1   7  -2    3.49    0.97
  -1   7  -1   60.26    2.62
  -1   7  -1   62.68    2.85
  -1   7   0   95.42    3.75
  -1   7   0   89.72    3.62
  -1   7   2    1.94    0.98
  -1   7   2    2.17    0.79
  -1   7   3  141.11    5.52
  -1   7   3  144.77    5.32
  -1   7   4   38.14    2.29
  -1   7   4   37.32    1.91
   1  -7  -4   37.23    1.81
  -1   7   5  102.12    4.61
  -1   7   5  109.80    4.20
   1  -7  -5  114.12    4.15
  -1   7   6    4.13    0.85
  -1   7   6    0.37    1.11
   1  -7  -6    1.19    0.87
  -1   7   7   45.01    2.27
  -1   7   7   46.39    2.94
   1  -7  -7   46.20    2.36
  -1   7   8   10.12    1.90
   1  -7  -8   12.29    1.42
  -1   7   9   31.33    2.93
   1  -7  -9   33.04    2.22
  -1   7  10    0.82    1.58
   1  -7 -10    2.71    1.35
  -1   7  11    8.87    2.13
   1  -7 -11   12.12    1.73
  -1   7  12    0.73    1.67
  -1   7  13    1.30    1.82
  -1   7  14    0.22    2.12
  -1   7  15   -1.37    2.11
  -2   8 -15    0.11    2.05
  -2   8 -14    5.21    2.23
  -2   8 -13    4.30    2.13
  -2   8 -12    2.42    1.87
  -2   8 -11    1.95    1.84
  -2   8 -10    2.38    1.82
  -2   8 -10    0.53    1.30
  -2   8  -9   14.07    2.29
  -2   8  -9   13.05    1.61
  -2   8  -8    3.40    1.17
  -2   8  -8    0.33    1.55
  -2   8  -7   48.50    2.39
  -2   8  -7   44.09    3.03
  -2   8  -6   53.05    2.46
  -2   8  -6   53.35    3.08
  -2   8  -5    1.09    1.23
  -2   8  -5    3.57    0.89
  -2   8  -4   34.02    2.31
  -2   8  -4   37.93    1.85
  -2   8  -3    4.09    0.84
  -2   8  -3    4.19    1.19
  -2   8  -2    8.31    0.95
  -2   8  -2    8.82    1.28
  -2   8  -1   35.70    2.08
  -2   8  -1   37.43    1.85
  -2   8   0   15.47    1.55
  -2   8   0   16.20    1.29
  -2   8   1   34.98    1.99
  -2   8   1   30.46    1.81
  -2   8   2    6.48    1.05
  -2   8   3    4.60    0.99
  -2   8   3    4.70    1.12
  -2   8   4   30.13    1.91
  -2   8   4   33.88    2.30
  -2   8   5    2.51    1.22
  -2   8   5    2.96    0.93
   2  -8  -5    2.85    0.80
  -2   8   6   49.77    2.96
  -2   8   6   51.80    2.52
   2  -8  -6   50.32    2.30
  -2   8   7   36.35    2.76
  -2   8   7   41.65    2.29
   2  -8  -7   40.94    2.13
  -2   8   8   -0.61    0.91
  -2   8   8    1.31    1.47
   2  -8  -8    1.42    1.01
  -2   8   9   10.48    2.07
   2  -8  -9   12.54    1.49
  -2   8  10    2.92    1.74
   2  -8 -10    1.43    1.20
  -2   8  11    0.73    1.67
  -2   8  12    1.53    1.75
  -2   8  13    4.74    2.11
  -2   8  14    1.34    1.92
  -2   8  15    2.57    2.07
  -3   9 -15   -1.38    2.36
  -3   9 -14   11.15    2.63
  -3   9 -13    2.48    2.39
  -3   9 -12    6.88    2.22
  -3   9 -11    1.95    1.91
  -3   9 -10   -2.11    1.65
  -3   9  -9    3.41    1.84
  -3   9  -9   -0.16    1.12
  -3   9  -8   45.78    2.41
  -3   9  -8   41.43    3.15
  -3   9  -7    6.90    1.16
  -3   9  -7    7.89    1.85
  -3   9  -6  138.90    6.02
  -3   9  -6  156.20    5.46
  -3   9  -5   35.38    2.57
  -3   9  -5   39.55    1.92
  -3   9  -4    4.82    0.85
  -3   9  -4    3.04    1.28
  -3   9  -3    1.89    0.75
  -3   9  -3    1.19    1.15
  -3   9  -2    8.24    1.36
  -3   9  -2    5.17    0.88
  -3   9  -1    5.71    0.92
  -3   9  -1    7.58    1.26
  -3   9   0  251.00    8.85
  -3   9   0  251.52    9.09
  -3   9   1    6.30    1.38
  -3   9   1    4.90    1.08
  -3   9   2    4.58    1.20
  -3   9   2    5.11    1.23
  -3   9   3    0.51    0.93
  -3   9   3    1.58    0.79
  -3   9   4    3.66    1.22
  -3   9   4    1.03    0.60
  -3   9   5   34.38    2.22
  -3   9   5   41.48    2.57
  -3   9   6  149.14    6.21
  -3   9   6  148.58    5.78
   3  -9  -6  145.58    5.28
  -3   9   7    9.47    1.43
  -3   9   7    5.57    1.62
   3  -9  -7    6.64    1.08
  -3   9   8   40.46    3.11
  -3   9   8   44.11    2.63
   3  -9  -8   44.34    2.29
  -3   9   9   -0.47    1.10
  -3   9   9   -0.44    1.81
   3  -9  -9    0.26    1.01
  -3   9  10   -0.78    1.61
  -3   9  11    3.28    1.83
  -3   9  12    6.36    2.37
  -3   9  13   -0.59    1.80
  -3   9  14   10.60    2.62
  -3   9  15   -1.46    1.75
  -4  10 -14    4.30    2.21
  -4  10 -13   11.43    2.49
  -4  10 -12    4.30    2.07
  -4  10 -11    3.07    1.87
  -4  10 -10   -1.49    1.68
  -4  10  -9   11.19    2.24
  -4  10  -8   21.48    2.56
  -4  10  -7  125.67    4.61
  -4  10  -7  121.02    5.63
  -4  10  -6   45.62    2.12
  -4  10  -6   52.53    3.26
  -4  10  -5   71.27    3.72
  -4  10  -5   70.65    2.82
  -4  10  -4    2.59    0.74
  -4  10  -4    3.82    1.40
  -4  10  -3   30.50    2.25
  -4  10  -3   26.76    1.49
  -4  10  -2   11.18    1.06
  -4  10  -2    8.60    1.51
  -4  10  -1  161.14    5.86
  -4  10  -1  158.18    6.24
  -4  10   0   84.22    3.55
  -4  10   0   86.58    3.92
  -4  10   1  165.67    6.41
  -4  10   1  161.13    6.12
  -4  10   2    7.51    1.33
  -4  10   2    7.95    1.63
  -4  10   3   30.45    2.14
  -4  10   3   32.64    2.43
  -4  10   4    3.13    1.22
  -4  10   4    2.37    1.07
  -4  10   5   70.00    3.64
  -4  10   6   41.72    2.93
  -4  10   7  123.29    5.17
  -4  10   7  121.47    5.72
   4 -10  -7  119.86    4.43
  -4  10   8   22.56    2.62
  -4  10   8   26.11    2.30
  -4  10   9   10.78    1.79
  -4  10   9   10.64    2.17
  -4  10  10    1.67    1.12
  -4  10  10    0.92    1.79
  -4  10  11    1.18    1.76
  -4  10  12    0.39    1.80
  -4  10  13   10.92    2.52
  -4  10  14    5.29    2.33
  -5  11 -14    2.60    2.26
  -5  11 -13   16.67    2.89
  -5  11 -12    1.96    2.00
  -5  11 -11    4.03    2.01
  -5  11 -10    1.75    1.87
  -5  11  -9    1.85    1.89
  -5  11  -8    5.49    2.04
  -5  11  -7   94.78    4.83
  -5  11  -6   25.83    1.40
  -5  11  -6   30.54    2.74
  -5  11  -5   22.55    1.33
  -5  11  -5   21.98    2.33
  -5  11  -4   11.96    1.01
  -5  11  -4    8.57    1.72
  -5  11  -3    2.41    0.75
  -5  11  -3    3.74    1.44
  -5  11  -2   18.41    1.96
  -5  11  -2   19.50    1.37
  -5  11  -1   94.70    3.87
  -5  11  -1   99.26    4.41
  -5  11   0   22.69    1.70
  -5  11   0   26.45    2.32
  -5  11   1   89.34    3.90
  -5  11   1   97.22    4.35
  -5  11   2   19.37    1.82
  -5  11   2   29.38    2.52
  -5  11   3    0.04    1.24
  -5  11   3    2.80    1.15
  -5  11   4    8.46    1.55
  -5  11   4    8.65    1.55
  -5  11   5   21.36    2.13
  -5  11   5   22.54    2.26
  -5  11   6   28.28    2.67
  -5  11   6   26.15    2.46
  -5  11   7   90.00    4.34
  -5  11   7   61.21    3.54
  -5  11   8    2.85    1.75
  -5  11   8    1.03    0.39
  -5  11   9    2.08    1.76
  -5  11   9    1.40    0.89
  -5  11  10    0.19    1.72
  -5  11  10    1.48    1.41
  -5  11  11    0.99    1.75
  -5  11  12    0.16    1.82
  -5  11  13   11.64    2.62
  -5  11  14    4.07    2.53
  -6  12 -14    4.90    2.53
  -6  12 -13    0.00    2.09
  -6  12 -12    1.72    2.14
  -6  12 -11   -1.13    1.90
  -6  12 -10   10.57    2.35
  -6  12  -9    3.11    2.02
  -6  12  -8    6.81    2.13
  -6  12  -7    7.12    2.12
  -6  12  -6   39.07    3.11
  -6  12  -5   23.40    2.51
  -6  12  -5   25.05    1.35
  -6  12  -4   33.57    1.70
  -6  12  -4   33.81    2.75
  -6  12  -3   16.77    1.31
  -6  12  -3   16.45    2.06
  -6  12  -2    6.04    0.97
  -6  12  -2    4.25    1.57
  -6  12  -1   82.02    4.16
  -6  12  -1   85.78    3.59
  -6  12   0   19.76    1.69
  -6  12   0   16.36    2.06
  -6  12   1   79.73    3.76
  -6  12   1   88.99    4.26
  -6  12   2    3.36    1.32
  -6  12   2    4.64    1.82
  -6  12   3   16.63    2.14
  -6  12   3   16.63    1.88
  -6  12   4   32.41    2.75
  -6  12   4   36.21    2.58
  -6  12   5   25.71    2.53
  -6  12   5   28.98    2.77
  -6  12   6   40.12    2.87
  -6  12   6   39.54    3.02
  -6  12   7    7.89    1.78
  -6  12   7    6.63    1.92
  -6  12   8    7.12    2.04
  -6  12   8    5.64    1.73
  -6  12   9    3.43    1.91
  -6  12   9    4.25    1.39
  -6  12  10    9.00    2.24
  -6  12  11    0.38    1.83
  -6  12  11    1.05    0.72
  -6  12  12    2.18    1.98
  -6  12  13    1.85    2.06
  -6  12  14    2.75    2.13
  -7  13 -13   -0.38    2.10
  -7  13 -12    0.36    2.02
  -7  13 -11   -1.96    2.26
  -7  13 -10    3.96    2.08
  -7  13  -9    1.74    1.87
  -7  13  -8    6.16    2.04
  -7  13  -7   10.79    2.24
  -7  13  -6    3.28    1.83
  -7  13  -5    4.58    1.88
  -7  13  -4   56.44    2.36
  -7  13  -4   53.13    3.52
  -7  13  -3   26.08    1.64
  -7  13  -3   25.15    2.56
  -7  13  -2    1.07    1.62
  -7  13  -2    1.04    0.93
  -7  13  -1    9.25    1.30
  -7  13  -1    6.77    1.80
  -7  13   0    5.36    1.32
  -7  13   0    6.08    1.82
  -7  13   1    7.86    1.85
  -7  13   1    5.95    1.42
  -7  13   2    1.65    1.64
  -7  13   2   -0.43    1.28
  -7  13   3   32.93    2.75
  -7  13   3   30.97    2.89
  -7  13   4   56.86    3.54
  -7  13   4   50.36    3.25
  -7  13   5    2.82    1.57
  -7  13   5    2.13    1.64
  -7  13   6   -0.57    1.38
  -7  13   6    0.88    1.84
  -7  13   7    8.35    1.90
  -7  13   7    6.20    2.03
  -7  13   8    6.80    1.99
  -7  13   8    9.20    1.90
  -7  13   9    3.39    1.54
  -7  13   9    4.12    1.95
  -7  13  10    1.35    2.12
  -7  13  10    3.16    1.72
  -7  13  11    1.12    1.83
  -7  13  11    3.51    1.51
  -7  13  12    3.75    2.11
  -7  13  13    2.92    2.38
  -8  14 -13   -0.99    2.05
  -8  14 -12   -0.12    2.02
  -8  14 -11    8.44    2.44
  -8  14 -10   -1.01    1.79
  -8  14  -9   12.40    2.42
  -8  14  -8    5.23    2.05
  -8  14  -7    3.59    1.97
  -8  14  -6    2.73    1.90
  -8  14  -5   29.83    2.93
  -8  14  -4    1.03    1.78
  -8  14  -3   90.78    3.61
  -8  14  -3   88.21    4.69
  -8  14  -2    1.81    1.05
  -8  14  -2    2.13    1.82
  -8  14  -1   21.37    1.87
  -8  14  -1   24.16    2.67
  -8  14   0   63.91    3.95
  -8  14   0   67.45    3.38
  -8  14   1   18.91    2.53
  -8  14   1   24.87    2.25
  -8  14   2    0.96    1.44
  -8  14   2    2.04    1.80
  -8  14   3   92.03    4.52
  -8  14   3  100.82    5.06
  -8  14   4    3.09    1.79
  -8  14   4    2.73    1.79
  -8  14   5   31.90    3.11
  -8  14   5   28.84    2.83
  -8  14   6    3.71    1.78
  -8  14   6    6.17    1.90
  -8  14   7    2.50    1.66
  -8  14   7    5.99    1.97
  -8  14   8    4.53    1.77
  -8  14   8    6.63    2.06
  -8  14   9    2.71    1.90
  -8  14   9    8.32    1.92
  -8  14  10   -0.14    1.43
  -8  14  10   -0.36    1.73
  -8  14  11    9.65    2.68
  -8  14  11   11.78    2.18
  -8  14  12    6.66    2.01
  -8  14  12    4.79    2.29
  -8  14  13   -0.77    2.29
  -9  15 -12   -1.25    2.07
  -9  15 -11    4.76    2.28
  -9  15 -10    7.72    2.33
  -9  15  -9    4.84    2.13
  -9  15  -8   -0.26    1.85
  -9  15  -7    7.69    2.11
  -9  15  -6    2.12    1.88
  -9  15  -5    9.05    2.24
  -9  15  -4   11.04    2.32
  -9  15  -3   12.18    2.36
  -9  15  -2   31.57    3.05
  -9  15  -2   30.48    2.09
  -9  15  -1   22.41    1.98
  -9  15  -1   20.43    2.45
  -9  15   0   31.41    3.08
  -9  15   0   33.00    2.54
  -9  15   1   18.75    2.61
  -9  15   1   18.88    2.17
  -9  15   2   30.62    3.14
  -9  15   2   29.39    2.62
  -9  15   3   11.94    2.35
  -9  15   3   11.11    1.91
  -9  15   4   16.17    2.41
  -9  15   4   11.98    2.31
  -9  15   5   11.82    2.16
  -9  15   5   13.63    2.70
  -9  15   6    0.31    1.66
  -9  15   6   -0.53    1.54
  -9  15   7    5.61    1.94
  -9  15   7   10.24    2.41
  -9  15   8    2.12    1.63
  -9  15   8   -1.80    1.52
  -9  15   9    3.03    1.90
  -9  15   9    4.23    2.07
  -9  15  10   11.62    2.50
  -9  15  10    7.20    2.08
  -9  15  11    5.60    2.13
  -9  15  11    4.96    2.22
  -9  15  12    1.04    1.47
  -9  15  12    0.11    1.97
 -10  16 -11   -0.03    2.11
 -10  16 -10    9.33    2.56
 -10  16  -9    7.61    2.32
 -10  16  -8    2.27    2.03
 -10  16  -7    6.88    2.19
 -10  16  -6    3.19    2.00
 -10  16  -5    1.20    1.86
 -10  16  -4    0.58    1.91
 -10  16  -3   16.43    2.30
 -10  16  -2   17.45    2.60
 -10  16  -1   13.93    1.78
 -10  16  -1    9.93    2.39
 -10  16   0    1.25    1.89
 -10  16   0   -1.11    1.39
 -10  16   1   11.64    1.91
 -10  16   1   14.26    2.49
 -10  16   2   27.73    2.69
 -10  16   2   23.56    2.92
 -10  16   3   15.78    2.20
 -10  16   3   18.10    2.71
 -10  16   4    4.04    1.71
 -10  16   4    5.90    2.06
 -10  16   5    4.41    2.00
 -10  16   5    5.25    2.08
 -10  16   6    2.08    1.93
 -10  16   6    0.11    1.72
 -10  16   7    5.44    2.22
 -10  16   7    4.42    1.97
 -10  16   8    2.30    1.85
 -10  16   8    0.40    1.66
 -10  16   9    5.42    2.22
 -10  16   9    1.88    1.95
 -10  16  10    5.29    2.00
 -10  16  10    7.54    2.33
 -10  16  11    1.94    1.71
 -10  16  11    2.42    2.44
 -11  17 -11    0.50    2.20
 -11  17 -10   -1.63    1.87
 -11  17  -9    2.83    2.08
 -11  17  -8    1.80    2.06
 -11  17  -7    3.28    2.08
 -11  17  -6    2.54    2.04
 -11  17  -5    2.60    2.00
 -11  17  -4    2.30    1.96
 -11  17  -3    4.61    2.09
 -11  17  -2    0.01    1.35
 -11  17  -1    0.57    1.87
 -11  17   0   -0.74    1.35
 -11  17   0    0.22    1.39
 -11  17   1   -0.36    1.83
 -11  17   1    1.47    1.63
 -11  17   2   -2.21    1.76
 -11  17   2    1.35    1.71
 -11  17   3    2.14    2.05
 -11  17   3    7.44    1.95
 -11  17   4    2.17    1.83
 -11  17   4    3.00    2.27
 -11  17   5    1.02    1.79
 -11  17   5    0.35    1.87
 -11  17   6    5.33    2.09
 -11  17   6    4.93    2.21
 -11  17   7    3.96    2.00
 -11  17   7    6.99    2.53
 -11  17   8    3.27    2.02
 -11  17   8   -0.66    1.76
 -11  17   9    2.78    2.07
 -11  17   9    4.33    1.95
 -11  17  10   -0.01    1.70
 -11  17  10    2.80    2.06
 -11  17  11    0.04    1.73
 -11  17  11   -2.71    1.84
 -12  18 -10    3.80    2.37
 -12  18  -9    0.63    2.07
 -12  18  -8   -1.64    2.34
 -12  18  -7    0.87    2.15
 -12  18  -6    5.98    2.27
 -12  18  -5    3.78    2.06
 -12  18  -4    7.39    2.23
 -12  18  -3    7.52    2.27
 -12  18  -2   -1.36    1.81
 -12  18  -1    3.56    1.98
 -12  18   0   -0.76    1.79
 -12  18   1    9.92    2.34
 -12  18   1    8.16    1.88
 -12  18   2   -2.63    1.71
 -12  18   2   -0.27    1.61
 -12  18   3    1.53    1.93
 -12  18   3    4.17    1.87
 -12  18   4    8.17    2.22
 -12  18   4   11.50    2.45
 -12  18   5    2.41    1.76
 -12  18   5    2.42    1.93
 -12  18   6    1.10    1.79
 -12  18   6    1.93    1.98
 -12  18   7    3.83    2.04
 -12  18   7    4.23    2.48
 -12  18   8   -0.25    1.80
 -12  18   8   -0.04    2.24
 -12  18   9   -2.14    1.63
 -12  18   9    0.81    2.32
 -12  18  10    6.46    2.74
 -12  18  10    0.90    2.09
 -13  19  -9    2.68    2.31
 -13  19  -8   -3.39    1.92
 -13  19  -7    2.33    2.24
 -13  19  -6    4.66    2.29
 -13  19  -5    5.09    2.30
 -13  19  -4    1.06    2.05
 -13  19  -3    9.58    2.37
 -13  19  -2    1.90    2.03
 -13  19  -1    1.27    1.88
 -13  19   0    7.32    2.36
 -13  19   1   -1.93    1.77
 -13  19   2    1.21    1.73
 -13  19   2    5.13    2.20
 -13  19   3   11.69    2.54
 -13  19   3   11.47    2.32
 -13  19   4   -3.24    1.74
 -13  19   4    1.67    1.90
 -13  19   5    9.36    2.43
 -13  19   5    6.70    2.36
 -13  19   6    3.97    2.08
 -13  19   6    8.70    2.52
 -13  19   7   -2.12    1.85
 -13  19   7   -2.35    1.70
 -13  19   8    0.32    2.25
 -13  19   8   -0.17    2.08
 -13  19   9    3.88    2.20
 -13  19   9    0.79    1.95
 -14  20  -7    1.66    2.18
 -14  20  -6    6.13    2.36
 -14  20  -5    1.71    2.08
 -14  20  -4    4.50    2.24
 -14  20  -3    3.03    2.18
 -14  20  -2    2.57    2.08
 -14  20  -1    6.39    2.26
 -14  20   0   -0.54    1.92
 -14  20   1    3.27    2.19
 -14  20   2    4.35    2.19
 -14  20   3    5.84    2.25
 -14  20   4    5.26    2.24
 -14  20   4    4.66    2.18
 -14  20   5    1.04    2.07
 -14  20   5   -1.14    1.96
 -14  20   6    3.04    2.20
 -14  20   6    0.20    2.10
 -14  20   7   -0.63    1.88
 -14  20   7    3.40    2.28
 -15  21  -6    0.65    2.19
 -15  21  -5   -2.67    1.97
 -15  21  -4    3.82    2.23
 -15  21  -3    1.11    2.08
 -15  21  -2    0.97    2.03
 -15  21  -1    1.42    2.01
 -15  21   0    1.49    2.06
 -15  21   1    2.30    2.08
 -15  21   2    0.23    2.05
 -15  21   3    2.10    2.12
 -15  21   4    4.58    2.57
 -15  21   5   -3.83    1.61
 -15  21   5    0.10    2.07
 -15  21   6   -4.72    2.18
 -15  21   6    0.47    2.29
 -16  22  -3    1.00    2.05
 -16  22  -2    0.43    2.01
 -16  22  -1    4.37    2.28
 -16  22   0   -2.39    1.96
 -16  22   1    3.64    2.19
 -16  22   2    0.06    1.99
 -16  22   3    0.80    2.10
  22 -15  -4   -2.79    2.08
 -22  15   4   -2.77    1.71
  22 -15  -3   -0.60    1.17
 -22  15   3    2.36    2.02
 -22  15   2    0.77    1.86
 -22  15   1    4.09    2.06
 -22  15   0    1.04    1.88
 -22  15  -1    0.19    2.11
 -22  15  -2    1.02    2.13
 -22  15  -3   -0.93    0.84
 -22  15  -3    2.92    1.92
 -22  15  -4   -1.81    1.68
 -22  15  -4    1.12    2.12
  21 -14  -6   -2.12    1.89
 -21  14   6    0.78    2.00
  21 -14  -5    1.50    1.97
 -21  14   5    2.90    2.04
  21 -14  -4    1.21    2.21
 -21  14   4    2.73    2.03
  21 -14  -3    5.83    2.21
 -21  14   3    4.35    2.38
  21 -14  -2    0.55    1.94
 -21  14   2    0.24    1.77
 -21  14   1   -0.03    1.81
 -21  14   0   -3.13    1.63
 -21  14  -1   -0.05    1.71
 -21  14  -2    4.54    2.03
 -21  14  -2   -1.07    1.85
 -21  14  -3    6.67    2.10
 -21  14  -3    5.63    2.13
 -21  14  -4    1.17    2.02
 -21  14  -4    2.68    1.77
 -21  14  -5    4.07    2.16
 -21  14  -5    3.05    2.13
 -21  14  -6   -2.66    2.04
 -21  14  -6    0.73    1.66
  20 -13  -8    1.84    2.51
 -20  13   8    3.30    2.12
  20 -13  -7    1.59    2.07
 -20  13   7    0.54    1.96
  20 -13  -6   -1.20    1.84
 -20  13   6   -0.25    1.82
  20 -13  -5    2.73    2.28
 -20  13   5   -0.58    1.73
  20 -13  -4    2.99    2.25
 -20  13   4    7.15    2.17
  20 -13  -3   -1.86    1.82
 -20  13   3    2.59    1.86
 -20  13   2    4.32    1.96
  20 -13  -1   -0.73    1.68
 -20  13   1    2.98    2.15
 -20  13   0   11.91    2.34
 -20  13  -1   -0.23    1.77
 -20  13  -1   -0.07    1.64
 -20  13  -2   -1.23    0.67
 -20  13  -2    3.27    1.76
 -20  13  -3   -1.50    1.56
 -20  13  -3   -1.08    1.77
 -20  13  -4    3.47    2.08
 -20  13  -4    6.89    2.27
 -20  13  -5    1.26    1.92
 -20  13  -5   -0.17    1.67
 -20  13  -6   -0.04    1.56
 -20  13  -6   -1.03    1.72
 -20  13  -7   -0.32    1.86
 -20  13  -7    2.55    1.96
 -20  13  -8    0.72    2.31
  19 -12  -9    1.43    2.22
 -19  12   9    1.93    2.06
  19 -12  -8    0.13    2.29
 -19  12   8    3.46    2.08
  19 -12  -7    1.91    2.00
 -19  12   7    3.25    1.95
  19 -12  -6   -1.88    2.08
 -19  12   6    0.24    1.84
  19 -12  -5    1.72    2.14
 -19  12   5    0.80    1.77
  19 -12  -4    3.08    1.83
 -19  12   4    1.24    1.79
  19 -12  -3    1.90    1.94
 -19  12   3    1.46    1.73
  19 -12  -2    0.11    1.71
 -19  12   2    1.05    1.65
  19 -12  -1    4.02    1.86
 -19  12   1    6.35    1.93
  19 -12   0    4.20    1.79
 -19  12   0    1.83    1.64
 -19  12   0   -1.07    1.52
 -19  12  -1    4.09    1.90
 -19  12  -2    0.75    1.56
 -19  12  -2    1.85    1.40
 -19  12  -3   -0.06    1.50
 -19  12  -3    1.25    1.56
 -19  12  -4    1.81    1.90
 -19  12  -4    3.49    1.99
 -19  12  -5   -2.18    1.85
 -19  12  -5    1.93    1.58
 -19  12  -6   -0.80    1.70
 -19  12  -6    0.03    1.52
 -19  12  -7    1.92    1.88
 -19  12  -7    4.21    1.93
 -19  12  -8   -0.92    2.12
 -19  12  -9    0.08    1.94
  18 -11 -10   -0.99    2.06
  18 -11  -9   -2.83    1.83
 -18  11   9   -0.68    1.74
  18 -11  -8    0.88    2.37
 -18  11   8   -1.23    1.71
  18 -11  -7    7.19    2.23
 -18  11   7    7.11    2.26
  18 -11  -6    4.75    2.01
 -18  11   6    6.26    2.07
  18 -11  -5   -1.10    1.93
 -18  11   5    1.15    1.70
  18 -11  -4   -0.66    1.59
 -18  11   4    2.44    1.78
  18 -11  -3    0.64    1.67
 -18  11   3    2.56    1.67
  18 -11  -2    2.95    1.64
 -18  11   2    3.51    1.72
  18 -11  -1    2.48    1.51
 -18  11   1    4.92    1.78
 -18  11   1    2.90    1.76
  18 -11   0    0.85    1.60
 -18  11   0    4.08    1.94
 -18  11   0    2.84    1.68
  18 -11   1    3.99    1.91
 -18  11  -1    4.82    1.68
 -18  11  -1    5.02    1.75
 -18  11  -2    0.78    1.71
 -18  11  -2    2.15    1.76
 -18  11  -3    0.70    1.71
 -18  11  -3    1.07    1.81
 -18  11  -4    0.32    1.65
 -18  11  -4   -0.13    1.78
 -18  11  -5   -0.47    1.74
 -18  11  -5    0.78    1.65
 -18  11  -6    3.93    1.67
 -18  11  -6    2.94    1.81
 -18  11  -7    6.31    1.77
 -18  11  -7    5.58    2.06
 -18  11  -8   -2.78    2.03
 -18  11  -9   -1.85    1.72
 -18  11 -10   -0.22    1.85
  17 -10 -11   -2.39    2.50
  17 -10 -10    0.67    1.96
  17 -10  -9   -0.54    1.98
 -17  10   9    1.52    1.83
  17 -10  -8    0.43    1.92
 -17  10   8    3.25    2.00
  17 -10  -7   -1.21    1.67
 -17  10   7   -1.75    1.59
  17 -10  -6   11.17    2.25
 -17  10   6   11.40    2.24
  17 -10  -5   -0.50    1.60
 -17  10   5   -1.12    1.50
  17 -10  -4   -0.41    1.87
 -17  10   4    2.36    1.70
  17 -10  -3    1.18    1.89
 -17  10   3   -1.24    1.47
  17 -10  -2   -1.62    1.69
 -17  10   2    0.41    1.52
 -17  10   2   -1.09    1.41
  17 -10  -1   -1.09    0.67
 -17  10   1   -1.16    1.79
 -17  10   1    1.34    1.76
  17 -10   0    7.53    1.91
 -17  10   0    9.97    2.17
 -17  10   0    5.83    1.85
  17 -10   1    2.06    1.74
 -17  10  -1    1.63    1.78
 -17  10  -1   -0.05    0.76
  17 -10   2   -0.49    1.61
 -17  10  -2    0.10    1.41
 -17  10  -2    0.46    1.73
 -17  10  -3    0.15    1.41
 -17  10  -3    0.58    1.72
 -17  10  -4    2.69    1.75
 -17  10  -4   -1.11    1.48
 -17  10  -5   -1.63    1.43
 -17  10  -5    0.16    1.31
 -17  10  -6   12.64    2.15
 -17  10  -6    8.32    2.07
 -17  10  -7   -0.46    1.61
 -17  10  -7    1.00    1.75
 -17  10  -8    2.27    1.89
 -17  10  -8    3.53    1.87
 -17  10  -9    1.70    1.85
 -17  10 -10   -0.95    1.78
 -17  10 -11    0.92    2.33
  16  -9 -12    2.17    2.33
  16  -9 -11    1.31    2.14
  16  -9 -10    1.12    2.09
  16  -9  -9    3.40    2.10
  16  -9  -8    2.88    1.93
 -16   9   8    2.35    1.72
  16  -9  -7    3.13    2.16
 -16   9   7    1.85    1.72
  16  -9  -6    9.32    2.37
 -16   9   6    8.47    2.09
  16  -9  -5    4.09    2.08
 -16   9   5    4.70    1.81
  16  -9  -4    0.42    1.62
 -16   9   4   -1.99    1.45
  16  -9  -3   11.55    2.09
 -16   9   3   12.79    2.19
 -16   9   3    9.11    1.85
  16  -9  -2    4.35    1.97
 -16   9   2    5.00    2.00
 -16   9   2    5.51    1.74
  16  -9  -1    6.06    2.03
 -16   9   1    7.00    1.86
 -16   9   1   10.88    2.05
  16  -9   0   12.03    2.02
 -16   9   0   11.36    2.05
 -16   9   0    9.15    1.90
  16  -9   1    9.32    2.03
 -16   9  -1    7.25    2.00
 -16   9  -1    9.60    2.04
  16  -9   2    6.12    1.90
 -16   9  -2    4.52    1.64
 -16   9  -2    1.65    1.54
  16  -9   3   10.46    2.12
 -16   9  -3   16.05    2.37
 -16   9  -3   14.56    2.19
 -16   9  -4    1.28    1.88
 -16   9  -4   -1.41    1.57
 -16   9  -5    2.40    1.70
 -16   9  -5    6.53    2.15
 -16   9  -6    7.77    1.98
 -16   9  -6   10.61    1.95
 -16   9  -7    4.02    1.73
 -16   9  -7    3.08    1.81
 -16   9  -8    2.12    2.06
 -16   9  -8   -0.60    1.56
 -16   9  -9    2.24    1.90
 -16   9 -10   -2.82    1.66
 -16   9 -11    1.46    1.96
 -16   9 -12   -1.99    1.80
  15  -8 -12   -0.50    2.18
  15  -8 -11   -1.09    1.96
  15  -8 -10    5.26    2.53
  15  -8  -9    1.35    2.27
  15  -8  -8    4.18    1.99
 -15   8   8    2.55    1.72
  15  -8  -7   -0.72    1.61
 -15   8   7    0.59    1.50
  15  -8  -6    4.11    2.10
 -15   8   6    2.93    1.68
  15  -8  -5    2.38    1.74
 -15   8   5    1.56    1.65
  15  -8  -4   16.32    2.35
 -15   8   4   14.20    2.19
  15  -8  -3   16.50    2.45
 -15   8   3   17.14    2.28
 -15   8   3   18.92    2.22
  15  -8  -2    2.45    1.53
 -15   8   2    1.85    1.53
 -15   8   2    4.28    1.62
  15  -8  -1   20.13    2.30
 -15   8   1   20.17    2.31
 -15   8   1   24.94    2.61
  15  -8   0    0.42    0.71
 -15   8   0    0.07    1.33
 -15   8   0   -0.59    0.76
  15  -8   1   21.03    2.40
 -15   8  -1   21.97    2.37
 -15   8  -1   16.78    2.27
  15  -8   2    1.28    1.72
 -15   8  -2    1.03    1.63
 -15   8  -2    3.68    1.76
  15  -8   3   13.82    2.18
 -15   8  -3   20.72    2.44
 -15   8  -3   16.27    2.16
  15  -8   4   18.41    2.21
 -15   8  -4   17.28    2.19
 -15   8  -4   13.55    2.40
 -15   8  -5    4.82    1.70
 -15   8  -5    3.05    2.02
 -15   8  -6    3.08    2.09
 -15   8  -6    3.37    1.40
 -15   8  -7   -0.65    1.90
 -15   8  -7    1.43    1.49
 -15   8  -8    1.18    1.46
 -15   8  -8    0.38    1.67
 -15   8  -9    3.01    2.17
 -15   8 -10    2.98    2.25
 -15   8 -11   -0.90    1.73
 -15   8 -12   -0.01    1.85
  14  -7 -13    1.34    2.26
  14  -7 -12   -1.59    1.92
  14  -7 -11    2.45    2.15
  14  -7 -10    4.74    2.53
  14  -7  -9   -0.19    2.15
  14  -7  -8    1.59    1.85
  14  -7  -7    6.95    2.32
 -14   7   7   12.28    2.21
  14  -7  -6    1.32    2.07
 -14   7   6    0.67    1.62
  14  -7  -5    5.29    2.07
 -14   7   5    1.64    1.60
  14  -7  -4   55.99    3.77
 -14   7   4   53.52    3.44
  14  -7  -3   17.97    2.31
 -14   7   3   16.80    2.02
 -14   7   3   17.17    2.15
  14  -7  -2    7.47    1.90
 -14   7   2    4.45    1.70
 -14   7   2    5.11    1.56
  14  -7  -1   28.28    2.51
 -14   7   1   24.92    2.40
 -14   7   1   26.72    2.54
  14  -7   0   15.91    1.87
 -14   7   0   30.62    2.42
 -14   7   0   18.95    1.88
  14  -7   1   27.07    2.56
 -14   7  -1   26.07    2.44
 -14   7  -1   29.83    2.61
  14  -7   2    6.91    1.70
 -14   7  -2    5.69    1.57
 -14   7  -2    6.55    1.69
  14  -7   3   18.89    2.27
 -14   7  -3   20.70    2.25
 -14   7  -3   17.33    1.92
  14  -7   4   52.13    3.14
 -14   7  -4   52.88    3.13
 -14   7  -4   52.61    3.34
  14  -7   5    3.56    1.47
 -14   7  -5    2.99    1.51
 -14   7  -5    0.87    1.62
  14  -7   6   -0.39    1.23
 -14   7  -6    2.04    1.99
 -14   7  -6   -1.43    1.34
 -14   7  -7    7.41    2.19
 -14   7  -7    9.18    1.80
 -14   7  -8    1.17    1.69
 -14   7  -8    0.32    1.33
 -14   7  -9   -0.28    1.95
 -14   7 -10    4.92    2.22
 -14   7 -11    5.38    2.08
 -14   7 -12    2.19    1.97
 -14   7 -13    0.54    1.94
  13  -6 -13   -1.86    2.35
  13  -6 -12    1.32    2.17
  13  -6 -11    1.86    2.07
  13  -6 -10    1.78    1.93
  13  -6  -9    2.15    1.86
  13  -6  -8    8.55    2.17
  13  -6  -7    9.14    2.18
 -13   6   7    7.08    1.90
  13  -6  -6    0.99    1.65
 -13   6   6   -0.14    1.46
  13  -6  -5    2.42    1.68
 -13   6   5    1.18    1.53
  13  -6  -4   51.54    3.41
 -13   6   4   56.47    3.37
  13  -6  -3   27.10    2.55
 -13   6   3   29.48    2.51
 -13   6   3   30.62    2.46
  13  -6  -2    2.25    1.40
 -13   6   2   -0.27    1.27
 -13   6   2    3.08    1.36
  13  -6  -1    8.77    1.65
 -13   6   1    7.33    1.47
 -13   6   1    5.42    1.29
  13  -6   0    7.09    1.64
 -13   6   0    6.49    1.43
 -13   6   0    3.15    1.29
  13  -6   1    6.01    1.47
 -13   6  -1    8.15    1.40
 -13   6  -1    8.02    1.57
  13  -6   2    0.93    1.39
 -13   6  -2   -0.39    1.25
 -13   6  -2    2.04    1.31
  13  -6   3   29.76    2.56
 -13   6  -3   25.79    2.41
 -13   6  -3   31.55    2.31
  13  -6   4   49.27    3.01
 -13   6  -4   52.35    2.78
 -13   6  -4   50.86    3.45
  13  -6   5    2.81    1.38
 -13   6  -5    3.07    1.66
 -13   6  -5    1.61    1.34
  13  -6   6    2.04    1.37
 -13   6  -6   -1.69    1.23
 -13   6  -6   -0.14    1.58
  13  -6   7   11.51    1.69
 -13   6  -7    6.24    1.98
 -13   6  -7    9.72    1.64
 -13   6  -8    4.88    1.91
 -13   6  -8    6.73    1.53
 -13   6  -9    0.33    1.67
 -13   6 -10    2.87    1.88
 -13   6 -11    0.20    1.81
 -13   6 -12    0.66    1.91
 -13   6 -13    2.83    2.40
  12  -5 -14    1.62    2.32
  12  -5 -13    4.56    2.36
  12  -5 -12    5.41    2.29
  12  -5 -11    5.67    2.23
  12  -5 -10    7.05    2.16
  12  -5  -9   11.60    2.33
  12  -5  -8    9.44    2.20
  12  -5  -7   17.40    2.45
  12  -5  -6   10.12    2.00
 -12   5   6    9.24    1.85
  12  -5  -5   19.10    2.34
 -12   5   5   20.29    2.31
  12  -5  -4    1.84    1.75
 -12   5   4    6.88    1.54
  12  -5  -3   65.35    3.45
 -12   5   3   56.90    3.15
 -12   5   3   59.63    3.24
  12  -5  -2    1.22    1.30
 -12   5   2   -0.14    1.09
 -12   5   2    0.56    1.21
  12  -5  -1   84.93    3.95
 -12   5   1   79.33    3.72
  12  -5   0   58.38    3.29
 -12   5   0   61.33    3.13
 -12   5   0   61.90    3.14
 -12   5  -1   84.62    3.75
 -12   5  -1   79.93    3.97
  12  -5   2    0.85    1.24
 -12   5  -2   -0.52    1.10
 -12   5  -2   -0.52    0.86
  12  -5   3   56.36    3.13
 -12   5  -3   60.93    3.36
 -12   5  -3   53.97    2.74
  12  -5   4    2.67    1.39
 -12   5  -4    6.38    1.80
 -12   5  -4    5.16    1.42
  12  -5   5   19.36    1.96
 -12   5  -5   18.96    2.27
 -12   5  -5   19.62    1.83
  12  -5   6    6.83    1.55
 -12   5  -6    9.43    1.93
 -12   5  -6    7.46    1.53
  12  -5   7   19.11    1.98
 -12   5  -7   21.26    1.93
 -12   5  -7   17.66    2.39
  12  -5   8   11.14    1.67
 -12   5  -8    7.57    1.62
 -12   5  -8    9.84    2.08
 -12   5 -10    6.48    2.01
 -12   5 -11    7.39    2.19
 -12   5 -12    6.00    2.21
 -12   5 -13    3.18    2.08
 -12   5 -14    0.86    2.00
  11  -4 -14    4.15    2.40
  11  -4 -13   -1.22    1.95
  11  -4 -12    5.34    2.57
  11  -4 -11    1.04    1.81
  11  -4 -10   27.57    3.08
  11  -4  -9    1.30    1.81
  11  -4  -8   28.34    2.92
  11  -4  -7    6.86    1.93
  11  -4  -6   15.59    2.17
  11  -4  -5    1.21    1.46
 -11   4   5    2.59    1.32
  11  -4  -4    8.18    1.68
 -11   4   4    6.06    1.45
  11  -4  -3    6.47    1.52
 -11   4   3    4.67    1.27
  11  -4  -2   14.30    1.77
 -11   4   2   17.54    1.72
  11  -4  -1   12.82    1.64
 -11   4   1   11.61    1.63
 -11   4   1   11.49    1.39
  11  -4   0  206.16    8.05
 -11   4   0  226.27    8.06
 -11   4   0  214.69    7.84
  11  -4   1   14.51    1.77
 -11   4  -1   10.72    1.67
 -11   4  -1   11.48    1.29
  11  -4   2   15.57    1.64
 -11   4  -2   14.07    1.82
 -11   4  -2   16.39    1.52
  11  -4   3    5.97    1.38
 -11   4  -3    5.76    1.41
 -11   4  -3    4.58    1.08
  11  -4   4    7.69    1.51
 -11   4  -4    7.68    1.59
 -11   4  -4    8.12    1.23
  11  -4   5    2.23    1.15
 -11   4  -5    2.31    1.15
 -11   4  -5    2.16    1.52
  11  -4   6   19.98    2.00
 -11   4  -6   19.56    1.78
 -11   4  -6   16.92    2.21
  11  -4   7    5.99    1.52
 -11   4  -7    1.15    1.63
 -11   4  -7    6.93    1.40
  11  -4   8   29.86    2.45
 -11   4  -8   28.23    2.20
 -11   4  -8   28.28    2.80
  11  -4   9    0.28    1.27
 -11   4  -9   -0.73    1.60
 -11   4 -10   25.23    2.86
 -11   4 -11    0.68    2.07
 -11   4 -12    3.81    2.27
 -11   4 -13   -0.52    1.82
 -11   4 -14    3.42    2.36
  10  -3 -14    1.28    2.18
  10  -3 -13    8.49    2.45
  10  -3 -12    5.49    2.20
  10  -3 -11    5.73    2.06
  10  -3 -10    4.28    2.00
  10  -3  -9    6.22    2.05
  10  -3  -8   18.56    2.49
  10  -3  -7   69.52    3.98
  10  -3  -6    5.10    1.66
  10  -3  -5   41.39    2.83
  10  -3  -4    5.20    1.45
 -10   3   4    5.25    1.32
  10  -3  -3   79.34    3.74
 -10   3   3   72.87    3.50
  10  -3  -2   17.53    1.90
 -10   3   2   22.81    1.82
 -10   3   2   17.30    1.65
  10  -3  -1   80.88    3.73
 -10   3   1   79.48    3.48
 -10   3   1   83.25    3.63
  10  -3   0  129.18    5.31
 -10   3   0  124.74    5.09
 -10   3   0  130.41    4.97
  10  -3   1   86.48    3.86
 -10   3  -1   82.86    3.45
 -10   3  -1   80.04    3.72
 -10   3  -2   20.29    1.44
 -10   3  -2   17.41    1.88
  10  -3   3   67.29    3.35
 -10   3  -3   72.47    2.96
 -10   3  -3   70.61    3.43
  10  -3   4    8.34    1.42
 -10   3  -4    3.74    0.98
 -10   3  -4    7.24    1.50
  10  -3   5   47.26    2.73
 -10   3  -5   41.38    2.84
 -10   3  -5   42.16    2.24
  10  -3   6   11.30    1.58
 -10   3  -6    5.58    1.64
 -10   3  -6    5.52    1.15
  10  -3   7   79.91    3.77
 -10   3  -7   72.93    3.29
 -10   3  -7   70.00    3.97
  10  -3   8   19.34    2.10
 -10   3  -8   17.11    1.72
 -10   3  -8   18.76    2.34
  10  -3   9    4.54    1.59
 -10   3  -9    3.40    1.77
  10  -3  10    4.41    1.56
 -10   3 -10    3.49    1.82
 -10   3 -11    6.69    1.99
 -10   3 -12    2.47    2.16
 -10   3 -13    1.58    1.90
 -10   3 -14   -0.65    1.85
   9  -2 -15    1.91    2.56
   9  -2 -14    0.83    2.46
   9  -2 -13    4.91    2.54
   9  -2 -12    6.21    2.17
   9  -2 -11    1.25    1.86
   9  -2 -10    1.68    1.88
   9  -2  -9    0.59    1.76
   9  -2  -8   24.44    2.64
   9  -2  -7   39.98    2.99
   9  -2  -6   21.96    2.40
   9  -2  -5    7.48    1.81
   9  -2  -4  124.62    5.27
   9  -2  -3   43.15    2.57
  -9   2   3   39.65    2.31
   9  -2  -2    2.38    1.21
  -9   2   2    4.66    1.24
  -9   2   2    2.30    0.95
   9  -2  -1   68.06    3.22
  -9   2   1   60.93    2.80
  -9   2   1   61.12    2.96
   9  -2   0   25.35    1.95
  -9   2   0   21.51    1.45
  -9   2   0   22.99    1.79
   9  -2   1   61.99    3.03
  -9   2  -1   62.26    2.65
  -9   2  -1   60.67    2.99
   9  -2   2    0.30    0.97
  -9   2  -2    3.10    1.12
  -9   2  -2    3.89    0.79
  -9   2  -3   40.70    1.90
  -9   2  -3   41.05    2.44
   9  -2   4  104.53    4.67
  -9   2  -4  122.62    4.28
  -9   2  -4  115.13    4.86
   9  -2   5    8.13    1.37
  -9   2  -5    9.04    1.06
  -9   2  -5    9.46    1.82
   9  -2   6   27.68    2.24
  -9   2  -6   22.83    1.55
  -9   2  -6   22.18    2.24
   9  -2   7   44.66    2.70
  -9   2  -7   44.08    3.02
  -9   2  -7   39.76    2.22
   9  -2   8   23.72    2.20
  -9   2  -8   22.66    2.43
  -9   2  -8   22.76    1.78
   9  -2   9    3.17    1.42
  -9   2  -9   -0.21    1.59
  -9   2  -9    1.13    1.19
   9  -2  10    2.59    1.43
  -9   2 -10    2.03    1.72
   9  -2  11    0.62    1.31
  -9   2 -11   -0.21    1.62
   9  -2  12    5.92    1.68
  -9   2 -12    5.09    1.96
  -9   2 -13    7.49    2.41
  -9   2 -14    4.01    1.99
  -9   2 -15   -1.01    2.16
   8  -1 -15    1.42    2.46
   8  -1 -14    2.13    2.11
   8  -1 -13    2.44    2.35
   8  -1 -12    3.01    1.93
   8  -1 -11    1.36    1.82
   8  -1 -10   12.75    2.31
   8  -1  -9   21.70    2.63
   8  -1  -8   13.15    2.10
   8  -1  -7   46.53    3.06
   8  -1  -6   13.85    1.85
   8  -1  -5   23.08    2.14
   8  -1  -4  186.69    7.27
   8  -1  -3   29.20    2.12
   8  -1  -2    8.99    1.36
  -8   1   2    6.43    1.02
  -8   1   2    7.10    1.18
   8  -1  -1  108.42    4.47
  -8   1   1  108.12    4.19
  -8   1   1  105.44    4.33
   8  -1   0   14.45    1.64
  -8   1   0   13.70    1.18
  -8   1   0   13.91    1.46
   8  -1   1  104.73    4.45
  -8   1  -1  111.61    4.42
  -8   1  -1  108.55    4.02
   8  -1   2    8.66    1.29
  -8   1  -2    7.42    0.83
  -8   1  -2    7.44    1.27
   8  -1   3   24.13    1.87
  -8   1  -3   29.64    1.98
  -8   1  -3   28.31    1.41
  -8   1  -4  186.41    6.49
  -8   1  -4  192.60    7.20
  -8   1  -5   21.36    2.10
  -8   1  -5   20.54    1.29
   8  -1   6   15.16    1.64
  -8   1  -6   15.39    1.19
  -8   1  -6   12.41    1.79
   8  -1   7   49.09    2.80
  -8   1  -7   49.68    3.13
  -8   1  -7   50.47    2.32
   8  -1   8   14.13    1.87
  -8   1  -8   12.66    1.29
  -8   1  -8   11.23    1.92
   8  -1   9   25.80    2.46
  -8   1  -9   23.10    2.52
  -8   1  -9   23.30    1.76
   8  -1  10   14.73    2.07
  -8   1 -10   10.57    2.30
   8  -1  11    4.96    1.63
  -8   1 -11    4.31    1.79
   8  -1  12   -1.81    1.37
  -8   1 -12   -0.81    1.57
   8  -1  13    3.93    1.74
  -8   1 -13    2.06    1.80
  -8   1 -14    4.65    1.98
  -8   1 -15    1.80    1.86
   7   0 -15    0.84    2.41
   7   0 -14    3.86    2.39
   7   0 -13   -0.86    2.08
   7   0 -12   -1.56    1.62
   7   0 -11    8.04    2.32
   7   0 -10    2.90    1.82
   7   0  -9   25.39    2.88
   7   0  -8   12.02    1.99
   7   0  -7   -1.43    1.25
   7   0  -6   16.75    2.08
   7   0  -5   71.19    3.53
   7   0  -4  283.62   10.28
   7   0  -3   30.68    2.11
   7   0  -2   43.02    2.39
   7   0  -1    0.25    0.92
  -7   0   1    1.10    0.89
   7   0   0    3.20    1.04
  -7   0   0    2.95    0.62
  -7   0   0    3.15    0.97
   7   0   1    0.72    0.93
  -7   0  -1    1.27    0.89
  -7   0  -1    1.07    0.53
   7   0   2   45.66    2.38
  -7   0  -2   42.47    2.37
  -7   0  -2   44.92    1.83
   7   0   3   26.25    1.99
  -7   0  -3   28.97    1.27
  -7   0  -3   28.38    1.92
   7   0   4  282.02   10.00
  -7   0  -4  273.18    9.21
  -7   0  -4  280.58    9.95
   7   0   5   76.83    3.56
  -7   0  -5   73.75    3.57
  -7   0  -5   75.15    2.76
   7   0   6   15.44    1.76
  -7   0  -6   13.60    1.06
  -7   0  -6   17.09    1.88
   7   0   7   -0.52    0.78
  -7   0  -7    0.14    0.73
  -7   0  -7    2.41    1.37
  -7   0  -8   12.66    1.19
  -7   0  -8   10.70    1.89
  -7   0  -9   22.65    1.66
  -7   0  -9   23.41    2.64
   7   0  10    0.86    0.67
  -7   0 -10    1.41    1.67
   7   0  11    2.87    1.22
  -7   0 -11    5.08    1.81
   7   0  12    2.27    1.51
  -7   0 -12    0.37    1.56
   7   0  13    1.67    1.63
  -7   0 -13   -0.78    1.90
   7   0  14    1.69    1.79
  -7   0 -14    1.18    1.77
  -7   0 -15   -0.59    1.98
   6   1 -15    0.55    1.92
   6   1 -14    3.12    1.93
   6   1 -13   -1.75    1.62
   6   1 -12    5.13    1.89
   6   1 -11    8.52    2.07
   6   1 -10    2.10    1.71
   6   1  -9   29.43    2.75
   6   1  -8   10.46    1.82
   6   1  -7   45.70    2.87
   6   1  -6    1.89    1.23
   6   1  -5  112.77    4.79
   6   1  -4   38.35    2.33
   6   1  -3  144.39    5.66
   6   1  -2    4.90    1.10
   6   1  -1   59.09    2.94
  -6  -1   1   67.24    2.98
   6   1   0   91.19    3.86
  -6  -1   0   93.32    3.79
   6   1   1   65.75    2.99
  -6  -1  -1   57.77    2.80
   6   1   2    2.90    1.09
  -6  -1  -2    1.76    0.92
   6   1   3  146.50    5.78
  -6  -1  -3  153.73    5.01
  -6  -1  -3  149.04    5.72
   6   1   4   35.83    2.14
  -6  -1  -4   35.96    1.28
  -6  -1  -4   36.98    2.18
   6   1   5  110.00    4.69
  -6  -1  -5  117.81    4.65
  -6  -1  -5  109.26    3.76
   6   1   6    2.87    1.22
  -6  -1  -6    2.23    1.37
  -6  -1  -6    2.46    0.55
   6   1   7   44.28    2.72
  -6  -1  -7   48.00    1.98
  -6  -1  -7   46.66    3.06
   6   1   8    9.13    1.59
  -6  -1  -8   12.26    1.87
  -6  -1  -8   11.80    1.11
   6   1   9   31.77    2.68
  -6  -1  -9   35.33    2.95
  -6  -1  -9   33.21    1.94
   6   1  10    3.82    1.49
  -6  -1 -10   -0.03    1.54
   6   1  11   12.16    2.13
  -6  -1 -11    7.02    1.87
   6   1  12    6.20    1.93
  -6  -1 -12    2.32    1.88
   6   1  13    3.24    1.79
  -6  -1 -13    1.04    1.58
   6   1  14    4.03    1.79
  -6  -1 -14    1.64    1.97
   6   1  15    0.40    1.05
  -6  -1 -15    4.38    1.93
   5   2 -15    3.21    1.95
   5   2 -14    1.17    1.77
   5   2 -13    2.66    2.00
   5   2 -12    2.43    1.70
   5   2 -11    3.57    1.94
   5   2 -10   19.72    2.60
   5   2  -9   16.92    2.34
   5   2  -8   25.69    2.35
   5   2  -7    6.09    1.47
   5   2  -6   17.33    1.96
   5   2  -5   13.26    1.57
   5   2  -4    3.57    1.15
   5   2  -3   33.79    2.06
   5   2  -2   52.89    2.65
   5   2  -1   51.45    2.56
   5   2   0  272.92    9.59
  -5  -2   0  266.99    9.44
   5   2   1   45.41    2.41
  -5  -2  -1   48.95    2.39
   5   2   2   44.79    2.41
  -5  -2  -2   49.49    2.38
   5   2   3   36.36    2.10
  -5  -2  -3   36.86    2.09
   5   2   4    6.43    1.15
  -5  -2  -4    5.24    1.27
   5   2   5   14.97    1.58
  -5  -2  -5   12.18    1.57
   5   2   6   16.35    1.73
  -5  -2  -6   14.51    1.77
  -5  -2  -6   14.33    0.78
   5   2   7    3.55    1.38
  -5  -2  -7    1.62    0.60
  -5  -2  -7    0.77    1.20
   5   2   8   28.54    2.52
  -5  -2  -8   27.02    1.53
  -5  -2  -8   22.11    2.24
   5   2   9   14.29    2.00
  -5  -2  -9   15.54    2.03
  -5  -2  -9   15.33    1.35
   5   2  10   16.35    2.32
  -5  -2 -10   17.39    2.40
   5   2  11    5.59    1.70
  -5  -2 -11    5.69    1.93
   5   2  12    2.85    1.51
  -5  -2 -12    1.45    1.49
   5   2  13    1.84    1.77
  -5  -2 -13    1.15    1.57
   5   2  14   -0.10    1.75
  -5  -2 -14    6.73    2.18
   5   2  15    0.26    1.88
  -5  -2 -15   -2.39    1.82
   4   3 -15    3.40    2.13
   4   3 -14    1.54    1.99
   4   3 -13   12.70    2.24
   4   3 -12   -0.78    1.43
   4   3 -11    7.43    2.07
   4   3 -10    7.37    1.78
   4   3  -9    5.65    1.60
   4   3  -8    6.87    1.56
   4   3  -7   32.40    2.50
   4   3  -6   18.88    1.98
   4   3  -5   85.91    3.88
   4   3  -4    5.63    1.28
   4   3  -3   43.55    2.30
   4   3  -2   11.11    1.37
   4   3  -1  174.58    6.46
   4   3   0   31.30    1.96
  -4  -3   0   35.30    1.94
   4   3   1  185.46    6.66
  -4  -3  -1  175.54    6.53
   4   3   2    8.42    0.57
   4   3   2    9.98    1.23
  -4  -3  -2   10.67    1.23
   4   3   3   39.66    2.19
  -4  -3  -3   39.71    2.20
   4   3   4    2.65    1.02
  -4  -3  -4    5.65    1.07
   4   3   5   72.21    3.42
  -4  -3  -5   75.32    3.30
   4   3   6   17.49    1.88
  -4  -3  -6   14.28    0.78
  -4  -3  -6   16.45    1.72
   4   3   7   31.23    2.33
  -4  -3  -7   32.31    1.47
  -4  -3  -7   31.79    2.42
   4   3   8    7.83    1.82
  -4  -3  -8    7.68    1.52
  -4  -3  -8    8.70    0.95
   4   3   9    6.37    1.67
  -4  -3  -9    5.03    1.02
  -4  -3  -9    7.79    1.81
   4   3  10   12.41    2.21
  -4  -3 -10   13.18    2.15
   4   3  11    5.81    1.74
  -4  -3 -11    5.44    1.86
   4   3  12   -1.71    1.57
  -4  -3 -12   -0.60    1.65
   4   3  13   14.50    2.59
  -4  -3 -13   12.14    2.25
   4   3  14    2.49    2.01
  -4  -3 -14    3.17    1.91
   4   3  15   -0.71    1.89
  -4  -3 -15    0.15    1.88
   3   4 -15    1.61    2.04
   3   4 -14    0.80    1.91
   3   4 -13   13.28    2.39
   3   4 -12    3.87    1.84
   3   4 -11    7.41    1.97
   3   4 -10    8.76    1.96
   3   4  -9    3.32    1.70
   3   4  -8    7.46    1.52
   3   4  -7   33.36    2.29
   3   4  -6   15.17    1.59
   3   4  -5   80.60    3.64
   3   4  -4    3.69    0.98
   3   4  -3   40.40    2.20
   3   4  -2    9.41    1.22
   3   4  -1  192.18    7.00
   3   4   0   33.89    1.67
   3   4   0   33.94    1.98
   3   4   1  171.32    6.60
   3   4   1  185.89    6.17
  -3  -4  -1  183.18    6.51
   3   4   2    8.94    1.31
   3   4   2   11.04    0.78
  -3  -4  -2   11.25    1.29
   3   4   3   38.03    1.39
   3   4   3   35.78    2.12
  -3  -4  -3   41.11    2.04
   3   4   4    6.44    1.18
  -3  -4  -4    4.46    1.12
   3   4   5   84.03    3.76
  -3  -4  -5   79.38    3.53
   3   4   6   16.41    1.80
  -3  -4  -6   17.44    1.69
   3   4   7   30.01    2.32
  -3  -4  -7   29.30    2.18
   3   4   8    7.46    1.65
  -3  -4  -8    6.69    1.55
   3   4   9    4.71    1.64
  -3  -4  -9    4.65    1.44
   3   4  10   11.94    2.08
  -3  -4 -10   11.94    2.04
   3   4  11    7.18    1.89
  -3  -4 -11    7.50    1.88
   3   4  12   -0.62    1.38
  -3  -4 -12   -1.60    1.22
   3   4  13   11.03    2.24
  -3  -4 -13    9.81    2.09
   3   4  14    0.65    2.01
  -3  -4 -14    1.96    1.81
   3   4  15    1.81    1.84
  -3  -4 -15    0.79    1.86
   2   5 -15    0.84    1.95
   2   5 -14    1.26    2.03
   2   5 -14    5.63    2.08
   2   5 -13   -0.29    1.73
   2   5 -12    4.40    1.84
   2   5 -11    5.89    1.83
   2   5 -10   17.85    2.27
   2   5  -9   17.16    2.11
   2   5  -8   23.03    2.16
   2   5  -7    0.94    1.02
   2   5  -6   18.83    1.80
   2   5  -5   14.65    1.55
   2   5  -4    7.31    1.24
   2   5  -3   38.76    2.15
   2   5  -2   42.46    2.12
   2   5  -2   43.09    2.19
   2   5  -1   28.53    1.50
   2   5   0  274.00    9.71
   2   5   0  279.14    9.42
   2   5   1   52.04    2.17
   2   5   1   51.08    2.59
   2   5   2   51.40    2.46
   2   5   2   49.15    2.04
  -2  -5  -2   42.70    2.29
   2   5   3   37.19    1.58
   2   5   3   37.69    2.13
  -2  -5  -3   35.80    1.92
   2   5   4    2.86    1.06
   2   5   4    5.35    0.53
  -2  -5  -4    6.76    1.11
   2   5   5   14.24    1.64
   2   5   5   12.79    0.80
  -2  -5  -5   11.44    1.28
   2   5   6   13.78    1.72
  -2  -5  -6   15.73    1.54
   2   5   7    4.16    1.36
  -2  -5  -7    3.54    1.20
   2   5   8   30.10    2.68
  -2  -5  -8   25.49    2.14
   2   5   9   14.46    2.29
  -2  -5  -9   15.22    1.90
   2   5  10   16.26    2.28
  -2  -5 -10   16.94    2.07
   2   5  11    4.75    1.81
  -2  -5 -11    1.87    1.62
   2   5  12    3.34    1.77
  -2  -5 -12   -0.24    1.50
   2   5  13   -0.18    1.88
  -2  -5 -13    1.03    1.60
   2   5  14    4.23    2.22
  -2  -5 -14    3.41    1.87
   2   5  15    2.41    2.24
   1   6 -15    0.38    1.98
   1   6 -14    2.41    2.05
   1   6 -13    1.37    1.95
   1   6 -13    3.06    1.78
   1   6 -12    1.66    1.87
   1   6 -12    2.24    1.76
   1   6 -11    9.17    1.92
   1   6 -11    7.07    2.08
   1   6 -10    2.49    1.84
   1   6 -10    3.64    1.57
   1   6  -9   31.70    2.53
   1   6  -9   33.80    2.99
   1   6  -8   12.57    2.01
   1   6  -8   10.22    1.65
   1   6  -7   49.37    2.70
   1   6  -7   43.21    2.91
   1   6  -6    5.71    1.45
   1   6  -6    3.23    1.10
   1   6  -5  105.85    4.38
   1   6  -5  113.68    4.69
   1   6  -4   37.80    2.17
   1   6  -4   40.07    2.17
   1   6  -3  158.19    5.82
   1   6  -3  154.22    5.89
   1   6  -2    1.50    0.84
   1   6  -2    3.89    1.02
   1   6  -1   60.53    2.79
   1   6  -1   63.04    2.68
   1   6   0   88.65    3.32
   1   6   0   68.43    3.05
   1   6   1   59.09    2.71
   1   6   1   58.62    2.48
   1   6   2    4.73    0.80
   1   6   2    1.86    0.89
  -1  -6  -2    3.12    0.82
   1   6   3  145.48    5.63
   1   6   3  144.15    5.20
  -1  -6  -3  147.22    5.37
   1   6   4   37.35    2.28
   1   6   4   36.12    1.66
  -1  -6  -4   37.61    2.02
   1   6   5  113.52    4.78
   1   6   5  112.16    4.02
  -1  -6  -5  109.07    4.34
   1   6   6    3.35    0.69
   1   6   6    3.17    1.25
  -1  -6  -6    2.81    1.05
   1   6   7   41.69    2.82
  -1  -6  -7   45.58    2.44
   1   6   8    9.38    1.82
  -1  -6  -8   10.98    1.58
   1   6   9   34.83    3.06
  -1  -6  -9   35.47    2.58
   1   6  10    2.76    1.67
  -1  -6 -10    0.26    1.36
   1   6  11   10.93    2.39
  -1  -6 -11    8.47    1.86
   1   6  12    4.71    1.84
  -1  -6 -12    2.56    1.55
   1   6  13   -0.03    1.64
  -1  -6 -13    2.01    1.58
   1   6  14   -0.32    1.65
   1   6  15    1.00    1.89
   0   7 -15   -1.64    2.36
   0   7 -14    3.75    2.42
   0   7 -13   -0.54    1.85
   0   7 -12   -0.40    2.03
   0   7 -12   -1.74    1.35
   0   7 -11    2.79    1.52
   0   7 -11    4.52    1.96
   0   7 -10    5.61    2.04
   0   7 -10    1.74    1.43
   0   7  -9   25.06    2.70
   0   7  -9   28.38    2.33
   0   7  -8   13.19    2.09
   0   7  -8   12.49    1.66
   0   7  -7   -1.51    1.26
   0   7  -7    1.04    1.04
   0   7  -6   14.88    1.51
   0   7  -6   15.35    1.90
   0   7  -5   78.48    3.38
   0   7  -5   75.83    3.65
   0   7  -4  287.07   10.42
   0   7  -4  295.84   10.18
   0   7  -3   28.54    1.75
   0   7  -3   27.43    1.93
   0   7  -2   41.49    2.16
   0   7  -2   46.07    2.30
   0   7  -1    1.08    0.81
   0   7  -1    1.32    0.73
   0   7   0    3.01    0.93
   0   7   0    0.13    0.63
   0   7   1    0.94    0.82
   0   7   1    0.59    0.77
   0   7   2   42.70    2.19
   0   7   2   46.89    2.35
   0   7   3   26.89    1.93
   0   7   3   28.75    1.67
   0  -7  -3   28.82    1.67
   0   7   4  276.61    9.49
   0   7   4  279.87   10.05
   0  -7  -4  273.87    9.54
   0   7   5   73.08    2.97
   0   7   5   76.51    3.62
   0  -7  -5   73.10    3.12
   0   7   6   14.62    1.80
   0   7   6   15.05    1.22
   0  -7  -6   13.66    1.41
   0   7   7    0.74    1.39
   0   7   7   -0.31    0.72
   0  -7  -7   -0.41    1.06
   0   7   8   13.41    2.22
   0  -7  -8   12.24    1.60
   0   7   9   25.41    2.87
   0  -7  -9   28.89    2.26
   0   7  10    3.01    1.79
   0  -7 -10    2.22    1.33
   0   7  11    4.59    1.91
   0  -7 -11    4.24    1.42
   0   7  12    0.55    1.67
   0  -7 -12    0.71    1.36
   0   7  13    5.17    2.04
   0   7  14   -1.11    1.69
   0   7  15    1.43    1.95
  -1   8 -15   -1.42    2.02
  -1   8 -14    7.53    2.74
  -1   8 -13    4.23    2.10
  -1   8 -12   -1.18    1.74
  -1   8 -11    1.51    1.76
  -1   8 -11    3.69    1.61
  -1   8 -10   11.96    2.32
  -1   8 -10   14.61    1.86
  -1   8  -9   23.23    2.09
  -1   8  -9   17.74    2.42
  -1   8  -8   14.77    2.21
  -1   8  -8   18.30    1.78
  -1   8  -7   53.40    3.29
  -1   8  -7   51.30    2.74
  -1   8  -6   15.12    1.94
  -1   8  -6   18.67    1.62
  -1   8  -5   25.93    1.69
  -1   8  -5   24.70    2.19
  -1   8  -4  196.31    7.05
  -1   8  -4  196.58    7.44
  -1   8  -3   27.11    1.96
  -1   8  -3   23.45    1.68
  -1   8  -2    9.52    1.32
  -1   8  -2    9.14    1.09
  -1   8  -1   99.32    3.99
  -1   8  -1  103.78    4.13
  -1   8   0   14.12    1.28
  -1   8   0   15.05    1.39
  -1   8   1  106.82    4.27
  -1   8   2    8.11    1.20
  -1   8   2    6.59    1.27
  -1   8   3   28.15    1.86
  -1   8   3   28.13    1.99
  -1   8   4  185.89    7.08
  -1   8   4  179.78    6.64
   1  -8  -4  184.92    6.51
  -1   8   5   21.97    1.57
  -1   8   5   19.68    2.00
   1  -8  -5   24.16    1.59
  -1   8   6   16.12    1.40
  -1   8   6   16.79    1.97
   1  -8  -6   15.82    1.43
  -1   8   7   49.88    2.44
  -1   8   7   48.08    3.13
   1  -8  -7   51.10    2.53
  -1   8   8   12.70    2.07
  -1   8   8   16.81    1.57
   1  -8  -8   14.04    1.57
  -1   8   9   19.24    2.55
   1  -8  -9   24.97    2.03
  -1   8  10    9.93    2.16
   1  -8 -10   14.46    1.76
  -1   8  11    2.39    1.77
   1  -8 -11    3.57    1.42
  -1   8  12    1.51    1.74
  -1   8  13    0.58    1.78
  -1   8  14    2.27    2.34
  -1   8  15   -2.53    1.78
  -2   9 -15    0.27    2.12
  -2   9 -14   -0.53    2.00
  -2   9 -13    7.15    2.34
  -2   9 -12    2.06    1.98
  -2   9 -11   -0.02    1.70
  -2   9 -10    1.81    1.84
  -2   9  -9    0.86    1.23
  -2   9  -9    1.40    1.79
  -2   9  -8   24.21    1.99
  -2   9  -8   25.85    2.48
  -2   9  -7   39.71    3.03
  -2   9  -7   44.21    2.42
  -2   9  -6   29.80    2.56
  -2   9  -6   30.45    1.97
  -2   9  -5    7.51    1.62
  -2   9  -5   10.41    1.26
  -2   9  -4  124.77    5.24
  -2   9  -4  126.04    4.72
  -2   9  -3   40.28    2.52
  -2   9  -3   42.78    2.11
  -2   9  -2    2.62    0.92
  -2   9  -2    3.77    1.18
  -2   9  -1   63.31    2.82
  -2   9  -1   63.83    3.03
  -2   9   0   22.72    1.84
  -2   9   0   21.64    1.71
  -2   9   1   59.71    3.03
  -2   9   1   59.45    2.80
  -2   9   2    3.04    1.02
  -2   9   3   41.23    2.55
  -2   9   3   40.90    2.32
  -2   9   4  123.07    5.16
  -2   9   4  122.01    4.91
  -2   9   5    8.70    1.56
  -2   9   5    7.21    1.21
   2  -9  -5    8.44    1.10
  -2   9   6   23.73    2.29
  -2   9   6   23.01    1.78
   2  -9  -6   25.31    1.70
  -2   9   7   42.47    2.38
  -2   9   7   38.14    2.93
   2  -9  -7   41.30    2.24
  -2   9   8   21.73    2.54
  -2   9   8   22.65    1.90
   2  -9  -8   20.87    1.72
  -2   9   9    1.39    1.08
  -2   9   9   -0.89    1.55
   2  -9  -9   -1.36    1.15
  -2   9  10    2.68    1.98
  -2   9  11   -0.65    1.59
  -2   9  12    8.69    2.29
  -2   9  13    7.94    2.56
  -2   9  14    3.29    2.41
  -2   9  15    1.91    2.36
  -3  10 -14   -2.15    1.96
  -3  10 -13    8.48    2.48
  -3  10 -12    4.06    2.10
  -3  10 -11    4.12    2.03
  -3  10 -10    2.63    1.96
  -3  10  -9    3.07    1.94
  -3  10  -8   19.54    1.71
  -3  10  -8   17.19    2.46
  -3  10  -7   83.31    3.47
  -3  10  -7   76.47    4.28
  -3  10  -6    7.50    1.79
  -3  10  -6    6.34    1.12
  -3  10  -5   44.78    2.23
  -3  10  -5   44.73    2.99
  -3  10  -4    4.88    1.45
  -3  10  -4    6.30    0.96
  -3  10  -3   66.64    2.84
  -3  10  -3   67.25    3.27
  -3  10  -2   20.62    1.46
  -3  10  -2   20.25    1.91
  -3  10  -1   82.97    3.44
  -3  10  -1   83.58    3.78
  -3  10   0  124.17    4.83
  -3  10   0  120.97    5.04
  -3  10   1   82.15    3.65
  -3  10   1   83.39    3.80
  -3  10   2   16.96    1.68
  -3  10   2   21.10    1.93
  -3  10   3   71.20    3.45
  -3  10   4    5.94    1.23
  -3  10   4    4.99    1.33
  -3  10   5   45.08    2.49
  -3  10   5   39.13    2.77
  -3  10   6    8.44    1.47
  -3  10   6    4.36    1.57
  -3  10   7   74.05    3.60
  -3  10   7   71.25    4.06
   3 -10  -7   76.17    3.15
  -3  10   8   16.54    1.83
  -3  10   8   13.70    2.25
   3 -10  -8   17.62    1.48
  -3  10   9    5.39    1.43
  -3  10   9    4.23    1.86
  -3  10  10    0.01    1.69
  -3  10  11    6.01    2.06
  -3  10  12    3.74    1.97
  -3  10  13    4.10    2.23
  -3  10  14    0.36    1.94
  -4  11 -14   -0.29    2.14
  -4  11 -13    0.09    2.04
  -4  11 -12    4.10    2.18
  -4  11 -11    4.36    2.10
  -4  11 -10   25.84    2.99
  -4  11  -9    1.04    1.90
  -4  11  -8   29.42    2.99
  -4  11  -7    8.26    2.10
  -4  11  -7    5.77    1.22
  -4  11  -6   19.65    1.48
  -4  11  -6   20.55    2.19
  -4  11  -5    2.79    1.59
  -4  11  -5    2.55    0.88
  -4  11  -4    4.39    1.59
  -4  11  -4    6.87    1.00
  -4  11  -3    7.12    1.03
  -4  11  -3    4.69    1.46
  -4  11  -2   16.63    1.41
  -4  11  -2   19.25    1.98
  -4  11  -1   11.97    1.26
  -4  11  -1   13.61    1.77
  -4  11   0  230.81    8.56
  -4  11   0  220.43    8.13
  -4  11   1   10.45    1.44
  -4  11   1   12.84    1.93
  -4  11   2   15.00    1.75
  -4  11   2   14.71    1.85
  -4  11   3    6.57    1.34
  -4  11   3    4.73    1.61
  -4  11   4    9.16    1.52
  -4  11   4    4.65    1.41
  -4  11   5    2.56    1.41
  -4  11   6   23.28    2.61
  -4  11   6   21.37    2.04
  -4  11   7    6.46    1.83
  -4  11   7    5.74    1.35
  -4  11   8   24.35    2.74
  -4  11   8   27.47    2.42
  -4  11   9   -0.22    1.26
  -4  11   9   -0.66    1.57
  -4  11  10   24.40    3.19
  -4  11  10   29.15    2.57
  -4  11  11    3.32    1.91
  -4  11  12    7.26    2.33
  -4  11  13    0.66    2.25
  -4  11  14    4.43    2.28
  -5  12 -14    2.43    2.35
  -5  12 -13    4.32    2.67
  -5  12 -12    7.09    2.41
  -5  12 -11    4.58    2.24
  -5  12 -10    8.67    2.30
  -5  12  -9   14.32    2.46
  -5  12  -8    6.52    2.17
  -5  12  -7   14.05    2.37
  -5  12  -6   11.89    2.24
  -5  12  -5   16.84    1.32
  -5  12  -5   15.23    2.21
  -5  12  -4    6.62    1.77
  -5  12  -4    5.42    0.93
  -5  12  -3   60.46    2.71
  -5  12  -3   61.22    3.49
  -5  12  -2    0.02    0.84
  -5  12  -2    0.15    1.32
  -5  12  -1   83.05    4.16
  -5  12  -1   87.20    3.68
  -5  12   0   54.51    2.85
  -5  12   0   55.55    3.28
  -5  12   1   91.34    4.37
  -5  12   1   76.38    3.70
  -5  12   2   -0.54    1.02
  -5  12   2    1.62    1.39
  -5  12   3   56.30    3.15
  -5  12   3   59.72    3.62
  -5  12   4    5.62    1.57
  -5  12   4    4.29    1.67
  -5  12   5   19.64    2.29
  -5  12   5   15.70    2.13
  -5  12   6   13.01    2.05
  -5  12   6    8.46    1.54
  -5  12   7   14.29    2.34
  -5  12   8    6.82    1.99
  -5  12   8    9.86    1.67
  -5  12   9   15.49    2.13
  -5  12   9    9.57    2.17
  -5  12  10    6.80    1.69
  -5  12  10    4.59    2.06
  -5  12  11    7.70    2.49
  -5  12  11    7.42    1.81
  -5  12  12    3.04    2.09
  -5  12  13    3.31    2.14
  -5  12  14   -1.74    2.32
  -6  13 -13   -0.26    2.15
  -6  13 -12    0.91    2.06
  -6  13 -11    0.88    2.06
  -6  13 -10    1.51    2.06
  -6  13  -9    4.43    2.06
  -6  13  -8    9.55    2.35
  -6  13  -7    8.76    2.17
  -6  13  -6    2.06    1.84
  -6  13  -5    1.77    1.72
  -6  13  -4   53.00    3.47
  -6  13  -4   51.42    2.36
  -6  13  -3   25.61    1.70
  -6  13  -3   26.26    2.58
  -6  13  -2   -0.22    1.53
  -6  13  -2    0.99    0.95
  -6  13  -1   10.22    1.97
  -6  13  -1    9.39    1.37
  -6  13   0    5.39    1.28
  -6  13   0    4.21    1.72
  -6  13   1   10.65    1.62
  -6  13   1    9.43    1.92
  -6  13   2    1.93    1.38
  -6  13   2    0.61    1.51
  -6  13   3   30.10    2.50
  -6  13   3   30.67    2.86
  -6  13   4   58.50    3.57
  -6  13   4   51.36    3.71
  -6  13   5    2.92    1.56
  -6  13   5    1.29    1.80
  -6  13   6    0.60    1.58
  -6  13   6   -0.82    1.33
  -6  13   7    9.80    1.91
  -6  13   7   11.55    2.17
  -6  13   8    5.03    1.50
  -6  13   8    7.79    2.11
  -6  13   9    0.16    1.73
  -6  13   9    0.98    0.40
  -6  13  10    1.65    1.39
  -6  13  10    1.21    1.79
  -6  13  11    0.71    1.31
  -6  13  11    1.68    1.99
  -6  13  12    2.52    2.06
  -6  13  13    5.03    2.33
  -7  14 -13   -1.03    2.17
  -7  14 -12    0.36    2.07
  -7  14 -11    2.96    2.21
  -7  14 -10    7.48    2.32
  -7  14  -9   -2.31    1.77
  -7  14  -8    2.81    1.91
  -7  14  -7    3.20    2.00
  -7  14  -6    0.78    1.80
  -7  14  -5    4.46    1.97
  -7  14  -4   47.56    3.42
  -7  14  -3   19.59    1.60
  -7  14  -3   16.95    2.39
  -7  14  -2    5.98    1.25
  -7  14  -2    6.64    1.96
  -7  14  -1   24.22    2.71
  -7  14  -1   25.65    2.04
  -7  14   0   30.06    2.93
  -7  14   0   33.04    2.41
  -7  14   1   28.95    2.89
  -7  14   1   27.56    2.34
  -7  14   2    9.12    1.76
  -7  14   2    4.04    2.17
  -7  14   3   19.19    2.55
  -7  14   3   17.87    2.29
  -7  14   4   49.91    3.23
  -7  14   4   47.36    3.49
  -7  14   5    0.89    1.83
  -7  14   5    3.42    1.95
  -7  14   6   -1.61    1.70
  -7  14   6    0.74    1.60
  -7  14   7    7.13    1.97
  -7  14   7    9.27    2.22
  -7  14   8   -0.53    1.60
  -7  14   8    1.85    1.44
  -7  14   9   -1.37    1.61
  -7  14   9    0.33    1.63
  -7  14  10    4.73    1.64
  -7  14  10    0.21    1.85
  -7  14  11    4.06    2.16
  -7  14  11    1.07    0.54
  -7  14  12   -2.81    1.74
  -7  14  12    3.22    1.56
  -7  14  13   -2.27    1.85
  -8  15 -12    0.67    2.17
  -8  15 -11   -1.07    1.97
  -8  15 -10    3.14    2.15
  -8  15  -9    1.14    1.98
  -8  15  -8    2.52    2.02
  -8  15  -7    1.31    1.83
  -8  15  -6    2.51    1.90
  -8  15  -5    5.32    1.97
  -8  15  -4   18.71    2.57
  -8  15  -3   19.64    2.59
  -8  15  -2    3.72    1.22
  -8  15  -2    1.99    1.92
  -8  15  -1   21.13    2.62
  -8  15  -1   24.21    2.05
  -8  15   0    0.30    1.80
  -8  15   0    1.06    1.39
  -8  15   1   21.31    2.62
  -8  15   1   20.14    2.15
  -8  15   2    2.65    1.58
  -8  15   3   10.23    2.33
  -8  15   3   15.60    2.06
  -8  15   4   14.45    2.50
  -8  15   4   17.61    2.27
  -8  15   5    0.96    1.76
  -8  15   5    2.82    1.96
  -8  15   6    1.94    1.97
  -8  15   6    3.66    1.79
  -8  15   7   -0.17    1.91
  -8  15   7    1.19    1.57
  -8  15   8    0.40    1.71
  -8  15   8    1.79    1.59
  -8  15   9    1.15    1.75
  -8  15   9    0.90    1.79
  -8  15  10    3.18    1.77
  -8  15  10    7.20    2.51
  -8  15  11    1.05    1.95
  -8  15  11   -1.01    1.31
  -8  15  12    0.99    2.01
  -8  15  12   -1.06    0.95
  -9  16 -12   -1.95    2.52
  -9  16 -11   -0.44    2.07
  -9  16 -10    4.25    2.26
  -9  16  -9    1.51    2.00
  -9  16  -8    1.33    1.95
  -9  16  -7    3.21    1.97
  -9  16  -6    8.17    2.19
  -9  16  -5    4.02    1.95
  -9  16  -4    1.86    1.98
  -9  16  -3   11.59    2.38
  -9  16  -2    2.97    2.03
  -9  16  -1   11.65    1.75
  -9  16  -1   10.11    2.33
  -9  16   0   12.25    1.88
  -9  16   0   15.06    2.53
  -9  16   1   10.72    2.27
  -9  16   1    8.08    1.78
  -9  16   2    4.79    1.73
  -9  16   2    1.85    2.29
  -9  16   3   13.80    2.83
  -9  16   3   13.35    2.28
  -9  16   4    0.47    1.74
  -9  16   4   -0.76    1.74
  -9  16   5    9.18    2.24
  -9  16   5    7.21    2.10
  -9  16   6   10.63    2.24
  -9  16   6    5.00    1.90
  -9  16   7    7.41    2.38
  -9  16   7    3.88    1.89
  -9  16   8    1.35    2.13
  -9  16   8    1.01    2.02
  -9  16   9    3.46    2.05
  -9  16   9    4.43    2.11
  -9  16  10    3.16    2.13
  -9  16  10    0.95    1.97
  -9  16  11    1.82    2.35
  -9  16  11   -0.11    1.67
  -9  16  12   -0.49    2.05
  -9  16  12   -0.37    1.74
 -10  17 -11   -2.87    1.95
 -10  17 -10    1.95    2.21
 -10  17  -9   -0.54    1.97
 -10  17  -8    4.56    2.24
 -10  17  -7    0.33    1.92
 -10  17  -6   10.95    2.10
 -10  17  -5   -1.94    1.76
 -10  17  -4   -0.97    1.80
 -10  17  -3    0.05    1.83
 -10  17  -2    0.64    1.84
 -10  17  -1    0.51    1.89
 -10  17   0    4.97    1.64
 -10  17   0    6.04    2.14
 -10  17   1    1.64    1.93
 -10  17   1    0.20    1.47
 -10  17   2    1.13    1.94
 -10  17   2    2.84    1.65
 -10  17   3    2.88    1.77
 -10  17   3   -1.58    1.73
 -10  17   4   -1.33    1.61
 -10  17   4    0.70    1.72
 -10  17   5    0.47    1.70
 -10  17   5   -0.73    1.84
 -10  17   6   11.95    2.51
 -10  17   6   12.26    2.46
 -10  17   7   -2.32    1.97
 -10  17   7   -1.05    2.03
 -10  17   8    2.18    1.95
 -10  17   8    6.71    2.51
 -10  17   9    1.03    2.26
 -10  17   9    1.99    1.82
 -10  17  10    0.04    1.97
 -10  17  10   -0.84    1.84
 -10  17  11    2.54    1.75
 -10  17  11   -1.98    1.80
 -11  18 -10    1.11    2.16
 -11  18  -9    0.46    2.13
 -11  18  -8    1.22    2.14
 -11  18  -7    7.97    2.41
 -11  18  -6    5.63    2.22
 -11  18  -5    0.24    1.93
 -11  18  -4    3.33    2.06
 -11  18  -3    5.75    2.17
 -11  18  -2    0.95    1.88
 -11  18  -1    1.22    1.51
 -11  18   0    1.26    1.79
 -11  18   1    3.47    1.73
 -11  18   1    3.26    2.02
 -11  18   2    5.17    2.16
 -11  18   2    4.64    1.75
 -11  18   3   -0.30    1.87
 -11  18   3    3.10    1.79
 -11  18   4   -0.24    1.72
 -11  18   4    1.71    1.87
 -11  18   5    1.34    2.00
 -11  18   5    0.88    1.86
 -11  18   6    5.31    2.12
 -11  18   6    4.09    1.97
 -11  18   7    7.26    2.62
 -11  18   7    7.39    2.51
 -11  18   8    2.56    2.35
 -11  18   8    0.10    1.82
 -11  18   9    0.02    1.94
 -11  18   9    0.25    1.81
 -11  18  10    1.25    1.87
 -11  18  10   -1.43    2.25
 -12  19  -9   -1.98    2.08
 -12  19  -8   -2.04    1.96
 -12  19  -7    0.80    2.19
 -12  19  -6    3.42    2.25
 -12  19  -5    2.57    2.13
 -12  19  -4    0.92    1.98
 -12  19  -3    1.67    2.07
 -12  19  -2    4.38    2.11
 -12  19  -1    3.96    2.13
 -12  19   0    1.07    1.89
 -12  19   1    8.33    2.35
 -12  19   2    1.24    1.84
 -12  19   2    0.35    1.90
 -12  19   3    1.03    1.76
 -12  19   3    2.48    2.04
 -12  19   4    1.99    1.95
 -12  19   4    0.93    1.95
 -12  19   5    4.07    2.15
 -12  19   5    1.01    1.91
 -12  19   6    0.26    1.87
 -12  19   6    0.34    2.11
 -12  19   7    3.00    2.34
 -12  19   7    5.58    2.34
 -12  19   8    1.86    2.36
 -12  19   8   -1.34    2.26
 -12  19   9    3.52    2.53
 -12  19   9   -0.62    2.31
 -13  20  -8   -1.36    2.10
 -13  20  -7   -0.42    2.13
 -13  20  -6    1.21    2.08
 -13  20  -5    0.00    2.06
 -13  20  -4    2.77    2.21
 -13  20  -3    0.37    2.03
 -13  20  -2    2.98    2.10
 -13  20  -1   -1.14    1.89
 -13  20   0    4.58    2.21
 -13  20   1   -1.29    1.82
 -13  20   2    4.94    2.25
 -13  20   3    0.89    1.79
 -13  20   3   -1.11    1.93
 -13  20   4    2.52    2.06
 -13  20   4    3.21    2.05
 -13  20   5    1.59    2.06
 -13  20   5    3.72    1.95
 -13  20   6    0.90    1.88
 -13  20   6   -2.33    2.02
 -13  20   7    0.09    2.16
 -13  20   7   -3.27    1.96
 -13  20   8   -0.64    1.92
 -13  20   8   -1.30    1.89
 -14  21  -6   -0.55    2.12
 -14  21  -5    1.61    2.21
 -14  21  -4   -1.03    2.07
 -14  21  -3    4.50    2.26
 -14  21  -2   -0.85    1.83
 -14  21  -1   -2.18    1.84
 -14  21   0    0.14    1.99
 -14  21   1    3.17    2.21
 -14  21   2    1.73    2.10
 -14  21   3    4.21    2.19
 -14  21   4   -0.94    1.93
 -14  21   4    0.60    1.86
 -14  21   5    0.00    2.08
 -14  21   5   -0.93    1.95
 -14  21   6    1.99    2.29
 -14  21   6   -1.41    1.93
 -15  22  -4    1.72    2.22
 -15  22  -3    2.79    2.16
 -15  22  -2    3.59    2.16
 -15  22  -1    1.25    2.13
 -15  22   0    1.38    2.00
 -15  22   1   -1.58    1.94
 -15  22   2   -0.34    2.08
 -15  22   3    3.69    2.23
 -15  22   4    0.33    2.12
  22 -14  -5   -1.51    2.23
  22 -14  -4    2.97    2.40
 -22  14   4    7.00    2.42
  22 -14  -3   -0.60    2.07
 -22  14   3    2.69    1.99
 -22  14   2    1.88    1.90
 -22  14   1   -0.51    1.73
 -22  14   0    0.66    1.87
 -22  14  -1    0.00    1.79
 -22  14  -2    4.66    2.00
 -22  14  -3   -0.41    1.75
 -22  14  -3    0.48    2.03
 -22  14  -4    5.89    2.40
 -22  14  -4    8.97    2.41
 -22  14  -5   -0.79    1.73
  21 -13  -7    3.42    2.61
  21 -13  -6   -1.66    2.29
 -21  13   6   -1.11    1.80
  21 -13  -5    2.54    2.36
 -21  13   5    0.66    1.91
  21 -13  -4    0.90    1.81
 -21  13   4    3.90    2.31
  21 -13  -3    5.99    2.34
 -21  13   3    8.45    2.24
  21 -13  -2   -0.84    0.86
 -21  13   2   -0.22    1.74
  21 -13  -1   -1.00    1.76
 -21  13   1   -1.99    1.66
 -21  13   0    7.27    2.06
 -21  13  -1    2.31    1.80
 -21  13  -1   -1.52    1.75
 -21  13  -2   -0.52    0.83
 -21  13  -2    2.59    2.03
 -21  13  -3    4.93    1.90
 -21  13  -3    3.68    2.09
 -21  13  -4    2.43    2.08
 -21  13  -4    3.19    2.03
 -21  13  -5    1.36    2.18
 -21  13  -5    3.94    1.71
 -21  13  -6   -3.57    1.95
 -21  13  -6    1.29    1.88
  20 -12  -8    0.00    2.04
 -20  12   8   -0.86    1.87
  20 -12  -7    3.10    2.50
 -20  12   7    3.03    2.07
  20 -12  -6    1.31    2.31
 -20  12   6    1.54    1.89
  20 -12  -5    0.94    2.19
 -20  12   5    3.90    2.06
  20 -12  -4   -1.12    1.61
 -20  12   4   -0.72    1.70
  20 -12  -3   -1.45    1.89
 -20  12   3    0.97    1.81
  20 -12  -2   -0.43    1.87
 -20  12   2    2.53    1.77
  20 -12  -1    6.41    2.02
 -20  12   1    5.44    2.26
  20 -12   0    2.16    2.03
 -20  12   0    4.08    1.84
 -20  12   0    5.53    2.00
 -20  12  -1    0.54    1.96
 -20  12  -1    4.36    1.86
 -20  12  -2   -0.86    1.80
 -20  12  -2   -2.04    1.77
 -20  12  -3    3.51    1.75
 -20  12  -3    0.93    1.66
 -20  12  -4   -0.61    1.53
 -20  12  -4    0.81    1.93
 -20  12  -5   -2.34    1.94
 -20  12  -5    1.30    1.82
 -20  12  -6   -1.67    1.35
 -20  12  -6   -1.99    2.02
 -20  12  -7    3.56    2.38
 -20  12  -8    0.95    1.96
  19 -11  -9    1.52    2.16
 -19  11   9    0.79    1.90
  19 -11  -8    1.49    2.03
 -19  11   8    2.90    2.02
  19 -11  -7    2.06    2.40
 -19  11   7   -0.07    1.85
  19 -11  -6    3.87    2.36
 -19  11   6    7.83    2.19
  19 -11  -5   -1.84    2.02
 -19  11   5    0.59    1.80
  19 -11  -4   -1.60    1.91
 -19  11   4    0.56    1.71
  19 -11  -3   -0.76    1.53
 -19  11   3    3.23    1.80
  19 -11  -2    3.44    1.75
 -19  11   2   -0.47    1.57
  19 -11  -1   -0.34    0.72
 -19  11   1    1.52    1.66
 -19  11   1    1.13    1.63
  19 -11   0   24.74    2.68
 -19  11   0   24.23    2.88
 -19  11   0   22.78    2.61
  19 -11   1    1.93    1.89
 -19  11  -1    5.40    2.10
 -19  11  -1   -0.41    0.79
 -19  11  -2    4.38    2.03
 -19  11  -2    0.95    1.85
 -19  11  -3    2.11    1.91
 -19  11  -3    1.72    1.77
 -19  11  -4    0.85    1.95
 -19  11  -4    2.12    1.55
 -19  11  -5    1.47    1.76
 -19  11  -5    0.84    1.92
 -19  11  -6    5.27    2.04
 -19  11  -6    6.29    1.99
 -19  11  -7    1.68    2.26
 -19  11  -8    1.96    2.00
 -19  11  -9   -0.91    1.87
  18 -10 -10   -1.87    1.90
  18 -10  -9   -1.95    2.28
  18 -10  -8    6.15    2.59
 -18  10   8    6.45    2.19
  18 -10  -7   13.55    2.62
 -18  10   7   15.73    2.68
  18 -10  -6    1.34    1.83
 -18  10   6    1.97    1.78
  18 -10  -5    3.53    1.94
 -18  10   5    7.23    2.09
  18 -10  -4   -0.68    1.60
 -18  10   4    2.85    1.75
  18 -10  -3    2.66    1.99
 -18  10   3    1.25    1.60
  18 -10  -2    0.76    1.89
 -18  10   2    2.12    1.92
 -18  10   2    1.41    1.75
  18 -10  -1    9.97    1.88
 -18  10   1   16.13    2.29
 -18  10   1   17.85    2.34
  18 -10   0   13.35    2.27
 -18  10   0   11.61    2.15
 -18  10   0   11.02    2.03
  18 -10   1   17.92    2.47
 -18  10  -1   15.99    2.28
 -18  10  -1   21.63    2.45
  18 -10   2    2.02    1.68
 -18  10  -2    3.71    1.63
 -18  10  -2    1.10    1.47
 -18  10  -3    0.99    1.56
 -18  10  -3    0.46    1.64
 -18  10  -4   -0.18    1.58
 -18  10  -4    1.01    1.58
 -18  10  -5    4.39    1.82
 -18  10  -5    8.03    1.92
 -18  10  -6   -2.52    1.63
 -18  10  -6    0.20    1.62
 -18  10  -7   12.04    2.38
 -18  10  -8    3.34    2.37
 -18  10  -9    0.55    1.88
 -18  10 -10    1.65    2.47
  17  -9 -11   -2.09    1.98
  17  -9 -10   -1.77    1.99
  17  -9  -9    3.15    2.04
  17  -9  -8    1.04    1.97
 -17   9   8    1.64    1.75
  17  -9  -7    5.54    2.45
 -17   9   7   10.83    2.25
  17  -9  -6    5.86    2.04
 -17   9   6    4.38    1.87
  17  -9  -5    6.89    2.29
 -17   9   5    7.24    1.96
  17  -9  -4   -0.20    1.94
 -17   9   4   -1.94    1.44
  17  -9  -3    1.13    1.91
 -17   9   3   -0.27    1.46
 -17   9   3    1.26    1.57
  17  -9  -2    1.26    1.86
 -17   9   2    1.23    1.73
 -17   9   2    1.94    1.57
  17  -9  -1   15.68    2.34
 -17   9   1   12.30    2.08
 -17   9   1   12.47    2.14
  17  -9   0    0.08    1.35
 -17   9   0    3.18    1.62
 -17   9   0    0.38    1.25
  17  -9   1    8.92    2.21
 -17   9  -1   16.69    2.36
 -17   9  -1    9.26    2.07
  17  -9   2   -0.10    1.61
 -17   9  -2   -0.26    1.49
 -17   9  -2    0.61    1.64
  17  -9   3    0.63    1.70
 -17   9  -3   -0.20    1.53
 -17   9  -3    1.93    1.54
 -17   9  -4    0.07    1.29
 -17   9  -4   -1.13    1.48
 -17   9  -5    8.07    2.02
 -17   9  -5    8.06    1.81
 -17   9  -6    4.07    1.69
 -17   9  -6    3.08    1.81
 -17   9  -7    8.00    2.43
 -17   9  -7    7.75    1.99
 -17   9  -8    0.24    1.81
 -17   9  -9   -0.79    1.83
 -17   9 -10   -3.07    1.67
 -17   9 -11   -0.18    1.96
  16  -8 -12   -1.45    2.01
  16  -8 -11    0.16    2.02
  16  -8 -10    0.90    2.07
  16  -8  -9    2.22    2.00
  16  -8  -8   -0.68    1.85
 -16   8   8    1.54    1.76
  16  -8  -7   -1.21    2.03
 -16   8   7    1.76    1.74
  16  -8  -6   10.29    2.48
 -16   8   6    9.27    2.10
  16  -8  -5    8.87    2.31
 -16   8   5    7.56    1.98
  16  -8  -4   12.04    2.46
 -16   8   4    8.46    2.00
  16  -8  -3    5.12    1.87
 -16   8   3    5.53    1.82
 -16   8   3    4.30    1.88
  16  -8  -2    3.83    1.80
 -16   8   2    5.51    1.99
 -16   8   2    2.96    1.75
  16  -8  -1    7.00    1.85
 -16   8   1    7.27    1.92
 -16   8   1    6.86    1.78
  16  -8   0    2.79    1.16
 -16   8   0   16.40    2.05
 -16   8   0    4.75    1.25
  16  -8   1    6.81    2.00
 -16   8  -1    3.74    1.60
 -16   8  -1    5.89    2.03
  16  -8   2    3.45    1.90
 -16   8  -2    4.53    2.01
 -16   8  -2    2.33    1.67
  16  -8   3    6.53    1.83
 -16   8  -3    6.56    1.81
 -16   8  -3    8.02    1.89
  16  -8   4   10.38    2.05
 -16   8  -4    6.13    1.84
 -16   8  -4   10.93    1.75
 -16   8  -5    7.73    1.58
 -16   8  -5    6.69    1.93
 -16   8  -6    8.19    2.02
 -16   8  -6   14.08    1.98
 -16   8  -7    5.07    2.26
 -16   8  -7    3.58    1.75
 -16   8  -8    0.92    1.81
 -16   8  -9    1.27    1.91
 -16   8 -10    1.07    1.92
 -16   8 -11    2.98    2.03
 -16   8 -12    0.81    2.00
  15  -7 -12    2.02    2.17
  15  -7 -11   -0.21    2.05
  15  -7 -10    4.10    2.11
  15  -7  -9   -0.29    1.84
  15  -7  -8    4.70    1.99
  15  -7  -7    1.19    2.12
 -15   7   7    1.79    1.62
  15  -7  -6    3.53    1.85
 -15   7   6    1.76    1.68
  15  -7  -5    0.16    1.70
 -15   7   5   -0.67    1.53
  15  -7  -4   13.10    2.25
 -15   7   4   12.12    2.10
  15  -7  -3   18.13    2.58
 -15   7   3   19.15    2.34
 -15   7   3   20.16    2.37
  15  -7  -2    5.80    1.77
 -15   7   2    1.73    1.64
 -15   7   2    1.35    1.47
  15  -7  -1   17.50    2.21
 -15   7   1   23.13    2.45
 -15   7   1   17.89    2.20
  15  -7   0   -0.87    1.65
 -15   7   0   -0.12    1.30
 -15   7   0    0.05    1.59
  15  -7   1   21.48    2.42
 -15   7  -1   21.70    2.21
 -15   7  -1   23.79    2.60
  15  -7   2    6.49    1.83
 -15   7  -2    5.50    1.93
 -15   7  -2    4.78    1.46
  15  -7   3   15.76    2.22
 -15   7  -3   15.46    2.38
 -15   7  -3   19.24    2.01
  15  -7   4   19.29    2.31
 -15   7  -4   15.46    2.02
 -15   7  -4   16.57    2.29
  15  -7   5    5.03    1.69
 -15   7  -5    1.88    1.51
 -15   7  -5    2.77    1.79
 -15   7  -6    2.34    1.72
 -15   7  -6    2.35    1.56
 -15   7  -7    1.88    1.51
 -15   7  -7   -1.73    1.97
 -15   7  -8    3.96    1.89
 -15   7  -9   -0.23    1.80
 -15   7 -10    7.94    2.19
 -15   7 -11    1.63    1.90
 -15   7 -12    0.74    1.96
  14  -6 -13    0.27    2.15
  14  -6 -12   -1.02    1.98
  14  -6 -11    5.80    2.62
  14  -6 -10   -0.06    1.88
  14  -6  -9    9.07    2.47
  14  -6  -8    3.33    1.88
  14  -6  -7    7.85    2.07
  14  -6  -6    5.07    1.95
 -14   6   6    7.01    1.84
  14  -6  -5   29.09    3.09
 -14   6   5   34.46    2.97
  14  -6  -4    3.55    1.79
 -14   6   4    3.16    1.57
  14  -6  -3  101.74    5.01
 -14   6   3   95.98    4.66
 -14   6   3   96.07    4.61
  14  -6  -2    1.38    1.61
 -14   6   2    0.25    1.31
 -14   6   2    3.60    1.64
  14  -6  -1   25.19    2.55
 -14   6   1   19.19    2.09
  14  -6   0   72.59    3.91
 -14   6   0   60.14    3.38
 -14   6   0   67.95    3.55
 -14   6  -1   25.02    2.17
 -14   6  -1   21.68    2.31
  14  -6   2    5.02    1.75
 -14   6  -2    1.00    1.35
 -14   6  -2    1.84    1.74
  14  -6   3   84.44    4.39
 -14   6  -3   90.77    4.14
 -14   6  -3   93.08    4.64
  14  -6   4    2.24    1.64
 -14   6  -4    4.09    1.39
 -14   6  -4    1.48    1.61
  14  -6   5   29.93    2.66
 -14   6  -5   26.34    2.20
 -14   6  -5   27.74    2.75
  14  -6   6    5.87    1.58
 -14   6  -6    7.70    2.05
 -14   6  -6    5.65    1.46
 -14   6  -7    6.81    1.62
 -14   6  -7    4.53    1.89
 -14   6  -8    4.97    1.93
 -14   6  -9    5.15    2.22
 -14   6 -10    1.92    1.81
 -14   6 -11    7.28    2.49
 -14   6 -12   -1.40    1.72
 -14   6 -13   -0.74    1.88
  13  -5 -13    2.05    2.23
  13  -5 -12    1.33    2.02
  13  -5 -11    2.55    2.11
  13  -5 -10   16.64    2.65
  13  -5  -9    0.20    1.77
  13  -5  -8   -0.60    1.64
  13  -5  -7   19.53    2.58
  13  -5  -6    4.77    1.87
 -13   5   6    3.53    1.65
  13  -5  -5   23.07    2.79
 -13   5   5   24.54    2.47
  13  -5  -4   43.01    3.22
 -13   5   4   48.15    3.08
  13  -5  -3   29.81    2.68
 -13   5   3   30.75    2.58
 -13   5   3   25.43    2.40
  13  -5  -2   19.50    2.21
 -13   5   2   10.82    1.56
  13  -5  -1   24.73    2.30
 -13   5   1   25.32    2.26
 -13   5   1   24.76    2.13
  13  -5   0   13.98    2.07
 -13   5   0   14.59    1.81
 -13   5   0   14.70    2.02
  13  -5   1   29.02    2.60
 -13   5  -1   25.11    2.17
 -13   5  -1   29.85    2.46
  13  -5   2   19.16    2.11
 -13   5  -2   17.51    1.79
 -13   5  -2   15.94    2.02
  13  -5   3   23.56    2.43
 -13   5  -3   27.37    2.46
 -13   5  -3   30.49    2.15
  13  -5   4   42.16    2.94
 -13   5  -4   44.00    3.03
 -13   5  -4   45.28    2.66
  13  -5   5   19.94    2.22
 -13   5  -5   26.63    2.11
 -13   5  -5   19.61    2.43
  13  -5   6    5.50    1.59
 -13   5  -6    4.41    1.32
 -13   5  -6    2.23    1.75
  13  -5   7   22.75    2.28
 -13   5  -7   16.56    2.45
 -13   5  -7   18.68    1.93
  13  -5   8    4.44    1.44
 -13   5  -8    1.60    1.83
 -13   5  -9    1.45    1.72
 -13   5 -10    8.15    2.17
 -13   5 -11    4.83    2.05
 -13   5 -12   -1.62    1.72
 -13   5 -13    5.97    2.18
  12  -4 -14    2.10    2.72
  12  -4 -13    5.52    2.38
  12  -4 -12    1.68    2.12
  12  -4 -11    1.14    1.90
  12  -4 -10    8.57    2.23
  12  -4  -9   14.13    2.42
  12  -4  -8    5.62    1.94
  12  -4  -7   37.69    3.23
  12  -4  -6    8.98    2.01
  12  -4  -5    8.28    1.95
 -12   4   5    9.15    1.77
  12  -4  -4   30.75    2.72
 -12   4   4   28.19    2.47
  12  -4  -3   24.60    2.36
 -12   4   3   24.27    2.19
  12  -4  -2   39.35    3.01
 -12   4   2   40.24    2.50
  12  -4  -1   65.58    3.53
 -12   4   1   63.77    3.38
 -12   4   1   58.82    3.08
  12  -4   0    1.31    1.58
 -12   4   0    2.53    1.04
 -12   4   0    1.05    1.20
  12  -4   1   64.63    3.50
 -12   4  -1   63.37    3.32
 -12   4  -1   61.06    3.06
 -12   4  -2   39.34    2.28
 -12   4  -2   37.49    2.84
  12  -4   3   25.90    2.43
 -12   4  -3   28.21    2.42
 -12   4  -3   26.56    1.98
  12  -4   4   24.34    2.38
 -12   4  -4   24.33    2.35
 -12   4  -4   24.77    1.93
  12  -4   5   11.70    1.76
 -12   4  -5    7.61    1.87
 -12   4  -5   12.29    1.51
  12  -4   6    7.97    1.73
 -12   4  -6    9.10    1.41
 -12   4  -6    7.45    1.90
  12  -4   7   34.21    2.81
 -12   4  -7   36.45    2.33
 -12   4  -7   40.06    3.25
  12  -4   8    6.73    1.65
 -12   4  -8    3.67    1.88
  12  -4   9   17.60    2.09
 -12   4  -9   16.81    2.45
 -12   4 -10    8.33    2.09
 -12   4 -11    5.46    2.03
 -12   4 -12    0.42    2.15
 -12   4 -13    6.17    2.25
 -12   4 -14   -0.41    1.86
  11  -3 -14    2.74    2.61
  11  -3 -13    1.71    2.14
  11  -3 -12   -1.55    1.84
  11  -3 -11    2.99    1.96
  11  -3 -10   11.56    2.34
  11  -3  -9    7.83    2.11
  11  -3  -8    4.62    1.87
  11  -3  -7   10.35    2.07
  11  -3  -6    4.23    1.75
  11  -3  -5    7.53    1.80
  11  -3  -4    8.16    1.73
 -11   3   4    9.82    1.56
  11  -3  -3   38.84    2.73
 -11   3   3   35.76    2.39
  11  -3  -2    7.27    1.56
 -11   3   2    6.91    1.29
 -11   3   2    5.24    1.28
  11  -3  -1   18.08    1.90
 -11   3   1   12.52    1.60
 -11   3   1   13.69    1.64
  11  -3   0   21.14    2.20
 -11   3   0   21.86    2.00
 -11   3   0   22.63    1.85
  11  -3   1   16.11    1.84
 -11   3  -1   17.39    1.83
 -11   3  -1   16.73    1.56
  11  -3   2    4.52    1.48
 -11   3  -2    3.72    1.51
 -11   3  -2    6.98    1.09
 -11   3  -3   37.21    2.74
 -11   3  -3   37.74    2.07
  11  -3   4    8.27    1.62
 -11   3  -4    6.62    1.58
 -11   3  -4    8.66    1.15
  11  -3   5    7.07    1.55
 -11   3  -5    4.80    1.66
 -11   3  -5    6.13    1.12
  11  -3   6    6.82    1.57
 -11   3  -6   10.36    1.94
 -11   3  -6    6.84    1.19
  11  -3   7   11.77    1.78
 -11   3  -7   13.47    1.44
 -11   3  -7   10.57    2.05
  11  -3   8    5.15    1.64
 -11   3  -8    2.98    1.80
  11  -3   9   12.19    1.84
 -11   3  -9    5.86    2.00
  11  -3  10   12.87    2.01
 -11   3 -10   13.73    2.34
 -11   3 -11    5.84    2.00
 -11   3 -12    4.25    2.01
 -11   3 -13    2.60    1.98
 -11   3 -14    0.13    2.21
  10  -2 -14    2.53    2.16
  10  -2 -13    0.60    2.26
  10  -2 -12   -0.77    1.84
  10  -2 -11    4.67    2.06
  10  -2 -10   17.52    2.85
  10  -2  -9    7.80    2.10
  10  -2  -8    1.77    1.72
  10  -2  -7   16.30    2.29
  10  -2  -6   22.15    2.41
  10  -2  -5   11.56    1.92
  10  -2  -4   69.18    3.66
  10  -2  -3   50.91    3.13
 -10   2   3   44.66    2.58
  10  -2  -2   24.68    2.18
 -10   2   2   25.11    2.17
 -10   2   2   25.20    1.83
  10  -2  -1   14.82    1.78
 -10   2   1   16.67    1.50
 -10   2   1   17.15    1.83
  10  -2   0   39.88    2.67
 -10   2   0   37.63    2.54
 -10   2   0   37.85    2.10
  10  -2   1   14.62    1.70
 -10   2  -1   13.45    1.28
 -10   2  -1   15.70    1.87
  10  -2   2   24.85    2.20
 -10   2  -2   19.43    1.96
  10  -2   3   47.58    2.80
 -10   2  -3   43.90    2.10
 -10   2  -3   42.06    2.65
 -10   2  -4   67.94    2.83
 -10   2  -4   67.63    3.48
  10  -2   5   13.41    1.78
 -10   2  -5   14.54    1.24
 -10   2  -5   11.08    1.82
  10  -2   6   30.49    2.36
 -10   2  -6   26.16    2.50
 -10   2  -6   25.62    1.71
  10  -2   7   21.98    2.16
 -10   2  -7   11.94    2.16
 -10   2  -7   17.44    1.46
  10  -2   8    4.78    1.52
 -10   2  -8    0.10    1.67
  10  -2   9    5.32    1.61
 -10   2  -9    4.97    1.88
  10  -2  10   18.06    2.27
 -10   2 -10   15.05    2.55
  10  -2  11    9.26    1.87
 -10   2 -11    9.22    2.35
 -10   2 -12   -2.39    1.57
 -10   2 -13    0.65    1.80
 -10   2 -14   -1.29    1.81
   9  -1 -15    5.61    2.43
   9  -1 -14    0.37    2.00
   9  -1 -13    0.33    1.81
   9  -1 -12    8.66    2.27
   9  -1 -11   24.73    3.07
   9  -1 -10    1.63    2.14
   9  -1  -9   32.51    3.08
   9  -1  -8   34.31    3.01
   9  -1  -7   11.41    2.05
   9  -1  -6   13.74    1.99
   9  -1  -5   55.10    3.25
   9  -1  -4   14.90    1.83
   9  -1  -3  214.67    8.19
   9  -1  -2    6.49    1.56
  -9   1   2    7.85    1.32
   9  -1  -1   28.96    2.15
  -9   1   1   28.87    2.18
  -9   1   1   26.21    1.80
   9  -1   0  154.64    6.08
  -9   1   0  155.11    5.99
  -9   1   0  152.38    5.62
   9  -1   1   29.26    2.30
  -9   1  -1   25.66    1.54
  -9   1  -1   27.52    2.18
   9  -1   2    7.30    1.38
  -9   1  -2    9.35    1.62
  -9   1  -2    7.86    0.88
   9  -1   3  221.94    8.01
  -9   1  -3  203.86    7.23
  -9   1  -3  207.24    7.86
   9  -1   4   17.87    1.91
  -9   1  -4   16.26    1.80
  -9   1  -4   14.29    1.05
  -9   1  -5   51.09    2.98
  -9   1  -5   50.31    2.13
  -9   1  -6   14.58    1.16
  -9   1  -6   14.07    1.95
   9  -1   7   14.13    1.83
  -9   1  -7   12.87    1.18
  -9   1  -7   10.74    2.23
   9  -1   8   33.57    2.70
  -9   1  -8   34.26    2.94
   9  -1   9   31.88    2.81
  -9   1  -9   33.03    3.00
   9  -1  10    2.62    1.54
  -9   1 -10    5.70    1.89
   9  -1  11   21.79    2.51
  -9   1 -11   21.85    2.82
   9  -1  12   11.00    2.20
  -9   1 -12    8.48    2.10
  -9   1 -13    0.60    1.76
  -9   1 -14    2.81    2.26
  -9   1 -15    1.83    2.32
   8   0 -15    0.48    2.00
   8   0 -14    2.40    2.07
   8   0 -13    3.99    2.34
   8   0 -12    4.88    2.34
   8   0 -11    6.57    1.98
   8   0 -10   21.38    2.68
   8   0  -9    7.67    1.95
   8   0  -8   38.82    3.03
   8   0  -7   10.01    2.13
   8   0  -6   37.14    2.73
   8   0  -5   24.89    2.30
   8   0  -4  107.41    4.72
   8   0  -3   37.11    2.47
   8   0  -2   73.69    3.50
   8   0  -1   80.84    3.68
  -8   0   1   72.88    3.52
   8   0   0   50.62    2.72
  -8   0   0   51.23    2.62
  -8   0   0   47.55    2.23
   8   0   1   81.97    3.76
  -8   0  -1   75.77    3.03
  -8   0  -1   78.18    3.54
   8   0   2   73.44    3.45
  -8   0  -2   76.10    2.83
  -8   0  -2   68.94    3.38
   8   0   3   38.67    2.52
  -8   0  -3   35.27    2.36
  -8   0  -3   39.15    1.65
   8   0   4  112.33    4.78
  -8   0  -4  106.00    4.63
  -8   0  -4  111.01    3.85
   8   0   5   26.74    2.24
  -8   0  -5   22.98    1.13
  -8   0  -5   23.45    2.11
   8   0   6   37.53    2.43
  -8   0  -6   32.90    2.55
  -8   0  -6   34.93    1.56
   8   0   7    9.76    1.59
  -8   0  -7    9.54    2.05
  -8   0  -7    9.40    0.93
   8   0   8   14.12    1.71
  -8   0  -9    8.69    2.24
  -8   0 -10   22.67    2.61
   8   0  11    0.29    1.15
  -8   0 -11    2.85    1.75
   8   0  12    4.60    1.83
  -8   0 -12    2.52    1.76
   8   0  13    4.54    1.91
  -8   0 -13    2.18    1.78
  -8   0 -14   -0.31    1.69
  -8   0 -15    1.54    2.24
   7   1 -15    2.83    2.42
   7   1 -14    5.87    2.42
   7   1 -13    3.26    1.97
   7   1 -12    0.29    1.68
   7   1 -11    1.07    1.93
   7   1 -10   11.30    2.15
   7   1  -9   22.76    2.55
   7   1  -8   16.71    2.42
   7   1  -7   53.68    3.27
   7   1  -6   15.32    1.96
   7   1  -5   27.40    2.28
   7   1  -4  190.16    7.33
   7   1  -3   25.56    2.02
   7   1  -2    9.66    1.45
   7   1  -1  105.92    4.54
  -7  -1   1  111.44    4.52
   7   1   0   14.35    1.57
  -7  -1   0   17.01    1.58
   7   1   1  119.00    4.76
  -7  -1  -1  106.83    4.53
   7   1   2    7.58    1.32
  -7  -1  -2   10.13    1.36
   7   1   3   28.70    2.03
  -7  -1  -3   26.82    2.03
   7   1   4  187.96    7.12
  -7  -1  -4  183.10    7.02
  -7  -1  -4  186.07    6.11
   7   1   5   24.91    2.08
  -7  -1  -5   22.60    1.99
   7   1   6   13.00    1.73
  -7  -1  -6   18.36    1.95
  -7  -1  -6   16.09    0.79
   7   1   7   45.19    2.87
  -7  -1  -7   46.44    1.89
  -7  -1  -7   51.17    3.07
   7   1   8   16.66    2.16
  -7  -1  -8   14.00    2.04
   7   1   9   22.33    2.56
  -7  -1  -9   25.91    2.76
   7   1  10   15.04    2.15
  -7  -1 -10   13.91    2.44
   7   1  11    4.29    1.81
  -7  -1 -11    2.91    1.97
   7   1  12    1.89    1.71
  -7  -1 -12    1.92    1.68
   7   1  13    4.59    1.81
  -7  -1 -13    1.42    1.70
   7   1  14   -0.81    1.09
  -7  -1 -14    4.30    2.17
  -7  -1 -15    0.77    1.83
   6   2 -15   -2.01    2.14
   6   2 -14    1.88    2.17
   6   2 -13    6.66    2.08
   6   2 -12    2.70    2.00
   6   2 -11   -1.31    1.49
   6   2 -10    0.28    1.60
   6   2  -9    9.78    2.20
   6   2  -8    3.51    1.83
   6   2  -7   47.83    3.26
   6   2  -6   50.59    2.96
   6   2  -5    2.59    1.26
   6   2  -4   33.77    2.29
   6   2  -3    5.18    1.22
   6   2  -2    6.02    1.44
   6   2  -1   36.23    2.19
   6   2   0   16.86    1.65
  -6  -2   0   16.89    1.54
   6   2   1   35.55    2.21
  -6  -2  -1   41.32    2.20
   6   2   2    8.46    1.31
  -6  -2  -2    8.31    1.24
   6   2   3    6.02    1.39
  -6  -2  -3    3.95    1.15
   6   2   4   33.17    2.31
  -6  -2  -4   32.47    2.16
   6   2   5    3.22    1.14
  -6  -2  -5    3.14    1.37
   6   2   6   52.21    2.90
  -6  -2  -6   49.47    2.86
   6   2   7   42.68    2.84
  -6  -2  -7   36.87    2.59
  -6  -2  -7   37.10    1.51
   6   2   8    0.04    1.30
  -6  -2  -8    3.05    1.49
   6   2   9   14.79    2.23
  -6  -2  -9   11.73    2.00
   6   2  10    0.62    1.43
  -6  -2 -10   -0.28    1.54
   6   2  11    1.14    1.40
  -6  -2 -11    1.78    1.81
   6   2  12    1.03    1.79
  -6  -2 -12   -0.01    1.52
   6   2  13    3.79    1.98
  -6  -2 -13    5.98    1.93
   6   2  14    4.36    2.07
  -6  -2 -14    3.14    2.08
   6   2  15    0.03    1.92
  -6  -2 -15   -2.35    1.59
   5   3 -15    1.66    2.17
   5   3 -14    0.36    1.74
   5   3 -13   24.61    3.05
   5   3 -12    3.83    1.85
   5   3 -11   12.41    2.15
   5   3 -10    1.31    1.90
   5   3  -9   22.41    2.42
   5   3  -8   54.89    3.31
   5   3  -7  109.04    4.99
   5   3  -6    1.93    1.42
   5   3  -5  181.98    7.01
   5   3  -4   64.52    3.15
   5   3  -3   69.22    3.26
   5   3  -2   20.31    1.75
   5   3  -1  177.26    6.67
   5   3   0  277.14    9.81
  -5  -3   0  272.52    9.68
   5   3   1  166.94    6.45
  -5  -3  -1  174.98    6.37
   5   3   2   22.63    1.80
   5   3   2   19.05    0.93
  -5  -3  -2   21.47    1.65
   5   3   3   72.92    3.36
  -5  -3  -3   70.55    3.20
   5   3   4   56.28    2.99
  -5  -3  -4   64.75    3.00
   5   3   5  165.94    6.58
  -5  -3  -5  169.90    6.42
   5   3   6    0.45    1.13
  -5  -3  -6    0.06    1.02
   5   3   7  104.92    4.75
  -5  -3  -7  102.33    4.65
  -5  -3  -7  103.55    3.56
   5   3   8   50.89    3.36
  -5  -3  -8   54.45    3.05
  -5  -3  -8   46.44    2.00
   5   3   9   23.44    2.59
  -5  -3  -9   22.04    2.48
   5   3  10    1.09    1.81
  -5  -3 -10    0.25    1.46
   5   3  11   11.54    2.11
  -5  -3 -11   10.77    2.22
   5   3  12    2.02    1.63
  -5  -3 -12    4.44    1.95
   5   3  13   22.28    2.98
  -5  -3 -13   19.14    2.75
   5   3  14    2.86    1.68
  -5  -3 -14    1.88    1.99
   5   3  15    2.83    1.85
  -5  -3 -15    2.19    2.14
   4   4 -15   -1.62    2.04
   4   4 -14   13.77    2.65
   4   4 -13   -0.46    1.67
   4   4 -12    7.89    2.15
   4   4 -11    2.73    1.85
   4   4 -10    0.31    1.47
   4   4  -9    1.76    1.48
   4   4  -8   86.56    4.36
   4   4  -7   29.17    2.29
   4   4  -6   89.75    4.08
   4   4  -5   33.95    2.38
   4   4  -4   60.90    2.98
   4   4  -3    3.45    1.09
   4   4  -2   16.45    1.57
   4   4  -1    0.16    0.90
   4   4   0  683.81   23.04
   4   4   1    0.13    0.49
   4   4   1   -0.33    0.86
  -4  -4  -1    0.28    0.83
   4   4   2   14.89    0.86
   4   4   2   15.81    1.57
  -4  -4  -2   18.15    1.57
   4   4   3    3.09    0.27
   4   4   3    3.51    1.08
  -4  -4  -3    0.98    0.91
   4   4   4   66.11    3.28
  -4  -4  -4   62.06    2.96
   4   4   5   31.13    2.36
  -4  -4  -5   31.97    2.09
   4   4   6   81.25    4.06
  -4  -4  -6   86.84    3.73
  -4  -4  -6   81.42    2.77
   4   4   7   32.14    2.61
  -4  -4  -7   30.88    1.34
  -4  -4  -7   28.65    2.37
   4   4   8   70.85    3.89
  -4  -4  -8   72.67    2.78
  -4  -4  -8   72.85    3.76
   4   4   9    2.69    1.81
  -4  -4  -9    3.08    1.63
   4   4  10    1.47    1.56
  -4  -4 -10    0.20    1.36
   4   4  11    1.66    1.51
  -4  -4 -11   -0.04    1.39
   4   4  12    6.31    1.90
  -4  -4 -12    8.37    1.80
   4   4  13   -0.64    1.55
  -4  -4 -13    1.53    1.83
   4   4  14   19.51    2.89
  -4  -4 -14   14.29    2.46
   4   4  15   -1.26    1.89
  -4  -4 -15   -0.10    1.87
   3   5 -15    3.05    2.19
   3   5 -14    1.11    1.91
   3   5 -13   20.59    2.70
   3   5 -12    2.19    1.86
   3   5 -11   11.06    2.19
   3   5 -10    2.65    1.71
   3   5  -9   26.83    2.47
   3   5  -8   60.07    3.45
   3   5  -7  105.24    4.60
   3   5  -6    1.12    1.10
   3   5  -5  163.56    6.25
   3   5  -4   61.99    3.03
   3   5  -3   81.97    3.63
   3   5  -2   21.20    1.66
   3   5  -1  172.99    6.47
   3   5   0  282.24    9.90
   3   5   0  276.43    9.52
   3   5   1  167.03    6.25
   3   5   1  170.28    5.80
  -3  -5  -1  161.10    6.12
   3   5   2   20.59    1.19
   3   5   2   21.80    1.71
  -3  -5  -2   22.51    1.72
   3   5   3   69.19    2.64
   3   5   3   75.16    3.36
  -3  -5  -3   73.49    3.16
   3   5   4   59.51    2.07
   3   5   4   57.94    3.02
  -3  -5  -4   57.49    2.85
   3   5   5  165.24    6.52
  -3  -5  -5  162.82    6.20
   3   5   6    0.34    1.13
  -3  -5  -6    0.78    1.15
   3   5   7  101.31    4.69
  -3  -5  -7   97.51    4.33
   3   5   8   49.74    3.28
  -3  -5  -8   55.12    2.92
   3   5   9   21.64    2.54
  -3  -5  -9   23.04    2.31
   3   5  10   -0.77    1.54
  -3  -5 -10    0.36    1.56
   3   5  11   14.31    2.50
  -3  -5 -11   10.31    1.97
   3   5  12    4.64    1.89
  -3  -5 -12    3.87    1.56
   3   5  13   21.25    3.01
  -3  -5 -13   21.04    2.58
   3   5  14    1.65    1.81
  -3  -5 -14    0.18    1.78
   3   5  15    0.23    2.14
   2   6 -15    2.93    2.28
   2   6 -14    3.32    2.16
   2   6 -13    1.99    1.88
   2   6 -13    7.33    2.29
   2   6 -12    0.46    1.67
   2   6 -12    2.36    1.81
   2   6 -11   -0.71    1.54
   2   6 -10    1.48    1.61
   2   6  -9   12.82    1.99
   2   6  -8    1.76    1.47
   2   6  -7   38.49    2.58
   2   6  -6   55.16    2.90
   2   6  -5    4.27    1.30
   2   6  -4   32.24    2.18
   2   6  -4   32.75    2.01
   2   6  -3    5.21    1.24
   2   6  -3    6.14    1.34
   2   6  -2    7.86    1.15
   2   6  -2    7.46    1.08
   2   6  -1   17.32    1.27
   2   6   0   16.53    1.26
   2   6   0   17.24    1.61
   2   6   1   37.64    1.84
   2   6   1   41.76    2.23
   2   6   2    6.90    1.22
   2   6   2    7.44    0.93
  -2  -6  -2    7.19    1.06
   2   6   3    3.99    1.12
   2   6   3    3.98    0.74
  -2  -6  -3    5.84    1.04
   2   6   4   33.59    2.22
   2   6   4   31.38    1.46
  -2  -6  -4   37.69    2.11
   2   6   5    3.75    0.56
   2   6   5    2.39    1.19
  -2  -6  -5    5.85    1.08
   2   6   6   52.51    3.07
  -2  -6  -6   51.72    2.62
   2   6   7   37.12    2.75
  -2  -6  -7   40.37    2.36
   2   6   8    1.60    1.70
  -2  -6  -8    3.34    1.35
   2   6   9   11.97    2.31
  -2  -6  -9   13.02    1.81
   2   6  10    0.81    1.61
  -2  -6 -10    2.15    1.49
   2   6  11    0.48    1.56
  -2  -6 -11    0.12    1.49
   2   6  12    0.97    1.64
  -2  -6 -12    0.74    1.49
   2   6  13    9.02    2.46
  -2  -6 -13    3.70    1.90
   2   6  14    2.17    2.16
   2   6  15   -1.74    1.69
   1   7 -15   -0.58    2.42
   1   7 -14    2.70    2.15
   1   7 -13    4.52    2.19
   1   7 -12    3.23    1.97
   1   7 -12   -0.48    1.55
   1   7 -11    3.59    1.95
   1   7 -11    2.81    1.61
   1   7 -10   15.61    2.10
   1   7 -10   14.46    2.47
   1   7  -9   22.26    2.26
   1   7  -9   23.33    2.72
   1   7  -8   16.33    2.30
   1   7  -8   15.99    1.93
   1   7  -7   46.91    2.74
   1   7  -7   50.08    3.20
   1   7  -6   16.10    1.99
   1   7  -6   20.20    1.87
   1   7  -5   22.96    2.07
   1   7  -5   21.76    1.81
   1   7  -4  193.26    7.36
   1   7  -4  196.84    7.19
   1   7  -3   29.45    2.00
   1   7  -3   28.11    1.93
   1   7  -2    7.69    1.13
   1   7  -2    9.11    1.23
   1   7  -1  108.01    4.35
   1   7  -1  110.74    4.28
   1   7   0   12.36    1.29
   1   7   0   10.91    1.06
   1   7   1  101.02    4.21
   1   7   1  105.35    4.00
   1   7   2    9.38    1.09
   1   7   2    8.23    1.27
   1   7   3   25.53    1.95
   1   7   3   27.16    1.64
  -1  -7  -3   28.44    1.82
   1   7   4  189.07    7.17
   1   7   4  181.93    6.48
  -1  -7  -4  185.09    6.72
   1   7   5   24.76    1.36
   1   7   5   22.89    2.11
  -1  -7  -5   22.60    1.80
   1   7   6   15.72    1.13
   1   7   6   14.61    1.89
  -1  -7  -6   13.24    1.49
   1   7   7   47.09    3.08
  -1  -7  -7   46.96    2.60
   1   7   8   15.70    2.21
  -1  -7  -8   13.18    1.73
   1   7   9   21.77    2.58
  -1  -7  -9   20.32    2.12
   1   7  10   13.08    2.23
  -1  -7 -10   11.55    1.77
   1   7  11    3.45    1.84
  -1  -7 -11    3.68    1.52
   1   7  12   -3.13    1.44
  -1  -7 -12    1.92    1.50
   1   7  13    1.93    2.12
   1   7  14    0.95    2.20
   1   7  15    3.07    1.98
   0   8 -15    1.99    2.23
   0   8 -14    1.09    2.05
   0   8 -13    2.76    2.13
   0   8 -12    3.82    2.05
   0   8 -11    3.18    1.84
   0   8 -11    3.40    1.68
   0   8 -10   26.04    2.36
   0   8 -10   24.85    2.66
   0   8  -9    6.63    2.07
   0   8  -9    7.93    1.62
   0   8  -8   35.80    2.70
   0   8  -8   38.48    2.65
   0   8  -7   10.29    1.90
   0   8  -7   11.15    1.70
   0   8  -6   36.17    2.67
   0   8  -6   35.93    2.37
   0   8  -5   26.33    1.98
   0   8  -5   26.04    2.26
   0   8  -4  111.94    4.53
   0   8  -4  117.14    4.87
   0   8  -3   39.76    2.22
   0   8  -3   41.53    2.43
   0   8  -2   73.75    3.27
   0   8  -2   68.50    3.16
   0   8  -1   74.97    3.28
   0   8  -1   79.32    3.37
   0   8   0   44.82    2.32
   0   8   1   70.31    3.29
   0   8   1   77.31    3.25
   0   8   2   72.62    3.24
   0   8   2   74.94    3.39
   0   8   3   36.88    2.31
   0   8   3   35.60    2.04
   0   8   4  108.29    4.68
   0   8   4  104.75    4.18
   0  -8  -4  107.40    4.20
   0   8   5   23.18    2.15
   0   8   5   21.68    1.47
   0  -8  -5   23.28    1.66
   0   8   6   31.29    2.67
   0   8   6   34.34    1.84
   0  -8  -6   36.79    2.12
   0   8   7    9.87    1.15
   0   8   7   11.15    1.93
   0  -8  -7    7.66    1.33
   0   8   8   35.04    3.03
   0  -8  -8   32.99    2.24
   0   8   9   11.19    2.13
   0  -8  -9    6.99    1.63
   0   8  10   22.91    3.00
   0  -8 -10   24.01    2.23
   0   8  11    3.53    1.82
   0  -8 -11    3.47    1.53
   0   8  12   10.33    2.27
   0   8  13    8.99    2.59
   0   8  14    2.39    1.99
   0   8  15    0.04    1.92
  -1   9 -15    3.80    2.38
  -1   9 -14    0.17    2.10
  -1   9 -13    2.19    2.16
  -1   9 -12    8.06    2.38
  -1   9 -11   24.82    3.07
  -1   9 -10    3.53    1.51
  -1   9 -10    5.15    2.10
  -1   9  -9   33.93    2.58
  -1   9  -9   35.79    3.28
  -1   9  -8   41.13    2.65
  -1   9  -8   39.28    3.29
  -1   9  -7   13.59    2.10
  -1   9  -7   12.48    1.61
  -1   9  -6   13.32    1.99
  -1   9  -6   14.83    1.62
  -1   9  -5   57.45    3.21
  -1   9  -5   53.53    2.66
  -1   9  -4   16.01    1.47
  -1   9  -4   17.88    1.90
  -1   9  -3  225.94    8.34
  -1   9  -3  223.02    8.03
  -1   9  -2    8.03    1.36
  -1   9  -2    7.06    1.12
  -1   9  -1   23.82    1.75
  -1   9  -1   23.95    1.82
  -1   9   0  155.73    5.92
  -1   9   0  154.72    5.90
  -1   9   2    8.22    1.39
  -1   9   2    4.43    1.13
  -1   9   3  199.82    7.36
  -1   9   3  196.64    7.53
  -1   9   4   13.76    1.77
  -1   9   4   15.89    1.55
  -1   9   5   55.00    3.10
  -1   9   5   51.86    2.56
   1  -9  -5   50.64    2.53
  -1   9   6   11.94    2.01
  -1   9   6   15.71    1.54
   1  -9  -6   16.46    1.56
  -1   9   7   14.39    1.43
  -1   9   7   14.78    2.15
   1  -9  -7   13.68    1.54
  -1   9   8   37.00    3.22
  -1   9   8   36.64    2.26
   1  -9  -8   36.19    2.37
  -1   9   9   30.22    3.04
   1  -9  -9   33.94    2.38
  -1   9  10    0.55    1.64
   1  -9 -10    2.42    1.39
  -1   9  11   20.72    2.79
  -1   9  12    8.48    2.21
  -1   9  13    0.47    1.88
  -1   9  14    0.55    1.92
  -1   9  15    1.22    2.46
  -2  10 -14   -1.65    1.96
  -2  10 -13    4.10    2.26
  -2  10 -12    0.93    1.96
  -2  10 -11    8.57    2.28
  -2  10 -10   15.29    2.55
  -2  10  -9    4.57    2.02
  -2  10  -8    0.15    1.75
  -2  10  -8    3.70    1.29
  -2  10  -7   20.29    1.78
  -2  10  -7   16.89    2.32
  -2  10  -6   25.73    2.60
  -2  10  -6   35.02    2.11
  -2  10  -5   13.03    1.43
  -2  10  -5   13.40    2.01
  -2  10  -4   72.70    3.15
  -2  10  -4   68.97    3.65
  -2  10  -3   45.55    2.74
  -2  10  -3   42.94    2.22
  -2  10  -2   23.38    1.76
  -2  10  -2   25.68    2.11
  -2  10  -1   16.59    1.51
  -2  10  -1   14.21    1.65
  -2  10   0   35.78    2.27
  -2  10   0   36.45    2.19
  -2  10   1   15.50    1.55
  -2  10   1   15.29    1.69
  -2  10   2   24.16    2.06
  -2  10   3   40.36    2.56
  -2  10   3   46.97    2.71
  -2  10   4   64.49    3.36
  -2  10   4   61.92    3.22
  -2  10   5   14.96    1.64
  -2  10   5   10.79    1.73
  -2  10   6   28.70    2.07
  -2  10   6   31.25    2.72
   2 -10  -6   27.49    1.84
  -2  10   7   17.73    1.72
  -2  10   7   13.45    2.13
   2 -10  -7   18.89    1.67
  -2  10   8    2.99    1.76
  -2  10   8    3.92    1.26
   2 -10  -8    4.42    1.17
  -2  10   9    5.48    1.29
  -2  10   9    7.58    2.02
  -2  10  10   17.09    2.54
  -2  10  11    7.16    2.14
  -2  10  12   -1.23    1.66
  -2  10  13    1.50    1.95
  -2  10  14   -0.36    2.36
  -3  11 -14    1.34    2.22
  -3  11 -13   -2.25    1.89
  -3  11 -12   -0.18    1.97
  -3  11 -11    7.66    2.27
  -3  11 -10   15.88    2.60
  -3  11  -9   14.06    2.46
  -3  11  -8    5.35    2.04
  -3  11  -7   12.11    2.25
  -3  11  -7   14.00    1.51
  -3  11  -6    6.81    1.93
  -3  11  -6    6.43    1.21
  -3  11  -5    6.02    1.10
  -3  11  -5    5.40    1.75
  -3  11  -4    6.16    1.66
  -3  11  -4   10.07    1.22
  -3  11  -3   37.29    2.66
  -3  11  -3   39.13    2.14
  -3  11  -2    5.84    1.08
  -3  11  -2    7.84    1.52
  -3  11  -1   12.69    1.70
  -3  11  -1   12.89    1.43
  -3  11   0   19.20    1.68
  -3  11   0   21.71    2.06
  -3  11   1   17.00    1.88
  -3  11   1   15.58    1.68
  -3  11   2    5.91    1.25
  -3  11   2    5.25    1.42
  -3  11   4    7.60    1.54
  -3  11   4    8.03    1.64
  -3  11   5    6.20    1.47
  -3  11   5    6.69    1.69
  -3  11   6    6.31    1.46
  -3  11   6    5.17    1.69
  -3  11   7   10.96    2.05
  -3  11   7   13.47    1.76
  -3  11   8    4.54    1.37
  -3  11   8    4.84    1.88
  -3  11   9    8.47    2.14
  -3  11   9    9.46    1.58
  -3  11  10   16.36    1.87
  -3  11  10   13.19    2.42
  -3  11  11    2.84    1.89
  -3  11  12    2.46    1.99
  -3  11  13    1.52    2.07
  -3  11  14    2.78    2.08
  -4  12 -14    2.15    2.37
  -4  12 -13    8.29    2.92
  -4  12 -12   -1.07    1.97
  -4  12 -11    3.38    2.14
  -4  12 -10   11.77    2.51
  -4  12  -9   21.37    2.88
  -4  12  -8    5.98    2.13
  -4  12  -7   37.61    3.34
  -4  12  -6   11.09    2.17
  -4  12  -6    9.07    1.18
  -4  12  -5   10.21    1.23
  -4  12  -5    8.49    1.97
  -4  12  -4   23.50    1.70
  -4  12  -4   22.73    2.42
  -4  12  -3   22.40    2.29
  -4  12  -3   24.54    1.73
  -4  12  -2   39.64    2.21
  -4  12  -2   34.73    2.68
  -4  12  -1   54.69    3.32
  -4  12  -1   65.81    2.98
  -4  12   0    1.39    1.09
  -4  12   0    0.05    1.30
  -4  12   1   65.06    3.48
  -4  12   1   60.42    3.20
  -4  12   2   33.99    2.36
  -4  12   2   37.55    2.69
  -4  12   3   25.16    2.38
  -4  12   3   29.67    2.55
  -4  12   4   30.33    2.61
  -4  12   4   17.08    2.10
  -4  12   5    3.56    1.05
  -4  12   5   10.22    1.81
  -4  12   6    9.46    2.15
  -4  12   6    7.26    1.72
  -4  12   7   32.41    3.08
  -4  12   7   39.28    2.85
  -4  12   8    3.99    1.83
  -4  12   8    7.35    1.64
  -4  12   9   19.58    2.18
  -4  12   9   14.88    2.43
  -4  12  10   14.80    1.96
  -4  12  10   11.75    2.37
  -4  12  11    3.69    1.93
  -4  12  12    4.20    2.12
  -4  12  13    2.61    2.18
  -4  12  14    0.50    2.02
  -5  13 -13    4.61    2.48
  -5  13 -12   -2.99    1.97
  -5  13 -11    6.95    2.45
  -5  13 -10   13.16    2.62
  -5  13  -9    2.01    2.00
  -5  13  -8   -2.14    1.75
  -5  13  -7   16.29    2.58
  -5  13  -6    6.28    2.04
  -5  13  -5   22.77    2.60
  -5  13  -5   22.94    1.63
  -5  13  -4   45.85    2.34
  -5  13  -4   48.55    3.30
  -5  13  -3   26.84    1.90
  -5  13  -3   23.29    2.49
  -5  13  -2   18.35    2.00
  -5  13  -2   16.89    1.63
  -5  13  -1   20.93    2.41
  -5  13  -1   26.82    2.04
  -5  13   0   11.56    1.98
  -5  13   0   13.74    1.64
  -5  13   1   26.61    2.27
  -5  13   1   26.12    2.59
  -5  13   2   18.30    2.48
  -5  13   2   15.92    1.84
  -5  13   3   26.49    2.57
  -5  13   3   29.06    2.74
  -5  13   4   51.17    3.41
  -5  13   4   48.78    3.33
  -5  13   5   17.92    2.26
  -5  13   5   24.84    2.63
  -5  13   6    5.40    1.78
  -5  13   7   22.02    2.68
  -5  13   7   20.32    2.39
  -5  13   8    1.82    1.32
  -5  13   8    2.49    1.72
  -5  13   9   -0.08    1.61
  -5  13   9    3.43    1.50
  -5  13  10   15.85    2.19
  -5  13  10   15.68    2.57
  -5  13  11    8.22    2.34
  -5  13  11    6.83    1.72
  -5  13  12   -0.01    1.88
  -5  13  13    4.60    2.50
  -6  14 -13   -0.56    2.23
  -6  14 -12    0.77    2.22
  -6  14 -11   10.03    2.58
  -6  14 -10    2.37    2.11
  -6  14  -9    8.95    2.39
  -6  14  -8    3.96    2.07
  -6  14  -7    3.72    1.99
  -6  14  -6    0.71    1.90
  -6  14  -5   28.42    2.64
  -6  14  -4    3.57    1.84
  -6  14  -4    3.18    1.02
  -6  14  -3   91.85    4.68
  -6  14  -3   90.92    3.83
  -6  14  -2    1.66    1.13
  -6  14  -2    1.32    1.74
  -6  14  -1   20.05    1.94
  -6  14  -1   19.81    2.45
  -6  14   0   65.89    3.89
  -6  14   0   65.44    3.34
  -6  14   1   20.68    2.17
  -6  14   1   24.78    2.67
  -6  14   2    2.62    1.54
  -6  14   2    1.96    1.72
  -6  14   3   94.11    4.53
  -6  14   3   94.62    4.89
  -6  14   4    4.72    1.84
  -6  14   4    1.24    1.73
  -6  14   5   32.60    3.05
  -6  14   5   28.51    2.92
  -6  14   6    5.94    2.01
  -6  14   6    3.38    1.78
  -6  14   7    7.34    2.01
  -6  14   7    2.47    1.61
  -6  14   8    6.14    1.91
  -6  14   9    9.28    2.01
  -6  14   9    8.40    2.22
  -6  14  10   -0.12    1.80
  -6  14  10   -0.24    1.21
  -6  14  11    9.85    2.40
  -6  14  11   11.27    2.00
  -6  14  12    4.11    2.24
  -6  14  13    3.80    2.52
  -7  15 -12   -1.38    2.13
  -7  15 -11    1.19    2.19
  -7  15 -10    1.33    2.12
  -7  15  -9    0.66    1.96
  -7  15  -8    2.32    1.92
  -7  15  -7   -1.41    1.73
  -7  15  -6    2.13    1.87
  -7  15  -5    3.15    1.91
  -7  15  -4   14.89    2.41
  -7  15  -3   18.02    1.70
  -7  15  -3   17.40    2.52
  -7  15  -2    4.05    1.33
  -7  15  -2    5.50    1.99
  -7  15  -1   22.17    1.99
  -7  15  -1   21.44    2.67
  -7  15   0   -0.02    1.76
  -7  15   0    1.50    1.29
  -7  15   1   20.97    2.22
  -7  15   1   19.35    2.82
  -7  15   2    0.81    1.83
  -7  15   2    3.88    1.66
  -7  15   3   19.47    2.87
  -7  15   3   22.75    2.57
  -7  15   4   13.84    2.40
  -7  15   4   13.87    2.16
  -7  15   5    2.23    1.72
  -7  15   5    0.58    1.61
  -7  15   6    1.45    1.93
  -7  15   6    3.54    1.73
  -7  15   7   -0.78    1.60
  -7  15   7   -1.64    1.66
  -7  15   8    1.71    1.73
  -7  15   8    3.78    1.87
  -7  15   9    2.25    1.29
  -7  15   9    3.03    1.96
  -7  15  10    2.05    0.94
  -7  15  10    1.68    1.99
  -7  15  11    0.00    1.83
  -7  15  11    0.61    1.36
  -7  15  12    0.23    1.98
  -8  16 -12    1.65    2.36
  -8  16 -11    1.66    2.28
  -8  16 -10   -0.68    2.05
  -8  16  -9   -1.78    1.92
  -8  16  -8    0.76    1.91
  -8  16  -7    3.48    2.09
  -8  16  -6    6.00    2.05
  -8  16  -5   11.52    2.34
  -8  16  -4    6.33    2.09
  -8  16  -3    6.53    2.16
  -8  16  -2    3.24    1.56
  -8  16  -2    6.06    1.42
  -8  16  -1    6.11    2.09
  -8  16  -1    7.74    1.49
  -8  16   0   16.84    2.55
  -8  16   0   19.74    2.18
  -8  16   1    7.77    1.78
  -8  16   1    5.64    2.42
  -8  16   2    2.19    1.93
  -8  16   2    4.98    1.83
  -8  16   3    6.16    2.15
  -8  16   3    5.23    1.68
  -8  16   4   12.41    2.62
  -8  16   4   10.20    2.01
  -8  16   5    8.57    1.95
  -8  16   5    9.15    2.38
  -8  16   6    8.72    2.09
  -8  16   6   10.76    2.43
  -8  16   7    4.77    2.14
  -8  16   7    0.63    1.76
  -8  16   8   -1.44    1.88
  -8  16   8   -0.01    1.74
  -8  16   9    4.64    2.13
  -8  16   9    4.30    1.81
  -8  16  10    2.31    1.81
  -8  16  10   -0.36    1.87
  -8  16  11    1.89    0.79
  -8  16  11    0.04    2.23
  -8  16  12    1.22    2.03
  -9  17 -11    0.78    2.22
  -9  17 -10    0.80    2.19
  -9  17  -9    2.89    2.20
  -9  17  -8    1.68    2.11
  -9  17  -7    6.90    2.22
  -9  17  -6    4.85    2.11
  -9  17  -5    4.46    2.05
  -9  17  -4   -3.41    1.69
  -9  17  -3   -0.27    1.78
  -9  17  -2   -1.74    1.81
  -9  17  -1   11.78    1.79
  -9  17  -1   14.07    2.49
  -9  17   0    2.15    1.51
  -9  17   0    1.39    1.91
  -9  17   1   14.05    2.03
  -9  17   1   13.74    2.52
  -9  17   2    1.42    1.59
  -9  17   2    3.11    2.32
  -9  17   3   -0.93    1.75
  -9  17   3    3.63    1.80
  -9  17   4   -1.73    1.67
  -9  17   4   -1.20    1.68
  -9  17   5    1.96    1.82
  -9  17   5    6.24    1.89
  -9  17   6    0.01    1.99
  -9  17   6    5.88    2.33
  -9  17   7   12.20    2.51
  -9  17   7   11.51    2.38
  -9  17   8   -1.31    1.61
  -9  17   8    1.51    1.92
  -9  17   9    4.18    2.11
  -9  17   9    3.44    2.19
  -9  17  10   -1.11    1.78
  -9  17  10   -2.57    1.72
  -9  17  11   -1.58    1.85
  -9  17  11    0.56    1.54
 -10  18 -10   -2.46    2.05
 -10  18  -9    0.77    2.18
 -10  18  -8    3.72    2.23
 -10  18  -7   13.31    2.65
 -10  18  -6   -3.03    1.83
 -10  18  -5    7.25    2.28
 -10  18  -4   -0.54    1.84
 -10  18  -3    0.87    1.88
 -10  18  -2    0.50    1.98
 -10  18  -1   16.49    2.57
 -10  18   0   11.37    2.00
 -10  18   0   10.37    2.37
 -10  18   1   24.56    3.06
 -10  18   1   21.87    2.50
 -10  18   2    0.94    1.83
 -10  18   2    0.08    1.60
 -10  18   3    4.62    1.91
 -10  18   3    2.50    1.99
 -10  18   4    1.32    1.55
 -10  18   4    2.93    1.96
 -10  18   5    5.17    2.40
 -10  18   5    7.39    1.99
 -10  18   6    4.61    2.08
 -10  18   6    2.52    1.92
 -10  18   7   11.50    2.51
 -10  18   7   11.20    2.68
 -10  18   8    4.15    2.53
 -10  18   8    4.60    2.18
 -10  18   9   -0.22    1.75
 -10  18   9    3.13    2.43
 -10  18  10   -2.18    1.79
 -10  18  10   -2.37    1.86
 -11  19  -9    4.04    2.37
 -11  19  -8    5.76    2.42
 -11  19  -7    2.87    2.20
 -11  19  -6    4.34    2.25
 -11  19  -5    1.51    2.01
 -11  19  -4   -1.37    1.88
 -11  19  -3    0.27    1.93
 -11  19  -2    0.23    2.01
 -11  19  -1   -1.84    1.70
 -11  19   0   21.16    2.89
 -11  19   1    2.17    2.28
 -11  19   2   -0.20    1.64
 -11  19   2    2.01    1.99
 -11  19   3   -2.33    1.67
 -11  19   3    0.76    1.91
 -11  19   4    1.44    1.92
 -11  19   4    0.16    1.83
 -11  19   5    1.59    1.98
 -11  19   5    1.94    1.76
 -11  19   6    7.05    2.44
 -11  19   6    8.41    2.41
 -11  19   7   -0.57    2.17
 -11  19   7   -1.75    1.81
 -11  19   8    2.60    2.42
 -11  19   8    5.94    2.45
 -11  19   9   -0.83    2.09
 -11  19   9   -0.52    1.94
 -12  20  -8    0.20    2.23
 -12  20  -7    2.33    2.24
 -12  20  -6    1.72    2.15
 -12  20  -5    5.44    2.36
 -12  20  -4   -0.70    1.94
 -12  20  -3    2.14    2.04
 -12  20  -2    0.83    2.00
 -12  20  -1    5.14    2.20
 -12  20   0    3.48    2.05
 -12  20   1    6.98    2.31
 -12  20   2   -0.24    1.94
 -12  20   3    5.62    2.56
 -12  20   3    2.84    1.87
 -12  20   4    1.86    1.73
 -12  20   4   -0.79    1.81
 -12  20   5    5.54    2.29
 -12  20   5    0.37    1.99
 -12  20   6   -1.70    1.78
 -12  20   6   -1.15    1.72
 -12  20   7    6.40    2.76
 -12  20   7    3.23    2.35
 -12  20   8    1.56    2.13
 -12  20   8    2.56    2.47
 -13  21  -6    1.91    2.24
 -13  21  -5    2.32    2.18
 -13  21  -4   -1.24    1.97
 -13  21  -3    0.48    2.04
 -13  21  -2   -0.80    2.02
 -13  21  -1   -0.58    1.90
 -13  21   0   -0.06    2.31
 -13  21   1    0.70    2.00
 -13  21   2   -1.18    2.33
 -13  21   3    1.08    2.11
 -13  21   4   -1.57    1.94
 -13  21   4    0.19    2.02
 -13  21   5    3.23    2.23
 -13  21   5    4.19    2.29
 -13  21   6    0.62    2.09
 -13  21   6   -1.73    2.10
 -14  22  -5    2.56    2.63
 -14  22  -4    5.12    2.37
 -14  22  -3    0.85    2.07
 -14  22  -2    2.23    2.17
 -14  22  -1    2.62    2.14
 -14  22   0    0.59    2.09
 -14  22   1    1.07    2.10
 -14  22   2    5.51    2.70
 -14  22   3    0.87    2.39
 -14  22   4    7.94    2.48
 -23  14   1    1.74    2.24
 -23  14   0    1.77    2.27
 -23  14  -1    2.32    1.96
  22 -13  -5    0.84    2.05
 -22  13   5   -2.61    1.77
  22 -13  -4    5.27    2.53
 -22  13   4    7.65    2.35
  22 -13  -3   -2.06    2.00
 -22  13   3    2.09    2.26
  22 -13  -2    0.41    1.45
 -22  13   2    1.66    1.87
 -22  13   1   -2.70    1.65
 -22  13   0    1.00    1.81
 -22  13  -1    1.20    1.83
 -22  13  -2    0.44    1.34
 -22  13  -2    3.32    1.89
 -22  13  -3   -1.26    2.10
 -22  13  -3    0.85    1.68
 -22  13  -4    9.34    2.34
 -22  13  -4    7.61    2.23
 -22  13  -5    0.21    1.82
 -22  13  -5    1.53    2.02
  21 -12  -7   -0.82    2.39
 -21  12   7   -2.41    1.76
  21 -12  -6    0.23    1.99
 -21  12   6    0.14    1.82
  21 -12  -5    0.85    1.94
 -21  12   5   -1.41    1.81
  21 -12  -4    2.29    2.28
 -21  12   4    2.60    1.93
  21 -12  -3   -0.33    2.01
 -21  12   3    3.14    1.94
  21 -12  -2    0.00    1.59
 -21  12   2   -1.36    1.64
  21 -12  -1   -1.37    1.59
 -21  12   1   -1.72    1.60
 -21  12   0    4.15    2.18
 -21  12  -1   -1.74    1.69
 -21  12  -1   -0.48    1.57
 -21  12  -2    2.02    2.05
 -21  12  -2    2.47    1.79
 -21  12  -3   -0.22    2.05
 -21  12  -3    3.01    1.69
 -21  12  -4    3.43    1.91
 -21  12  -4    1.63    1.60
 -21  12  -5    2.44    1.94
 -21  12  -5    3.38    1.91
 -21  12  -6   -0.23    1.84
 -21  12  -7   -1.09    1.81
  20 -11  -8   -0.43    2.40
 -20  11   8   -0.29    1.90
  20 -11  -7    5.86    2.35
 -20  11   7    5.06    2.17
  20 -11  -6    8.60    2.38
 -20  11   6    7.24    2.23
  20 -11  -5   -0.87    1.84
 -20  11   5    4.51    2.05
  20 -11  -4   -0.65    1.73
 -20  11   4    3.94    1.97
  20 -11  -3    0.70    2.07
 -20  11   3    0.41    2.01
  20 -11  -2    1.44    1.93
 -20  11   2    2.30    1.80
  20 -11  -1   -1.01    0.85
 -20  11   1    4.36    1.83
 -20  11   1    4.93    1.98
  20 -11   0    2.34    2.01
 -20  11   0   -1.08    1.77
 -20  11   0    0.54    1.93
  20 -11   1    5.00    2.01
 -20  11  -1   -0.73    0.92
 -20  11  -1    3.93    1.78
 -20  11  -2    0.10    1.78
 -20  11  -2    1.66    2.07
 -20  11  -3   -0.20    1.41
 -20  11  -3   -0.10    1.71
 -20  11  -4    0.44    1.74
 -20  11  -4    0.16    2.04
 -20  11  -5    1.14    2.11
 -20  11  -5    3.10    1.87
 -20  11  -6    9.05    2.55
 -20  11  -7    3.32    2.06
 -20  11  -8    2.80    2.42
  19 -10  -9    2.35    2.28
  19 -10  -8    0.58    2.09
 -19  10   8    4.59    2.13
  19 -10  -7   16.51    3.06
 -19  10   7   13.75    2.81
  19 -10  -6   10.20    2.65
 -19  10   6    3.93    2.09
  19 -10  -5    6.73    2.39
 -19  10   5    3.07    1.88
  19 -10  -4   -0.43    2.09
 -19  10   4    2.04    1.69
  19 -10  -3   -0.26    2.02
 -19  10   3    4.65    2.16
  19 -10  -2    2.07    2.00
 -19  10   2    3.44    1.85
 -19  10   2    2.19    1.99
  19 -10  -1   12.93    2.41
 -19  10   1   13.99    2.23
 -19  10   1   10.87    2.34
  19 -10   0    8.96    2.19
 -19  10   0    2.95    1.66
 -19  10   0    7.39    2.01
  19 -10   1   12.12    2.28
 -19  10  -1    9.60    1.97
 -19  10  -1   13.26    2.36
  19 -10   2    2.16    2.02
 -19  10  -2    3.80    2.13
 -19  10  -2    1.88    1.56
 -19  10  -3   -0.03    1.90
 -19  10  -3    3.45    1.58
 -19  10  -4    1.43    1.72
 -19  10  -4    2.12    1.75
 -19  10  -5    2.90    1.74
 -19  10  -5    1.86    1.83
 -19  10  -6    2.65    1.91
 -19  10  -7   16.05    2.84
 -19  10  -8    1.43    1.97
 -19  10  -9   -1.70    1.87
  18  -9 -10    0.43    2.24
  18  -9  -9    0.10    2.40
  18  -9  -8   15.24    3.11
 -18   9   8   13.97    2.56
  18  -9  -7    0.95    1.98
 -18   9   7    3.50    1.93
  18  -9  -6   12.01    2.77
 -18   9   6    9.98    2.30
  18  -9  -5   -1.54    2.05
 -18   9   5    0.94    1.75
  18  -9  -4   17.53    2.72
 -18   9   4   13.50    2.34
  18  -9  -3   -1.38    1.93
 -18   9   3   -1.87    1.63
 -18   9   3   -0.63    1.53
  18  -9  -2    2.07    1.93
 -18   9   2    1.10    1.57
 -18   9   2    3.52    1.90
  18  -9  -1    4.45    2.03
 -18   9   1    5.89    1.97
 -18   9   1    6.27    1.78
  18  -9   1    7.16    1.99
 -18   9  -1    4.97    1.79
 -18   9  -1    8.28    1.79
  18  -9   2    3.66    1.89
 -18   9  -2    2.07    1.50
 -18   9  -2    3.65    1.97
  18  -9   3    3.21    1.77
 -18   9  -3   -1.19    1.82
 -18   9  -3    0.61    1.58
 -18   9  -4   13.39    2.12
 -18   9  -4   12.25    2.39
 -18   9  -5    2.16    2.06
 -18   9  -5   -0.29    1.43
 -18   9  -6   11.71    2.06
 -18   9  -6   11.05    2.51
 -18   9  -7    3.00    1.98
 -18   9  -8   16.76    2.96
 -18   9  -9    2.06    2.31
 -18   9 -10   -2.05    1.84
  17  -8 -11    3.03    2.33
  17  -8 -10    1.22    2.12
  17  -8  -9    3.19    2.54
  17  -8  -8   -2.01    2.23
  17  -8  -7    5.60    2.11
 -17   8   7    8.84    2.19
  17  -8  -6    4.21    2.36
 -17   8   6    3.51    1.77
  17  -8  -5    8.57    2.39
 -17   8   5    7.70    2.02
  17  -8  -4    0.22    1.94
 -17   8   4   -0.67    1.52
  17  -8  -3   -1.37    1.90
 -17   8   3   -0.57    1.57
 -17   8   3    0.57    1.54
  17  -8  -2   -0.02    1.60
 -17   8   2   -1.20    1.59
 -17   8   2   -0.39    1.76
  17  -8  -1   10.53    2.24
 -17   8   1   14.72    2.13
 -17   8   1   13.37    2.24
  17  -8   0    1.60    1.55
 -17   8   0    1.63    1.74
 -17   8   0    2.26    1.76
  17  -8   1   11.61    2.21
 -17   8  -1   11.74    1.92
 -17   8  -1   15.24    2.38
  17  -8   2    2.63    1.95
 -17   8  -2    0.58    1.65
 -17   8  -2    0.10    1.54
  17  -8   3    0.67    1.63
 -17   8  -3    2.45    1.70
 -17   8  -3   -0.72    1.45
  17  -8   4   -0.42    1.61
 -17   8  -4   -0.02    1.18
 -17   8  -4    1.31    1.60
 -17   8  -5    8.69    1.74
 -17   8  -5    9.13    2.06
 -17   8  -6    4.73    2.18
 -17   8  -6    6.44    1.62
 -17   8  -7    8.99    2.19
 -17   8  -8    0.14    2.16
 -17   8  -9    6.20    2.53
 -17   8 -10   -1.46    1.95
 -17   8 -11   -1.19    1.86
  16  -7 -12    1.42    2.24
  16  -7 -11    4.35    2.32
  16  -7 -10   -0.05    1.93
  16  -7  -9    3.49    2.46
  16  -7  -8    2.39    2.33
  16  -7  -7    1.79    1.85
 -16   7   7    5.44    1.87
  16  -7  -6   11.06    2.33
 -16   7   6   11.44    2.18
  16  -7  -5    3.86    1.95
 -16   7   5    5.88    1.84
  16  -7  -4    1.77    1.73
 -16   7   4    0.29    1.57
  16  -7  -3    8.06    2.11
 -16   7   3   15.09    2.26
 -16   7   3   16.26    2.46
  16  -7  -2    8.36    2.24
 -16   7   2    2.53    1.88
 -16   7   2    5.32    1.75
  16  -7  -1   11.00    2.29
 -16   7   1    9.62    1.89
  16  -7   0   10.90    2.31
 -16   7   0   10.19    2.05
 -16   7   0   15.74    2.36
 -16   7  -1    8.55    1.91
 -16   7  -1    9.16    2.17
  16  -7   2    2.39    1.86
 -16   7  -2    4.63    1.85
 -16   7  -2    3.59    1.47
  16  -7   3   11.28    2.17
 -16   7  -3   11.23    1.72
 -16   7  -3   13.10    2.40
  16  -7   4    2.29    1.76
 -16   7  -4   -0.46    1.55
 -16   7  -4    1.18    1.42
  16  -7   5    6.53    1.86
 -16   7  -5    6.15    1.57
 -16   7  -5    4.04    1.79
 -16   7  -6    6.67    2.05
 -16   7  -6   10.41    1.80
 -16   7  -7    2.34    1.89
 -16   7  -8    3.95    1.93
 -16   7  -9   -0.34    2.20
 -16   7 -10   -1.40    1.89
 -16   7 -11   -1.00    1.93
 -16   7 -12    0.47    1.98
  15  -6 -12   -2.12    2.03
  15  -6 -11    1.42    2.43
  15  -6 -10    8.70    2.71
  15  -6  -9    6.62    2.22
  15  -6  -8    0.02    1.81
  15  -6  -7    6.08    2.10
  15  -6  -6    1.10    1.77
 -15   6   6    1.89    1.58
  15  -6  -5   10.76    2.51
 -15   6   5   13.07    2.14
  15  -6  -4   13.99    2.30
 -15   6   4   11.40    2.04
  15  -6  -3    9.99    2.16
 -15   6   3   10.15    1.90
 -15   6   3   11.27    2.16
  15  -6  -2   24.53    2.68
 -15   6   2   29.44    2.76
 -15   6   2   31.09    2.64
  15  -6  -1   21.04    2.41
 -15   6   1   20.07    2.42
 -15   6   1   17.42    2.10
  15  -6   0   38.14    3.27
 -15   6   0   32.44    2.64
 -15   6   0   40.12    3.14
  15  -6   1   17.51    2.21
 -15   6  -1   19.94    2.19
 -15   6  -1   19.17    2.26
  15  -6   2   27.75    2.78
 -15   6  -2   24.35    2.60
 -15   6  -2   29.54    2.48
  15  -6   3    7.44    2.09
 -15   6  -3    9.45    2.23
 -15   6  -3   10.83    1.56
  15  -6   4   13.92    2.18
 -15   6  -4   12.98    1.78
 -15   6  -4   12.83    2.14
  15  -6   5   15.66    2.21
 -15   6  -5   14.22    1.78
 -15   6  -5   12.25    2.19
  15  -6   6    0.25    1.45
 -15   6  -6    0.06    1.32
 -15   6  -6    2.16    1.75
 -15   6  -7    5.64    1.99
 -15   6  -8   -1.59    1.65
 -15   6  -9    2.54    2.03
 -15   6 -10    6.96    2.48
 -15   6 -11    2.79    2.33
 -15   6 -12    0.16    1.95
  14  -5 -13    1.21    2.23
  14  -5 -12    5.12    2.33
  14  -5 -11    1.40    2.03
  14  -5 -10   14.94    2.64
  14  -5  -9    2.64    1.91
  14  -5  -8    6.64    2.14
  14  -5  -7   12.04    2.57
  14  -5  -6   24.47    2.86
  14  -5  -5    4.03    1.94
 -14   5   5    3.40    1.63
  14  -5  -4   49.58    3.52
 -14   5   4   53.35    3.37
  14  -5  -3   32.84    3.01
 -14   5   3   35.38    2.81
 -14   5   3   33.55    2.94
  14  -5  -2   68.50    4.06
 -14   5   2   61.75    3.50
  14  -5  -1   13.41    2.08
 -14   5   1    6.47    1.57
 -14   5   1   10.30    1.81
  14  -5   0   15.32    2.35
 -14   5   0   15.62    2.05
 -14   5   0   14.48    1.93
  14  -5   1   10.37    2.07
 -14   5  -1   11.28    1.71
 -14   5  -1   11.83    1.93
 -14   5  -2   63.08    3.69
 -14   5  -2   63.72    3.32
  14  -5   3   29.50    2.81
 -14   5  -3   34.41    2.86
 -14   5  -3   28.48    2.23
  14  -5   4   39.05    3.29
 -14   5  -4   49.17    3.30
 -14   5  -4   49.00    2.69
  14  -5   5    3.85    1.60
 -14   5  -5    2.78    1.77
 -14   5  -5    5.07    1.32
  14  -5   6   24.86    2.50
 -14   5  -6   22.68    2.04
 -14   5  -6   23.89    2.74
  14  -5   7   11.61    1.97
 -14   5  -7    6.47    2.02
 -14   5  -8    6.75    2.05
 -14   5  -9    3.34    1.92
 -14   5 -10   15.88    2.63
 -14   5 -11    3.07    2.05
 -14   5 -12    1.49    2.04
 -14   5 -13    4.58    2.54
  13  -4 -13   -0.64    2.37
  13  -4 -12    0.13    2.04
  13  -4 -11   12.84    2.60
  13  -4 -10    1.80    1.92
  13  -4  -9   16.76    2.61
  13  -4  -8    1.21    1.80
  13  -4  -7   -2.53    1.66
  13  -4  -6   50.90    3.67
  13  -4  -5   23.46    2.66
  13  -4  -4   10.78    2.07
 -13   4   4   10.97    1.86
  13  -4  -3   81.00    4.43
 -13   4   3   88.40    4.19
  13  -4  -2   44.21    3.06
 -13   4   2   41.95    2.72
 -13   4   2   46.10    3.08
  13  -4  -1   19.49    2.42
 -13   4   1   18.87    2.23
 -13   4   1   21.70    2.12
  13  -4   0    0.77    1.66
 -13   4   0    2.88    1.43
 -13   4   0    0.82    1.07
  13  -4   1   18.52    2.12
 -13   4  -1   16.29    1.75
 -13   4  -1   18.95    2.10
  13  -4   2   41.44    2.93
 -13   4  -2   41.88    2.38
 -13   4  -2   50.12    3.11
 -13   4  -3   86.23    3.77
 -13   4  -3   86.02    4.33
  13  -4   4    8.14    1.85
 -13   4  -4    8.00    1.83
 -13   4  -4   10.22    1.38
  13  -4   5   20.62    2.39
 -13   4  -5   26.84    1.84
 -13   4  -5   25.83    2.64
  13  -4   6   49.30    3.27
 -13   4  -6   57.72    3.86
 -13   4  -6   49.99    2.69
  13  -4   7    1.21    1.56
 -13   4  -7    1.55    1.80
  13  -4   8    2.18    1.51
 -13   4  -8   -0.50    1.68
 -13   4  -9   20.45    2.68
 -13   4 -10    0.04    1.84
 -13   4 -11   15.58    2.70
 -13   4 -12   -3.44    2.16
 -13   4 -13   -1.76    2.21
  12  -3 -14    3.79    2.37
  12  -3 -13    7.02    2.37
  12  -3 -12    2.95    2.07
  12  -3 -11    2.80    1.99
  12  -3 -10   13.92    2.53
  12  -3  -9    2.44    1.86
  12  -3  -8    5.37    2.03
  12  -3  -7   24.08    2.76
  12  -3  -6   14.51    2.33
  12  -3  -5   19.39    2.44
  12  -3  -4   71.82    3.96
 -12   3   4   67.95    3.65
  12  -3  -3   19.39    2.32
 -12   3   3   16.46    1.90
  12  -3  -2   10.53    1.87
 -12   3   2    8.69    1.49
 -12   3   2   12.65    1.92
  12  -3  -1   22.94    2.33
 -12   3   1   22.73    2.30
 -12   3   1   23.91    1.98
  12  -3   0   -0.61    1.29
 -12   3   0    0.29    1.48
 -12   3   0    0.78    0.95
  12  -3   1   21.08    2.24
 -12   3  -1   21.30    2.14
 -12   3  -1   23.76    1.85
  12  -3   2   11.55    2.00
 -12   3  -2    9.12    1.29
 -12   3  -2   11.78    1.83
  12  -3   3   11.25    1.88
 -12   3  -3   17.82    1.53
 -12   3  -3   17.34    2.12
 -12   3  -4   70.87    3.75
 -12   3  -4   67.52    3.05
  12  -3   5   17.49    2.25
 -12   3  -5   18.48    2.28
 -12   3  -5   20.91    1.62
  12  -3   6   19.09    2.21
 -12   3  -6   17.10    1.54
 -12   3  -6   15.03    2.21
  12  -3   7   23.63    2.44
 -12   3  -7   19.98    2.51
  12  -3   8    2.49    1.58
 -12   3  -8    4.02    1.92
  12  -3   9    0.78    1.33
 -12   3  -9   -0.45    1.68
  12  -3  10   19.27    2.29
 -12   3 -10   13.63    2.40
 -12   3 -11    0.56    1.85
 -12   3 -12    4.85    2.10
 -12   3 -13    0.32    2.28
 -12   3 -14    0.58    2.07
  11  -2 -14    7.27    2.84
  11  -2 -13    0.28    2.00
  11  -2 -12    4.03    2.12
  11  -2 -11   11.73    2.50
  11  -2 -10    2.19    1.87
  11  -2  -9   13.66    2.45
  11  -2  -8    7.61    2.13
  11  -2  -7    8.05    2.04
  11  -2  -6   68.17    4.00
  11  -2  -5   14.67    2.18
  11  -2  -4   30.00    2.69
  11  -2  -3   77.61    4.02
  11  -2  -2   25.62    2.36
 -11   2   2   28.42    2.41
 -11   2   2   25.57    2.12
  11  -2  -1   17.39    2.20
 -11   2   1   17.85    1.93
 -11   2   1   18.64    1.76
  11  -2   0   11.14    1.88
 -11   2   0   11.23    1.28
 -11   2   0   14.97    1.95
  11  -2   1   18.53    2.07
 -11   2  -1   17.06    1.51
 -11   2  -1   17.54    1.95
  11  -2   2   26.30    2.45
 -11   2  -2   28.84    2.39
 -11   2  -2   27.66    1.78
  11  -2   3   87.44    4.23
 -11   2  -3   82.98    3.40
 -11   2  -3   80.66    4.06
  11  -2   4   22.15    2.34
 -11   2  -4   24.02    2.32
 -11   2  -4   24.91    1.57
 -11   2  -5   13.17    2.02
 -11   2  -5   14.14    1.25
  11  -2   6   65.29    3.56
 -11   2  -6   51.69    3.47
 -11   2  -6   58.28    2.59
  11  -2   7    7.52    1.76
 -11   2  -7    7.64    1.95
  11  -2   8   12.13    2.12
 -11   2  -8   10.46    2.15
  11  -2   9   14.17    2.14
 -11   2  -9   14.47    2.59
  11  -2  10    1.06    1.45
 -11   2 -10    2.15    1.81
  11  -2  11    7.60    2.01
 -11   2 -11   13.35    2.40
 -11   2 -12    1.70    1.89
 -11   2 -13    0.57    1.86
 -11   2 -14    7.52    2.57
  10  -1 -14    5.95    2.66
  10  -1 -13   -0.08    1.90
  10  -1 -12    3.69    2.03
  10  -1 -11   -0.56    1.73
  10  -1 -10   45.14    3.58
  10  -1  -9   10.70    2.35
  10  -1  -8    5.29    1.96
  10  -1  -7   45.90    3.65
  10  -1  -6   29.93    2.77
  10  -1  -5   10.71    1.90
  10  -1  -4   75.39    3.95
  10  -1  -3   32.55    2.55
  10  -1  -2  174.88    7.08
 -10   1   2  184.90    7.02
  10  -1  -1   27.59    2.43
 -10   1   1   26.82    1.89
 -10   1   1   30.18    2.19
  10  -1   0   -1.13    1.30
 -10   1   0   -0.12    1.25
 -10   1   0   -0.03    0.84
  10  -1   1   30.39    2.30
 -10   1  -1   26.46    1.64
 -10   1  -1   27.94    2.20
  10  -1   2  183.27    7.13
 -10   1  -2  173.07    6.96
 -10   1  -2  183.71    6.42
  10  -1   3   36.20    2.68
 -10   1  -3   34.75    2.51
 -10   1  -3   34.98    1.77
  10  -1   4   81.75    3.95
 -10   1  -4   77.79    3.00
 -10   1  -4   68.25    3.73
  10  -1   5    9.74    1.82
 -10   1  -5    9.32    0.93
 -10   1  -5   15.24    1.97
 -10   1  -6   30.35    2.68
 -10   1  -6   30.17    1.59
 -10   1  -7   47.38    3.57
  10  -1   8    1.47    1.52
 -10   1  -8    4.23    1.82
  10  -1   9   16.41    2.25
 -10   1  -9   15.12    2.59
  10  -1  10   41.14    3.16
 -10   1 -10   41.37    3.51
  10  -1  11    3.57    1.73
 -10   1 -11    1.39    2.09
  10  -1  12    2.42    1.86
 -10   1 -12    3.70    2.00
 -10   1 -13    1.93    1.91
 -10   1 -14    5.80    2.16
   9   0 -14    2.22    2.49
   9   0 -13    4.37    2.20
   9   0 -12    2.21    2.26
   9   0 -11   15.66    2.55
   9   0 -10   71.93    4.40
   9   0  -9   14.47    2.44
   9   0  -8   12.24    2.19
   9   0  -7   73.98    4.36
   9   0  -6   31.53    2.75
   9   0  -5   27.42    2.54
   9   0  -4   33.49    2.57
   9   0  -3  159.07    6.42
   9   0  -2  223.52    8.47
   9   0  -1   72.08    3.59
  -9   0   1   67.93    3.47
   9   0   0  100.91    4.53
  -9   0   0  105.29    4.44
   9   0   1   68.73    3.48
  -9   0  -1   69.10    2.86
  -9   0  -1   67.41    3.37
   9   0   2  219.10    8.27
  -9   0  -2  216.21    8.15
  -9   0  -2  219.65    7.54
   9   0   3  159.75    6.47
  -9   0  -3  159.69    5.61
  -9   0  -3  165.36    6.42
   9   0   4   28.99    2.47
  -9   0  -4   29.32    2.41
  -9   0  -4   30.52    1.40
   9   0   5   25.04    2.40
  -9   0  -5   24.23    1.19
  -9   0  -5   23.66    2.26
   9   0   6   32.32    2.63
  -9   0  -6   29.64    1.33
  -9   0  -6   28.60    2.56
   9   0   7   70.07    3.80
  -9   0  -7   59.66    3.66
   9   0   8   11.49    2.01
  -9   0  -8   11.16    2.12
  -9   0  -9   18.67    2.46
   9   0  11   10.95    1.91
  -9   0 -11   15.08    2.42
   9   0  12    1.27    1.66
  -9   0 -12    1.72    1.86
   9   0  13    3.25    1.78
  -9   0 -13    4.00    2.04
  -9   0 -14    2.36    1.96
   8   1 -15    3.47    2.56
   8   1 -14    1.59    2.03
   8   1 -13    1.79    1.96
   8   1 -12   10.51    2.34
   8   1 -11   21.09    2.76
   8   1 -10    1.36    1.78
   8   1  -9   31.49    3.04
   8   1  -8   37.98    3.17
   8   1  -7   11.69    2.08
   8   1  -6   16.91    2.09
   8   1  -5   55.16    3.26
   8   1  -4   15.99    1.92
   8   1  -3  218.65    8.27
   8   1  -2    7.56    1.53
   8   1  -1   24.76    2.13
  -8  -1   1   24.81    1.97
   8   1   0  158.74    6.24
  -8  -1   0  154.88    6.10
   8   1   1   26.98    2.20
  -8  -1  -1   27.12    2.23
   8   1   2    4.72    1.32
  -8  -1  -2    5.79    1.33
   8   1   3  215.38    8.21
  -8  -1  -3  214.36    8.03
   8   1   4   13.51    1.70
  -8  -1  -4   16.16    1.83
   8   1   5   52.41    3.14
  -8  -1  -5   50.14    2.96
   8   1   6   14.83    2.04
  -8  -1  -6   15.65    1.94
   8   1   7   14.14    2.10
  -8  -1  -7   13.21    2.03
   8   1   8   36.07    3.04
  -8  -1  -8   29.29    2.73
   8   1   9   31.14    2.89
  -8  -1  -9   33.89    2.96
   8   1  10    5.91    1.94
  -8  -1 -10    3.89    1.80
   8   1  11   24.94    2.85
  -8  -1 -11   20.79    2.83
   8   1  12   12.20    2.34
  -8  -1 -12    7.83    2.10
   8   1  13    0.43    1.43
  -8  -1 -13   -1.06    2.01
   8   1  14    0.60    0.80
  -8  -1 -14    3.64    2.22
  -8  -1 -15    4.52    2.51
   7   2 -15    2.13    2.49
   7   2 -14    0.31    1.91
   7   2 -13    9.89    2.60
   7   2 -12    4.82    2.05
   7   2 -11    2.79    1.79
   7   2 -10    2.24    2.06
   7   2  -9   -1.37    1.59
   7   2  -8   22.61    2.50
   7   2  -7   44.76    3.07
   7   2  -6   31.34    2.65
   7   2  -5   11.79    1.79
   7   2  -4  125.73    5.30
   7   2  -3   46.43    2.77
   7   2  -2    3.21    1.31
   7   2  -1   70.24    3.42
   7   2   0   25.82    2.14
  -7  -2   0   23.71    1.90
   7   2   1   60.85    3.14
  -7  -2  -1   62.31    3.15
   7   2   2    3.41    1.18
  -7  -2  -2    3.11    1.18
   7   2   3   39.93    2.45
  -7  -2  -3   37.95    2.39
   7   2   4  127.93    5.41
  -7  -2  -4  131.66    5.36
   7   2   5   10.30    1.56
  -7  -2  -5    8.62    1.55
   7   2   6   23.93    2.29
  -7  -2  -6   25.64    2.27
   7   2   7   39.15    3.03
  -7  -2  -7   40.88    2.82
   7   2   8   20.25    2.34
  -7  -2  -8   22.88    2.34
   7   2   9   -1.21    1.61
  -7  -2  -9   -1.13    1.77
   7   2  10    0.42    1.65
  -7  -2 -10    0.04    1.58
   7   2  11    1.14    1.48
  -7  -2 -11    0.14    1.51
   7   2  12    4.85    1.99
  -7  -2 -12    5.37    1.89
   7   2  13   10.85    2.17
  -7  -2 -13    7.17    2.28
   7   2  14    2.27    1.63
  -7  -2 -14    2.04    2.13
   7   2  15   -0.33    1.91
  -7  -2 -15    1.05    2.11
   6   3 -15   -0.09    2.21
   6   3 -14   12.42    2.81
   6   3 -13    0.18    2.09
   6   3 -12    6.28    2.26
   6   3 -11    3.47    2.01
   6   3 -10   -0.90    1.91
   6   3  -9    1.03    1.61
   6   3  -8   43.98    3.38
   6   3  -7    8.90    1.75
   6   3  -6  161.83    6.70
   6   3  -5   35.54    2.51
   6   3  -4    3.91    1.29
   6   3  -3    1.72    1.20
   6   3  -2    4.15    1.27
   6   3  -1    7.39    1.37
   6   3   0  256.39    9.39
  -6  -3   0  259.06    9.28
   6   3   1    4.17    1.21
  -6  -3  -1    5.10    1.19
   6   3   2    5.44    1.30
  -6  -3  -2    5.76    1.39
   6   3   3    1.90    1.12
  -6  -3  -3    3.07    1.18
   6   3   4    2.14    1.20
  -6  -3  -4    3.22    1.19
   6   3   5   41.08    2.80
  -6  -3  -5   41.80    2.77
   6   3   6  147.54    6.15
  -6  -3  -6  148.35    6.07
   6   3   7    5.16    1.77
  -6  -3  -7    4.18    1.44
   6   3   8   43.34    3.24
  -6  -3  -8   39.39    2.85
   6   3   9   -1.26    1.60
  -6  -3  -9    0.58    1.45
   6   3  10    0.77    1.41
  -6  -3 -10   -1.49    1.41
   6   3  11    5.18    1.77
  -6  -3 -11    4.76    1.96
   6   3  12    8.42    2.14
  -6  -3 -12    4.34    2.01
   6   3  13    0.71    1.60
  -6  -3 -13    1.17    1.61
   6   3  14   11.98    2.55
  -6  -3 -14   10.99    2.27
   6   3  15    1.80    1.80
  -6  -3 -15   -1.24    1.96
   5   4 -15    1.07    2.22
   5   4 -14    5.01    2.35
   5   4 -13   18.04    2.80
   5   4 -12   -0.26    1.59
   5   4 -11   -1.42    1.45
   5   4 -10    2.87    1.71
   5   4  -9   16.63    2.20
   5   4  -8   15.71    2.09
   5   4  -7  165.09    6.84
   5   4  -6   90.03    4.21
   5   4  -5   74.73    3.69
   5   4  -4   28.10    2.34
   5   4  -3   26.03    2.06
   5   4  -2   46.44    2.60
   5   4  -1  204.65    7.71
   5   4   0   57.55    2.91
   5   4   1  195.04    6.70
   5   4   1  198.48    7.34
  -5  -4  -1  190.74    7.17
   5   4   2   40.34    1.68
   5   4   2   41.46    2.43
  -5  -4  -2   43.52    2.35
   5   4   3   25.61    2.10
  -5  -4  -3   25.40    1.92
   5   4   4   23.88    2.21
  -5  -4  -4   24.37    1.96
   5   4   5   65.65    3.44
  -5  -4  -5   66.59    3.26
   5   4   6   86.63    4.39
  -5  -4  -6  104.32    4.44
   5   4   7  159.94    6.70
  -5  -4  -7  159.66    6.47
   5   4   8   10.37    1.95
  -5  -4  -8   13.93    2.04
   5   4   9   14.53    2.24
  -5  -4  -9   16.43    2.24
   5   4  10    3.91    1.98
  -5  -4 -10    3.07    1.61
   5   4  11    0.66    1.49
  -5  -4 -11    0.94    1.43
   5   4  12    0.87    1.64
  -5  -4 -12    1.31    1.78
   5   4  13   16.16    2.83
  -5  -4 -13   14.78    2.30
   5   4  14    6.61    2.38
  -5  -4 -14    6.89    1.97
   5   4  15    8.90    2.47
  -5  -4 -15    6.10    2.25
   4   5 -15    6.68    2.42
   4   5 -14    8.16    2.38
   4   5 -13   19.30    2.60
   4   5 -12    1.94    1.92
   4   5 -11    0.92    1.73
   4   5 -10    4.25    1.95
   4   5  -9   16.96    2.37
   4   5  -8   14.99    2.03
   4   5  -7  168.35    6.84
   4   5  -6   87.90    4.03
   4   5  -5   67.51    3.36
   4   5  -4   22.01    1.96
   4   5  -3   22.43    1.92
   4   5  -2   44.28    2.51
   4   5  -1  205.46    7.63
   4   5   0   58.53    2.47
   4   5   0   55.88    2.89
   4   5   1  195.08    6.72
   4   5   1  191.37    7.28
  -4  -5  -1  195.06    7.14
   4   5   2   44.02    2.51
   4   5   2   44.82    1.87
  -4  -5  -2   41.70    2.50
   4   5   3   24.24    2.01
   4   5   3   24.32    1.15
  -4  -5  -3   21.61    1.77
   4   5   4   24.73    2.15
  -4  -5  -4   23.40    1.99
   4   5   5   67.36    3.43
  -4  -5  -5   64.33    3.15
   4   5   6   93.99    4.61
  -4  -5  -6  103.28    4.45
   4   5   7  159.69    6.66
  -4  -5  -7  160.53    6.28
  -4  -5  -7  154.96    5.26
   4   5   8   16.50    2.24
  -4  -5  -8   14.97    2.06
   4   5   9   16.67    2.27
  -4  -5  -9   14.25    2.09
   4   5  10    2.53    1.95
  -4  -5 -10    2.24    1.47
   4   5  11    1.19    1.86
  -4  -5 -11   -0.86    1.56
   4   5  12    1.89    1.75
  -4  -5 -12    3.12    1.79
   4   5  13   17.89    2.77
  -4  -5 -13   19.18    2.59
   4   5  14    8.76    2.29
  -4  -5 -14    8.17    2.27
   4   5  15    6.23    2.52
  -4  -5 -15    4.31    2.05
   3   6 -15    0.85    2.10
   3   6 -14   16.61    2.73
   3   6 -14    8.26    2.47
   3   6 -13   -1.43    1.85
   3   6 -13    4.04    1.98
   3   6 -12    1.91    1.82
   3   6 -11    6.17    1.97
   3   6 -10    0.32    1.74
   3   6  -9    0.11    1.65
   3   6  -8   43.78    2.87
   3   6  -7    6.16    1.45
   3   6  -6  155.43    6.24
   3   6  -5   41.26    2.69
   3   6  -4    6.86    1.44
   3   6  -3    2.04    0.99
   3   6  -3    1.51    1.23
   3   6  -2    6.86    1.39
   3   6  -2    5.64    1.07
   3   6  -1    5.14    1.17
   3   6   0  253.40    8.81
   3   6   0  254.50    9.19
   3   6   1    6.16    0.89
   3   6   1    4.20    1.12
   3   6   2    6.81    0.85
   3   6   2    6.66    1.28
  -3  -6  -2    3.28    1.04
   3   6   3    3.72    1.16
   3   6   3    1.96    0.69
  -3  -6  -3    1.42    0.94
   3   6   4    5.01    0.54
   3   6   4    6.33    1.35
  -3  -6  -4    3.70    1.08
   3   6   5   37.00    1.46
   3   6   5   36.01    2.68
  -3  -6  -5   38.21    2.25
   3   6   6  146.19    6.11
  -3  -6  -6  141.03    5.62
   3   6   7    8.08    1.77
  -3  -6  -7    9.37    1.70
   3   6   8   42.36    3.16
  -3  -6  -8   44.76    2.92
   3   6   9    1.41    1.56
  -3  -6  -9    0.93    1.28
   3   6  10    0.38    1.87
  -3  -6 -10   -0.71    1.46
   3   6  11    2.78    1.77
  -3  -6 -11    4.81    1.69
   3   6  12    2.55    1.81
  -3  -6 -12    5.07    1.77
   3   6  13    3.79    1.93
  -3  -6 -13    1.42    1.70
   3   6  14   10.30    2.67
  -3  -6 -14    9.83    2.16
   3   6  15    0.62    1.83
   2   7 -15    2.32    2.12
   2   7 -14    1.59    2.08
   2   7 -13    8.40    2.42
   2   7 -13    7.05    2.14
   2   7 -12    8.22    1.97
   2   7 -12    4.73    2.16
   2   7 -11    1.89    1.90
   2   7 -11   -0.11    1.80
   2   7 -10    0.57    1.79
   2   7 -10    2.73    1.66
   2   7  -9    1.21    1.55
   2   7  -9    0.57    1.73
   2   7  -8   24.86    2.30
   2   7  -8   21.12    2.53
   2   7  -7   39.65    3.00
   2   7  -7   43.48    2.63
   2   7  -6   26.59    2.15
   2   7  -6   22.55    2.32
   2   7  -5    7.09    1.57
   2   7  -5   10.81    1.57
   2   7  -4  129.48    5.18
   2   7  -4  126.21    5.27
   2   7  -3   40.38    2.33
   2   7  -3   41.98    2.41
   2   7  -2    3.58    1.09
   2   7  -2    3.60    1.04
   2   7  -1   62.78    2.99
   2   7   0   25.19    1.80
   2   7   0   22.22    1.60
   2   7   1   65.43    2.82
   2   7   1   65.18    3.14
   2   7   2    2.85    0.89
   2   7   2    3.61    1.13
   2   7   3   37.41    2.02
   2   7   3   43.96    2.53
  -2  -7  -3   44.15    2.36
   2   7   4  118.46    5.01
   2   7   4  114.29    4.23
  -2  -7  -4  118.18    4.62
   2   7   5   10.28    0.86
   2   7   5    9.00    1.60
  -2  -7  -5    9.38    1.43
   2   7   6   26.27    2.46
   2   7   6   26.19    1.33
  -2  -7  -6   23.07    2.01
   2   7   7   35.60    2.85
  -2  -7  -7   38.03    2.52
   2   7   8   22.14    2.65
  -2  -7  -8   21.07    2.10
   2   7   9    0.57    1.63
  -2  -7  -9   -1.25    1.44
   2   7  10    3.13    1.77
  -2  -7 -10    0.40    1.49
   2   7  11    0.53    1.60
  -2  -7 -11    0.09    1.46
   2   7  12    6.73    2.34
  -2  -7 -12    5.58    1.79
   2   7  13    5.07    2.15
  -2  -7 -13    6.73    2.01
   2   7  14   -0.10    1.71
   2   7  15    0.32    2.31
   1   8 -15    4.94    2.34
   1   8 -14    0.27    2.03
   1   8 -13   -2.46    1.85
   1   8 -12   10.90    2.42
   1   8 -11   26.65    3.12
   1   8 -11   24.97    2.64
   1   8 -10    1.69    1.55
   1   8 -10    5.41    2.06
   1   8  -9   32.99    2.63
   1   8  -9   33.43    3.20
   1   8  -8   35.00    3.10
   1   8  -8   37.89    2.83
   1   8  -7   12.94    1.85
   1   8  -7   15.55    2.19
   1   8  -6   15.43    2.05
   1   8  -6   13.20    1.73
   1   8  -5   57.30    2.90
   1   8  -5   49.77    3.08
   1   8  -4   15.22    1.79
   1   8  -4   15.97    1.59
   1   8  -3  211.85    7.79
   1   8  -3  211.56    7.90
   1   8  -2    7.91    1.25
   1   8  -2    8.76    1.36
   1   8  -1   20.81    1.64
   1   8  -1   21.41    1.68
   1   8   0  108.92    4.70
   1   8   0  144.20    5.09
   1   8   1   24.13    1.69
   1   8   1   26.99    2.06
   1   8   2    8.39    1.28
   1   8   2    5.85    1.27
   1   8   3  210.28    7.86
   1   8   3  203.86    7.43
   1   8   4   14.52    1.80
   1   8   4   15.49    1.31
  -1  -8  -4   15.12    1.53
   1   8   5   50.45    3.04
   1   8   5   48.46    2.25
  -1  -8  -5   53.04    2.63
   1   8   6   16.12    2.06
   1   8   6   14.09    1.17
  -1  -8  -6   13.24    1.61
   1   8   7   10.41    1.99
   1   8   7   15.94    1.29
  -1  -8  -7   14.25    1.72
   1   8   8   36.08    3.14
  -1  -8  -8   38.35    2.54
   1   8   9   41.58    3.23
  -1  -8  -9   33.28    2.60
   1   8  10    4.11    1.84
  -1  -8 -10    3.17    1.66
   1   8  11   17.47    2.60
  -1  -8 -11   23.64    2.35
   1   8  12    9.92    2.29
   1   8  13   -0.52    1.71
   1   8  14    0.75    1.87
   1   8  15    2.18    2.13
   0   9 -14    0.54    2.11
   0   9 -13    3.53    2.54
   0   9 -12    0.72    1.91
   0   9 -11   13.41    2.49
   0   9 -10   74.60    3.85
   0   9 -10   76.37    4.54
   0   9  -9   18.30    2.35
   0   9  -9   21.05    2.22
   0   9  -8    9.28    2.17
   0   9  -8   16.44    1.93
   0   9  -7   73.61    4.13
   0   9  -7   70.07    3.48
   0   9  -6   34.42    2.85
   0   9  -6   32.35    2.42
   0   9  -5   24.95    1.99
   0   9  -5   24.46    2.34
   0   9  -4   29.98    2.07
   0   9  -4   30.31    2.36
   0   9  -3  166.89    6.35
   0   9  -3  171.06    6.60
   0   9  -2  221.91    8.08
   0   9  -2  214.13    7.90
   0   9  -1   63.58    3.02
   0   9  -1   67.18    3.11
   0   9   0  100.52    4.20
   0   9   1   65.91    3.12
   0   9   1   67.78    3.30
   0   9   2  225.47    8.36
   0   9   2  221.31    8.13
   0   9   3  165.26    6.43
   0   9   3  153.17    6.06
   0   9   4   27.91    1.91
   0   9   4   31.10    2.33
   0   9   5   23.39    1.64
   0   9   5   24.45    2.31
   0  -9  -5   21.50    1.80
   0   9   6   31.88    1.94
   0   9   6   33.69    2.94
   0  -9  -6   32.53    2.23
   0   9   7   67.53    2.92
   0   9   7   65.48    3.82
   0  -9  -7   61.99    3.12
   0   9   8   14.11    2.24
   0   9   8    9.21    1.25
   0  -9  -8   10.01    1.59
   0   9   9   21.96    2.71
   0  -9  -9   19.97    2.08
   0   9  10   78.63    4.78
   0  -9 -10   73.32    3.77
   0   9  11   12.65    2.36
   0   9  12    0.98    1.81
   0   9  13    4.09    2.38
   0   9  14    2.29    2.04
  -1  10 -14    5.75    2.47
  -1  10 -13    3.80    2.21
  -1  10 -12    2.44    2.14
  -1  10 -11    2.10    2.00
  -1  10 -10   44.57    3.79
  -1  10  -9   12.99    2.37
  -1  10  -9   13.89    1.92
  -1  10  -8    6.04    1.56
  -1  10  -8    0.64    1.81
  -1  10  -7   50.95    2.93
  -1  10  -7   50.99    3.51
  -1  10  -6   37.26    3.02
  -1  10  -6   35.40    2.41
  -1  10  -5   10.37    1.42
  -1  10  -5   12.07    1.89
  -1  10  -4   79.49    4.06
  -1  10  -4   87.37    3.66
  -1  10  -3   35.18    2.50
  -1  10  -3   35.21    2.14
  -1  10  -2  186.55    6.94
  -1  10  -2  187.95    7.17
  -1  10  -1   25.66    1.80
  -1  10  -1   28.63    2.24
  -1  10   0    0.58    1.07
  -1  10   0    0.43    0.98
  -1  10   2  169.52    6.64
  -1  10   2  179.98    6.85
  -1  10   3   32.35    2.56
  -1  10   3   37.89    2.41
  -1  10   4   72.19    3.75
  -1  10   4   76.31    3.63
  -1  10   5   10.73    1.78
  -1  10   5    8.90    1.42
  -1  10   6   32.52    2.84
  -1  10   6   33.30    2.17
   1 -10  -6   32.41    2.07
  -1  10   7   40.92    2.34
  -1  10   7   40.30    3.16
   1 -10  -7   46.45    2.54
  -1  10   8    4.16    1.78
  -1  10   8    6.08    1.23
   1 -10  -8    2.01    1.28
  -1  10   9   13.31    1.60
  -1  10   9   12.33    2.27
   1 -10  -9   15.55    1.83
  -1  10  10   37.99    3.55
  -1  10  11    0.48    1.70
  -1  10  12    4.18    2.29
  -1  10  13    1.53    2.08
  -1  10  14    5.15    2.32
  -2  11 -14    4.48    2.38
  -2  11 -13   -0.68    2.11
  -2  11 -12    4.39    2.25
  -2  11 -11   12.45    2.59
  -2  11 -10    1.23    1.93
  -2  11  -9   11.99    2.38
  -2  11  -8    8.98    2.26
  -2  11  -8   12.54    1.78
  -2  11  -7    7.88    1.48
  -2  11  -7    8.98    2.11
  -2  11  -6   63.45    3.15
  -2  11  -6   69.00    3.95
  -2  11  -5   10.64    1.49
  -2  11  -5   12.13    1.79
  -2  11  -4   25.50    1.93
  -2  11  -4   26.34    2.49
  -2  11  -3   86.45    4.19
  -2  11  -3   87.45    3.71
  -2  11  -2   23.36    1.80
  -2  11  -2   20.21    2.03
  -2  11  -1   17.36    1.69
  -2  11  -1   14.08    1.75
  -2  11   0   23.93    1.95
  -2  11   0   11.50    1.66
  -2  11   1   16.65    1.82
  -2  11   1   16.86    1.71
  -2  11   2   27.04    2.27
  -2  11   3   79.11    3.89
  -2  11   3   87.51    4.14
  -2  11   4   26.36    2.41
  -2  11   4   31.19    2.50
  -2  11   5   12.68    1.97
  -2  11   5   16.57    1.90
  -2  11   6   56.66    3.55
  -2  11   6   58.36    3.07
  -2  11   7    2.08    1.63
  -2  11   7    7.96    1.39
   2 -11  -7    6.79    1.30
  -2  11   8    6.27    1.47
  -2  11   8    7.13    2.01
   2 -11  -8   14.89    1.58
  -2  11   9   11.43    1.59
  -2  11   9   11.75    2.25
  -2  11  10    2.48    1.77
  -2  11  11   14.76    2.56
  -2  11  12    2.54    2.02
  -2  11  13    1.68    2.34
  -2  11  14    4.68    2.36
  -3  12 -14    3.94    2.47
  -3  12 -13    5.81    2.39
  -3  12 -12    2.27    2.20
  -3  12 -11    2.74    2.11
  -3  12 -10   19.08    2.79
  -3  12  -9    0.73    1.90
  -3  12  -8    1.49    1.92
  -3  12  -7   23.83    2.84
  -3  12  -7   23.97    2.01
  -3  12  -6   17.66    1.62
  -3  12  -6   17.21    2.45
  -3  12  -5   14.63    2.28
  -3  12  -5   15.74    1.56
  -3  12  -4   69.65    3.13
  -3  12  -4   62.04    3.79
  -3  12  -3   15.15    1.52
  -3  12  -3   15.40    2.07
  -3  12  -2    9.17    1.36
  -3  12  -2   10.76    1.82
  -3  12  -1   22.44    1.87
  -3  12  -1   22.16    2.21
  -3  12   0    0.97    1.16
  -3  12   0    0.81    1.28
  -3  12   1   26.37    2.36
  -3  12   1   22.34    1.99
  -3  12   2   13.22    2.05
  -3  12   2    7.92    1.65
  -3  12   3   16.41    2.12
  -3  12   4   67.94    3.80
  -3  12   4   65.81    3.68
  -3  12   5   16.68    2.42
  -3  12   5   21.41    2.25
  -3  12   6   16.03    2.45
  -3  12   6   18.99    2.07
  -3  12   7   22.23    2.19
  -3  12   7   17.49    2.44
  -3  12   8    1.38    1.67
  -3  12   8    3.63    1.39
  -3  12   9    0.20    1.69
  -3  12   9    1.88    1.22
  -3  12  10   16.58    2.56
  -3  12  11    0.62    1.73
  -3  12  12    4.89    2.09
  -3  12  13    5.78    2.40
  -3  12  14    1.18    2.07
  -4  13 -13   -1.78    2.58
  -4  13 -12    1.39    2.19
  -4  13 -11   15.59    2.88
  -4  13 -10    0.58    2.00
  -4  13  -9   24.54    3.10
  -4  13  -8    0.65    1.89
  -4  13  -7    3.95    2.11
  -4  13  -6   58.65    3.89
  -4  13  -5   27.13    2.81
  -4  13  -5   27.22    1.91
  -4  13  -4   10.38    1.37
  -4  13  -4   11.56    2.10
  -4  13  -3   84.68    4.37
  -4  13  -3   84.94    3.71
  -4  13  -2   36.64    2.29
  -4  13  -2   42.04    2.94
  -4  13  -1   20.50    1.89
  -4  13  -1   17.04    2.18
  -4  13   0    0.20    1.03
  -4  13   0    3.05    1.57
  -4  13   1   19.83    1.93
  -4  13   1   20.83    2.51
  -4  13   2   41.49    2.94
  -4  13   2   50.22    3.41
  -4  13   3   95.58    4.54
  -4  13   3   84.36    4.46
  -4  13   4    8.60    1.81
  -4  13   4    0.68    0.76
  -4  13   5   25.63    2.67
  -4  13   5   27.60    2.68
  -4  13   6   56.27    3.49
  -4  13   6   51.50    3.58
  -4  13   7    1.11    1.51
  -4  13   7    1.61    1.68
  -4  13   8    0.37    1.59
  -4  13   8    3.82    1.55
  -4  13   9   19.11    2.20
  -4  13   9   18.74    2.65
  -4  13  10   -0.11    1.74
  -4  13  10    3.38    1.44
  -4  13  11   10.30    2.44
  -4  13  12    3.83    2.47
  -4  13  13    2.72    2.23
  -5  14 -13    3.28    2.45
  -5  14 -12    5.41    2.46
  -5  14 -11    1.72    2.28
  -5  14 -10   17.86    2.94
  -5  14  -9    2.47    2.08
  -5  14  -8   10.43    2.30
  -5  14  -7   11.70    2.10
  -5  14  -6   24.72    2.87
  -5  14  -5    3.69    1.88
  -5  14  -4   53.22    2.70
  -5  14  -4   52.50    3.62
  -5  14  -3   32.45    2.89
  -5  14  -3   30.07    2.14
  -5  14  -2   63.78    3.20
  -5  14  -2   63.44    3.79
  -5  14  -1   12.84    2.16
  -5  14  -1   10.45    1.66
  -5  14   0   12.85    1.79
  -5  14   0   21.19    2.47
  -5  14   1   13.25    1.93
  -5  14   1   13.39    2.17
  -5  14   2   69.92    4.19
  -5  14   2   59.86    3.41
  -5  14   3   27.98    2.91
  -5  14   3   35.36    2.83
  -5  14   4   54.01    3.87
  -5  14   4   52.76    3.39
  -5  14   5    1.61    1.53
  -5  14   5    3.38    1.77
  -5  14   6    9.22    1.55
  -5  14   6   22.66    2.62
  -5  14   7   10.11    2.34
  -5  14   7    9.13    2.07
  -5  14   8    7.47    1.89
  -5  14   8   11.28    2.23
  -5  14   9   -0.29    1.93
  -5  14   9    2.06    1.53
  -5  14  10   21.25    2.40
  -5  14  10   15.67    2.68
  -5  14  11    1.24    2.18
  -5  14  12    4.34    2.17
  -5  14  13    4.80    2.47
  -6  15 -12    0.31    2.28
  -6  15 -11    3.87    2.37
  -6  15 -10    4.45    2.32
  -6  15  -9    2.98    2.09
  -6  15  -8    1.17    1.98
  -6  15  -7    5.61    2.07
  -6  15  -6    1.60    1.96
  -6  15  -5    7.35    2.15
  -6  15  -4   16.25    2.45
  -6  15  -3   10.39    1.43
  -6  15  -3   11.05    2.22
  -6  15  -2   26.56    2.91
  -6  15  -2   29.80    2.22
  -6  15  -1   20.37    2.04
  -6  15  -1   17.33    2.45
  -6  15   0   36.24    3.14
  -6  15   0   32.22    2.47
  -6  15   1   18.27    2.16
  -6  15   1   17.21    2.56
  -6  15   2   25.12    2.81
  -6  15   2   30.05    2.69
  -6  15   3    9.13    2.17
  -6  15   3   10.22    1.91
  -6  15   4   13.78    2.15
  -6  15   4   14.76    2.41
  -6  15   5   10.66    2.42
  -6  15   5   12.28    2.17
  -6  15   6    0.65    1.85
  -6  15   6    0.67    1.43
  -6  15   7    7.18    2.03
  -6  15   8   -2.17    1.32
  -6  15   8    1.32    1.69
  -6  15   9    3.64    2.01
  -6  15   9    8.99    1.97
  -6  15  10   10.53    2.13
  -6  15  10   11.22    2.45
  -6  15  11    2.67    2.10
  -6  15  12   -1.92    1.84
  -7  16 -12    3.92    2.50
  -7  16 -11   -0.40    2.50
  -7  16 -10    3.76    2.26
  -7  16  -9    1.71    2.11
  -7  16  -8    0.71    2.00
  -7  16  -7    5.07    2.09
  -7  16  -6   12.54    2.42
  -7  16  -5    4.66    1.96
  -7  16  -4    2.39    1.92
  -7  16  -3   13.70    2.48
  -7  16  -2    2.93    1.37
  -7  16  -2    7.96    2.22
  -7  16  -1    8.33    2.19
  -7  16  -1   10.19    1.78
  -7  16   0   10.37    2.32
  -7  16   0   10.44    1.88
  -7  16   1    8.04    2.13
  -7  16   1    9.06    1.86
  -7  16   2    5.24    2.38
  -7  16   2    3.60    1.70
  -7  16   3   12.09    2.37
  -7  16   3   10.66    2.18
  -7  16   4   -1.89    2.02
  -7  16   4    0.70    1.56
  -7  16   5    5.65    1.95
  -7  16   5    4.71    2.02
  -7  16   6    8.00    2.05
  -7  16   6   10.40    2.36
  -7  16   7    3.20    1.85
  -7  16   7   -0.08    1.48
  -7  16   8    0.34    1.52
  -7  16   8    1.76    2.11
  -7  16   9    1.13    0.75
  -7  16   9    2.77    1.99
  -7  16  10   -0.05    1.28
  -7  16  10   -1.87    1.77
  -7  16  11    1.94    2.09
  -7  16  12    2.00    2.52
  -8  17 -11    1.33    2.23
  -8  17 -10   -0.18    2.09
  -8  17  -9    1.84    2.13
  -8  17  -8    0.37    1.99
  -8  17  -7    8.74    2.36
  -8  17  -6    5.65    2.14
  -8  17  -5    7.42    2.20
  -8  17  -4    1.79    1.89
  -8  17  -3   -1.16    1.75
  -8  17  -2   -1.49    1.75
  -8  17  -1   11.18    2.36
  -8  17  -1   10.83    1.70
  -8  17   0    1.00    1.40
  -8  17   0   -0.43    1.89
  -8  17   1   13.84    2.50
  -8  17   1   11.49    1.96
  -8  17   2    0.23    1.51
  -8  17   2    2.34    1.94
  -8  17   3    0.40    1.81
  -8  17   3    2.65    1.76
  -8  17   4   -0.69    1.73
  -8  17   4    2.46    1.82
  -8  17   5    6.78    2.13
  -8  17   5    8.19    2.19
  -8  17   6    3.76    2.10
  -8  17   6    1.30    1.72
  -8  17   7    7.63    2.12
  -8  17   7   10.50    2.51
  -8  17   8    0.50    1.83
  -8  17   8    0.92    2.02
  -8  17   9    3.56    1.79
  -8  17   9    2.75    2.36
  -8  17  10    1.19    0.75
  -8  17  10    1.80    2.01
  -8  17  11   -1.22    2.25
  -9  18 -10   -3.26    1.99
  -9  18  -9    4.27    2.34
  -9  18  -8   13.97    2.78
  -9  18  -7    2.51    2.10
  -9  18  -6    9.36    2.36
  -9  18  -5    0.01    1.92
  -9  18  -4    8.11    2.28
  -9  18  -3    0.49    1.91
  -9  18  -2   -1.55    1.78
  -9  18  -1    4.83    2.06
  -9  18   0   38.33    2.84
  -9  18   0   40.71    3.64
  -9  18   1    7.43    2.24
  -9  18   1    7.23    1.85
  -9  18   2    0.85    1.85
  -9  18   2    1.05    1.60
  -9  18   3   -1.12    1.73
  -9  18   3    2.13    1.53
  -9  18   4    6.20    2.12
  -9  18   4   12.29    2.46
  -9  18   5    1.87    2.00
  -9  18   5   -0.22    1.77
  -9  18   6   11.33    2.56
  -9  18   6    8.77    2.33
  -9  18   7    5.38    2.13
  -9  18   7    4.12    2.09
  -9  18   8   12.09    2.79
  -9  18   8   13.02    2.65
  -9  18   9    0.60    1.94
  -9  18   9   -1.26    1.86
  -9  18  10    3.38    2.14
  -9  18  10    0.44    2.03
 -10  19  -9    2.43    2.23
 -10  19  -8   -0.90    2.01
 -10  19  -7   15.40    2.87
 -10  19  -6    1.39    2.10
 -10  19  -5    3.42    2.15
 -10  19  -4    2.39    2.06
 -10  19  -3    0.55    1.93
 -10  19  -2    0.67    1.91
 -10  19  -1   10.97    2.40
 -10  19   0    4.43    2.11
 -10  19   1    8.86    1.93
 -10  19   1   12.56    2.50
 -10  19   2    2.48    1.90
 -10  19   2    1.66    2.02
 -10  19   3    5.36    2.00
 -10  19   3    1.17    1.95
 -10  19   4    0.82    1.60
 -10  19   4   -0.57    1.85
 -10  19   5    7.36    2.28
 -10  19   5    5.94    2.24
 -10  19   6    9.27    2.43
 -10  19   6    3.41    2.00
 -10  19   7   17.29    3.02
 -10  19   7   12.36    2.88
 -10  19   8    0.52    1.86
 -10  19   8    0.75    1.88
 -10  19   9    1.20    2.22
 -10  19   9    1.71    2.39
 -11  20  -8   -3.02    2.08
 -11  20  -7   11.12    2.69
 -11  20  -6    5.48    2.34
 -11  20  -5   -1.19    2.08
 -11  20  -4    0.55    2.04
 -11  20  -3    1.01    2.09
 -11  20  -2   -0.92    1.91
 -11  20  -1    4.22    2.18
 -11  20   0   -0.18    1.93
 -11  20   1    7.00    2.31
 -11  20   2    5.58    1.93
 -11  20   2    2.45    2.10
 -11  20   3   -0.56    1.78
 -11  20   3   -1.40    2.22
 -11  20   4    0.93    1.89
 -11  20   4    0.82    1.95
 -11  20   5    0.60    1.95
 -11  20   5    0.66    1.71
 -11  20   6    6.32    2.54
 -11  20   6    5.47    2.68
 -11  20   7   -0.25    2.36
 -11  20   7    7.14    2.55
 -11  20   8    0.29    1.94
 -11  20   8    3.61    2.17
 -12  21  -7    1.40    2.21
 -12  21  -6    4.99    2.49
 -12  21  -5    1.85    2.19
 -12  21  -4    2.95    2.20
 -12  21  -3   -1.67    1.96
 -12  21  -2    0.22    2.01
 -12  21  -1    2.39    2.09
 -12  21   0    1.88    2.00
 -12  21   1    6.02    2.30
 -12  21   2    1.46    2.05
 -12  21   3   -4.06    1.71
 -12  21   3   -2.17    1.83
 -12  21   4    0.10    1.65
 -12  21   4    0.30    1.94
 -12  21   5    2.53    1.93
 -12  21   5   -0.28    2.00
 -12  21   6   -0.45    2.09
 -12  21   6   -0.90    1.92
 -12  21   7   -1.12    1.85
 -12  21   7   -1.06    2.28
 -13  22  -5   -0.54    2.07
 -13  22  -4    6.95    2.43
 -13  22  -3   -1.38    2.05
 -13  22  -2    1.12    2.06
 -13  22  -1    1.43    2.10
 -13  22   0    0.29    2.05
 -13  22   1    0.77    2.06
 -13  22   2    1.69    2.13
 -13  22   3    1.10    2.06
 -13  22   4    3.58    2.25
 -13  22   5   -1.93    1.97
 -13  22   5    2.77    2.26
 -14  23  -2    0.54    2.07
 -14  23  -1   -1.11    2.04
 -14  23   0    1.78    2.18
 -14  23   1    2.39    2.30
  23 -13  -2   -2.35    1.84
 -23  13   2    2.50    2.00
 -23  13   1    0.09    1.80
 -23  13   0   -0.60    2.14
 -23  13  -1    2.56    1.92
 -23  13  -2    0.47    1.93
 -23  13  -2    4.45    2.27
  22 -12  -5    3.51    2.23
 -22  12   5   -0.16    1.96
  22 -12  -4   -1.91    1.74
 -22  12   4    1.65    2.42
  22 -12  -3    7.83    2.44
 -22  12   3    6.10    2.42
  22 -12  -2   -1.01    1.94
 -22  12   2    1.90    1.82
  22 -12  -1   -0.60    1.21
 -22  12   1   -0.05    1.72
 -22  12   0    2.21    1.89
 -22  12  -1    2.05    2.15
 -22  12  -1   -1.10    1.29
 -22  12  -2   -0.14    1.98
 -22  12  -2   -3.36    1.91
 -22  12  -3    3.32    1.81
 -22  12  -3    3.25    1.96
 -22  12  -4    1.06    2.25
 -22  12  -4    6.65    2.12
 -22  12  -5   -1.98    2.15
  21 -11  -7    2.85    2.25
 -21  11   7    2.65    2.13
  21 -11  -6   -1.07    2.31
 -21  11   6    0.51    1.91
  21 -11  -5   -2.73    2.21
 -21  11   5    3.02    2.01
  21 -11  -4   -1.75    2.21
 -21  11   4    0.95    1.89
  21 -11  -3    0.97    1.83
 -21  11   3   -1.84    1.68
  21 -11  -2    1.34    2.09
 -21  11   2    0.40    1.69
  21 -11  -1    1.74    1.83
 -21  11   1    1.49    2.01
  21 -11   0   -2.85    1.79
 -21  11   0   -0.77    1.61
 -21  11   0   -3.78    1.77
 -21  11  -1   -1.13    1.53
 -21  11  -1    0.18    1.71
 -21  11  -2    0.76    1.62
 -21  11  -2   -1.26    1.62
 -21  11  -3    0.74    1.56
 -21  11  -3   -1.42    2.03
 -21  11  -4    4.61    2.44
 -21  11  -4    0.87    1.74
 -21  11  -5    1.49    2.24
 -21  11  -6   -3.08    1.99
 -21  11  -7    0.77    2.35
  20 -10  -8   -0.59    2.10
  20 -10  -7    0.01    2.36
 -20  10   7    0.13    1.82
  20 -10  -6   17.73    2.89
 -20  10   6   15.88    2.73
  20 -10  -5   -0.69    1.90
 -20  10   5   -0.62    1.76
  20 -10  -4    0.64    1.88
 -20  10   4   -2.65    1.50
  20 -10  -3   -1.81    1.99
 -20  10   3    0.57    1.70
  20 -10  -2    2.27    2.14
 -20  10   2    6.98    2.05
  20 -10  -1   -1.29    1.85
 -20  10   1   -1.24    1.57
 -20  10   1   -1.26    1.73
  20 -10   0    4.00    1.56
 -20  10   0    4.46    1.56
 -20  10   0    4.95    2.03
  20 -10   1   -1.05    1.83
 -20  10  -1    1.36    1.96
 -20  10  -1    0.51    1.51
 -20  10  -2    1.72    1.59
 -20  10  -2    4.71    2.21
 -20  10  -3    1.66    1.84
 -20  10  -3    0.17    1.73
 -20  10  -4    0.50    1.67
 -20  10  -4    2.27    1.96
 -20  10  -5   -1.90    2.04
 -20  10  -6   14.99    2.59
 -20  10  -7   -3.37    1.68
 -20  10  -8    1.10    1.99
  19  -9  -9    1.58    2.53
  19  -9  -8    0.13    2.02
  19  -9  -7   17.03    3.12
 -19   9   7   16.32    2.65
  19  -9  -6    4.61    2.19
 -19   9   6    2.42    1.95
  19  -9  -5    2.04    2.01
 -19   9   5    2.37    1.85
  19  -9  -4    0.50    1.84
 -19   9   4   -0.24    1.64
  19  -9  -3    3.94    2.17
 -19   9   3    2.89    1.76
  19  -9  -2    5.00    2.16
 -19   9   2    3.96    1.76
 -19   9   2    3.50    2.08
  19  -9  -1   10.37    2.44
 -19   9   1   13.66    2.22
 -19   9   1   11.97    2.33
  19  -9   0    3.02    1.68
 -19   9   0    2.97    1.38
 -19   9   0    6.30    2.07
  19  -9   1   12.38    2.32
 -19   9  -1   11.75    2.39
 -19   9  -1   10.71    1.97
  19  -9   2    3.98    1.95
 -19   9  -2    2.42    1.73
 -19   9  -2    2.02    1.54
 -19   9  -3   -1.68    1.58
 -19   9  -3    3.96    1.80
 -19   9  -4    2.86    1.62
 -19   9  -4    0.02    1.74
 -19   9  -5    0.79    1.85
 -19   9  -6    5.85    2.12
 -19   9  -7   20.39    3.13
 -19   9  -8    0.52    1.93
 -19   9  -9    0.76    1.97
  18  -8 -10   -0.66    2.08
  18  -8  -9   -2.89    2.32
  18  -8  -8    3.86    2.29
  18  -8  -7   17.46    3.04
 -18   8   7    9.58    2.22
  18  -8  -6   -0.12    1.88
 -18   8   6   -1.41    1.84
  18  -8  -5    5.16    2.05
 -18   8   5    6.44    1.98
  18  -8  -4   -1.40    1.68
 -18   8   4    1.73    1.63
  18  -8  -3    1.86    1.74
 -18   8   3    3.46    1.97
 -18   8   3    4.08    1.85
  18  -8  -2   -0.47    1.56
 -18   8   2    1.85    1.58
 -18   8   2    3.51    1.87
  18  -8  -1   13.18    2.27
 -18   8   1   18.85    2.36
  18  -8   0   13.27    2.52
 -18   8   0   11.48    2.30
 -18   8   0   10.47    1.96
 -18   8  -1   22.33    2.74
 -18   8  -1   17.77    2.34
  18  -8   2    3.88    1.87
 -18   8  -2   -0.94    1.91
 -18   8  -2    2.19    1.63
  18  -8   3    2.77    1.94
 -18   8  -3   -0.54    1.89
 -18   8  -3    2.60    1.59
 -18   8  -4    0.69    1.45
 -18   8  -4    1.05    1.71
 -18   8  -5    6.85    2.03
 -18   8  -5    8.56    1.89
 -18   8  -6   -2.15    1.66
 -18   8  -7   12.27    2.73
 -18   8  -8    7.29    2.25
 -18   8  -9    0.31    2.29
 -18   8 -10   -1.72    1.97
  17  -7 -11    0.35    2.05
  17  -7 -10    0.64    2.11
  17  -7  -9    1.14    2.13
  17  -7  -8    1.99    2.12
  17  -7  -7    3.99    2.12
  17  -7  -6    7.89    2.20
 -17   7   6    9.76    2.12
  17  -7  -5   -0.71    2.01
 -17   7   5    2.58    1.73
  17  -7  -4    1.22    2.15
 -17   7   4    0.58    1.54
  17  -7  -3    0.14    1.96
 -17   7   3    0.93    1.86
 -17   7   3   -0.12    1.55
  17  -7  -2    2.06    1.64
 -17   7   2    2.03    1.80
 -17   7   2    3.06    1.63
  17  -7  -1    2.77    1.72
 -17   7   1    4.32    1.60
 -17   7   1    3.81    1.60
  17  -7   0    9.31    2.30
 -17   7   0    6.83    1.91
 -17   7   0    6.51    1.85
  17  -7   1    0.59    1.43
 -17   7  -1    4.65    2.05
 -17   7  -1    2.72    1.65
  17  -7   2    1.53    1.76
 -17   7  -2    0.24    1.23
 -17   7  -2   -0.42    1.56
  17  -7   3   -0.04    1.69
 -17   7  -3    1.42    1.50
 -17   7  -3    0.59    1.68
  17  -7   4   -0.24    1.74
 -17   7  -4    1.17    1.69
 -17   7  -4    1.11    1.35
  17  -7   5    1.45    1.72
 -17   7  -5    2.25    2.03
 -17   7  -5    1.78    1.37
 -17   7  -6    8.65    2.16
 -17   7  -7    0.53    1.79
 -17   7  -8    3.86    2.05
 -17   7  -9    1.73    1.97
 -17   7 -10    2.42    2.08
 -17   7 -11    1.42    2.15
  16  -6 -11   -0.15    1.96
  16  -6 -10    4.84    2.63
  16  -6  -9    2.91    2.07
  16  -6  -8    3.03    2.00
  16  -6  -7    7.83    2.25
  16  -6  -6    1.36    1.86
  16  -6  -5    3.55    1.87
 -16   6   5    0.73    1.56
  16  -6  -4    2.37    2.18
 -16   6   4    4.75    1.78
  16  -6  -3   17.02    2.47
 -16   6   3   16.90    2.52
 -16   6   3   18.00    2.34
  16  -6  -2   17.86    2.47
 -16   6   2   24.60    2.50
  16  -6  -1   11.99    2.49
 -16   6   1   16.18    2.41
 -16   6   1   12.12    1.96
  16  -6   0   -0.40    1.93
 -16   6   0   -1.66    1.77
 -16   6   0    0.58    1.58
  16  -6   1    8.83    2.23
 -16   6  -1   13.60    2.04
 -16   6  -1   12.71    2.12
 -16   6  -2   20.97    2.28
 -16   6  -2   23.18    2.64
  16  -6   3   15.21    2.57
 -16   6  -3   14.03    2.33
 -16   6  -3   14.41    1.77
  16  -6   4    5.91    1.90
 -16   6  -4    5.00    1.58
 -16   6  -4    1.95    2.06
  16  -6   5    6.57    1.86
 -16   6  -5    3.41    1.43
 -16   6  -5    3.21    1.76
  16  -6   6    3.90    1.76
 -16   6  -6    1.12    1.73
 -16   6  -7    8.43    2.12
 -16   6  -8   -3.82    2.00
 -16   6  -9    2.93    2.03
 -16   6 -10    4.96    2.53
 -16   6 -11   -0.68    2.17
  15  -5 -12   -0.71    2.54
  15  -5 -11    9.90    2.65
  15  -5 -10    0.33    2.05
  15  -5  -9    9.57    2.41
  15  -5  -8    3.83    2.04
  15  -5  -7    2.41    1.93
  15  -5  -6    3.53    1.97
  15  -5  -5   19.66    2.63
 -15   5   5   14.85    2.24
  15  -5  -4   -0.54    1.79
 -15   5   4    1.66    1.49
  15  -5  -3   48.58    3.47
 -15   5   3   40.15    3.05
  15  -5  -2    2.61    1.71
 -15   5   2   -0.16    1.32
 -15   5   2    1.91    1.75
  15  -5  -1    9.46    2.35
 -15   5   1   14.45    2.13
 -15   5   1   12.64    2.06
  15  -5   0   41.79    3.50
 -15   5   0   45.62    3.43
 -15   5   0   42.61    2.79
  15  -5   1   10.37    2.26
 -15   5  -1   11.23    1.63
 -15   5  -1    9.55    2.17
  15  -5   2   -1.47    1.63
 -15   5  -2   -0.37    1.59
 -15   5  -2    1.55    1.38
  15  -5   3   45.50    3.37
 -15   5  -3   52.12    3.54
 -15   5  -3   50.42    2.91
  15  -5   4   -1.79    1.54
 -15   5  -4    0.46    1.34
 -15   5  -4    2.58    1.77
  15  -5   5   15.20    2.33
 -15   5  -5   17.32    1.89
 -15   5  -5   17.89    2.46
  15  -5   6    6.69    1.82
 -15   5  -6    4.93    1.91
  15  -5   7    2.11    1.59
 -15   5  -7    4.86    1.92
 -15   5  -8    1.44    1.82
 -15   5  -9   11.16    2.41
 -15   5 -10   -0.25    1.79
 -15   5 -11    5.42    2.19
 -15   5 -12    1.92    2.05
  14  -4 -13    4.35    2.50
  14  -4 -12    4.50    2.32
  14  -4 -11    6.18    2.31
  14  -4 -10    8.42    2.41
  14  -4  -9   13.61    2.54
  14  -4  -8   -0.31    1.85
  14  -4  -7   10.57    2.33
  14  -4  -6    1.50    1.88
  14  -4  -5   23.09    2.83
  14  -4  -4   47.67    3.57
 -14   4   4   44.15    3.11
  14  -4  -3   30.52    2.89
 -14   4   3   30.29    2.63
  14  -4  -2   12.82    2.18
 -14   4   2   13.43    2.05
 -14   4   2   13.18    2.24
  14  -4  -1   55.63    3.54
 -14   4   1   50.26    2.96
 -14   4   1   47.12    3.17
  14  -4   0    2.12    1.63
 -14   4   0    0.37    1.78
 -14   4   0    0.34    1.35
  14  -4   1   53.20    3.61
 -14   4  -1   49.49    2.92
 -14   4  -1   50.64    3.30
  14  -4   2   18.27    2.48
 -14   4  -2   10.75    2.03
 -14   4  -2   17.39    1.82
 -14   4  -3   32.87    2.91
 -14   4  -3   32.52    2.36
  14  -4   4   43.35    3.33
 -14   4  -4   46.34    3.39
 -14   4  -4   49.66    2.72
  14  -4   5   23.71    2.70
 -14   4  -5   29.76    2.84
 -14   4  -5   27.49    2.06
  14  -4   6    1.72    1.64
 -14   4  -6   -0.03    1.70
  14  -4   7   13.59    2.16
 -14   4  -7    9.06    2.11
  14  -4   8    3.50    1.52
 -14   4  -8    0.45    1.75
 -14   4  -9   11.02    2.37
 -14   4 -10   10.84    2.40
 -14   4 -11    1.84    2.01
 -14   4 -12    3.80    2.10
 -14   4 -13    5.46    2.33
  13  -3 -13    1.07    2.23
  13  -3 -12    4.53    2.65
  13  -3 -11    3.20    2.21
  13  -3 -10   14.39    2.88
  13  -3  -9   -1.90    1.71
  13  -3  -8    1.17    1.87
  13  -3  -7   16.56    2.55
  13  -3  -6    7.74    2.09
  13  -3  -5    2.95    2.15
  13  -3  -4   13.66    2.26
  13  -3  -3   13.40    2.15
 -13   3   3   12.38    2.02
  13  -3  -2   78.49    4.47
 -13   3   2   79.33    4.27
 -13   3   2   80.57    4.00
  13  -3  -1    0.35    1.61
 -13   3   1    2.01    1.74
 -13   3   1    3.17    1.24
  13  -3   0    1.45    1.79
 -13   3   0    1.25    1.25
 -13   3   0    0.60    1.71
  13  -3   1    2.57    1.56
 -13   3  -1    0.81    1.45
 -13   3  -1    0.80    1.12
  13  -3   2   76.57    4.25
 -13   3  -2   79.70    4.29
 -13   3  -2   73.46    3.43
  13  -3   3   11.41    1.95
 -13   3  -3   12.04    1.48
 -13   3  -3   11.93    2.08
 -13   3  -4   16.67    1.57
 -13   3  -4   17.49    2.48
  13  -3   5    1.07    1.59
 -13   3  -5    0.96    0.98
 -13   3  -5    3.78    2.05
  13  -3   6    7.64    1.92
 -13   3  -6   10.94    2.15
  13  -3   7   21.67    2.52
 -13   3  -7   16.56    2.46
  13  -3   8    4.70    1.82
 -13   3  -8    1.61    1.77
  13  -3   9    2.58    1.52
 -13   3  -9   -2.34    1.66
 -13   3 -10   13.85    2.51
 -13   3 -11    2.22    1.99
 -13   3 -12    3.74    2.44
 -13   3 -13    1.26    2.07
  12  -2 -13   -0.07    2.19
  12  -2 -12   -1.69    1.95
  12  -2 -11   13.02    2.64
  12  -2 -10    8.96    2.35
  12  -2  -9    1.76    1.88
  12  -2  -8    3.73    1.94
  12  -2  -7    2.83    1.92
  12  -2  -6   -1.38    1.62
  12  -2  -5   16.78    2.42
  12  -2  -4   13.05    2.17
  12  -2  -3   38.38    2.99
  12  -2  -2    7.78    2.07
 -12   2   2    6.09    1.77
 -12   2   2    8.56    1.60
  12  -2  -1    3.39    1.62
 -12   2   1    2.59    1.26
 -12   2   1    1.87    1.65
  12  -2   0    0.58    1.41
 -12   2   0    1.15    1.61
 -12   2   0    0.75    1.05
  12  -2   1    2.41    1.77
 -12   2  -1    0.84    1.41
 -12   2  -1    1.80    0.99
  12  -2   2    6.40    1.86
 -12   2  -2    3.56    1.11
 -12   2  -2    5.27    1.62
  12  -2   3   40.53    3.24
 -12   2  -3   40.24    2.98
 -12   2  -3   41.80    2.20
  12  -2   4   13.72    2.03
 -12   2  -4   13.01    1.31
 -12   2  -4   10.69    2.02
 -12   2  -5   13.93    2.18
 -12   2  -5   15.07    1.34
  12  -2   6    1.90    1.25
 -12   2  -6    0.60    1.65
  12  -2   7    1.64    1.63
 -12   2  -7    1.53    1.75
  12  -2   8    2.91    1.59
 -12   2  -8    3.60    1.86
  12  -2   9    1.60    1.48
 -12   2  -9    3.01    1.88
  12  -2  10    9.69    2.10
 -12   2 -10    6.35    2.10
 -12   2 -11    6.37    2.13
 -12   2 -12    1.67    1.94
 -12   2 -13    2.88    2.37
  11  -1 -14    6.82    2.81
  11  -1 -13    4.54    2.64
  11  -1 -12    3.19    2.15
  11  -1 -11    3.05    2.00
  11  -1 -10   12.48    2.47
  11  -1  -9    8.06    2.23
  11  -1  -8    2.20    1.95
  11  -1  -7    4.25    1.95
  11  -1  -6   18.30    2.45
  11  -1  -5   18.30    2.39
  11  -1  -4   82.45    4.32
  11  -1  -3   49.74    3.43
  11  -1  -2    6.67    1.75
 -11   1   2    8.83    1.83
  11  -1  -1   12.73    1.91
 -11   1   1    9.98    1.68
  11  -1   0    2.64    1.42
 -11   1   0    1.47    1.27
 -11   1   0    0.55    0.96
  11  -1   1   10.27    1.81
 -11   1  -1   10.87    1.93
 -11   1  -1   10.14    1.29
  11  -1   2    7.97    1.85
 -11   1  -2    8.56    1.69
 -11   1  -2    6.91    1.07
  11  -1   3   51.47    3.29
 -11   1  -3   43.78    2.17
 -11   1  -3   49.51    3.29
  11  -1   4   81.65    4.18
 -11   1  -4   81.50    3.20
 -11   1  -4   80.53    4.18
  11  -1   5   13.61    2.15
 -11   1  -5   12.73    2.09
 -11   1  -5   15.22    1.18
  11  -1   6   20.68    2.38
 -11   1  -6   16.18    2.23
 -11   1  -7    9.63    2.05
  11  -1   8    4.89    1.49
 -11   1  -8    5.92    2.26
  11  -1   9    9.94    2.04
 -11   1  -9    6.76    2.04
  11  -1  10   12.52    2.22
 -11   1 -10   11.14    2.30
  11  -1  11    1.45    1.62
 -11   1 -11    4.42    2.28
  11  -1  12    4.13    1.85
 -11   1 -12   -1.20    1.74
 -11   1 -13    5.57    2.47
 -11   1 -14    0.75    2.37
  10   0 -14    2.58    2.22
  10   0 -13    3.14    2.46
  10   0 -12    2.02    2.03
  10   0 -11   13.60    2.55
  10   0 -10   -0.67    1.73
  10   0  -9   32.93    3.47
  10   0  -8   21.22    2.71
  10   0  -7    1.39    1.69
  10   0  -6   10.29    2.10
  10   0  -5   43.98    3.23
  10   0  -4    4.68    1.63
  10   0  -3  194.63    7.82
  10   0  -2    6.18    1.67
  10   0  -1   12.88    1.91
 -10   0   1   16.11    1.98
  10   0   0   30.88    2.44
 -10   0   0   32.16    2.36
  10   0   1   13.13    2.01
 -10   0  -1   14.23    1.79
  10   0   2    7.68    1.60
 -10   0  -2    6.08    0.91
 -10   0  -2    8.39    1.60
  10   0   3  186.16    7.53
 -10   0  -3  187.43    6.60
 -10   0  -3  196.69    7.55
  10   0   4    7.42    1.75
 -10   0  -4    6.27    1.64
 -10   0  -4    7.02    0.80
  10   0   5   37.88    3.03
 -10   0  -5   41.93    1.73
 -10   0  -5   41.78    2.98
  10   0   6   11.42    1.92
 -10   0  -6   10.22    1.94
  10   0   7    1.91    1.62
 -10   0  -7    1.66    1.65
  10   0   8   20.63    2.55
 -10   0  -8   20.15    2.50
  10   0   9   19.81    2.38
 -10   0  -9   26.26    2.78
  10   0  10    0.37    0.41
 -10   0 -10    1.54    1.70
  10   0  11   13.30    2.05
 -10   0 -11   16.34    2.48
  10   0  12    4.83    1.98
 -10   0 -12   -1.07    1.74
  10   0  13    5.03    1.98
 -10   0 -13    2.27    2.25
 -10   0 -14    4.47    2.45
   9   1 -14    6.44    2.40
   9   1 -13    4.33    2.14
   9   1 -12    5.20    2.43
   9   1 -11    3.18    2.21
   9   1 -10   39.40    3.52
   9   1  -9   14.15    2.44
   9   1  -8    0.07    1.72
   9   1  -7   43.90    3.31
   9   1  -6   34.56    2.97
   9   1  -5   11.55    2.01
   9   1  -4   86.42    4.23
   9   1  -3   39.08    2.77
   9   1  -2  197.06    7.73
   9   1  -1   29.92    2.49
  -9  -1   1   31.90    2.32
   9   1   0   -1.37    1.11
  -9  -1   0    0.15    1.11
   9   1   1   27.94    2.38
  -9  -1  -1   28.18    2.28
   9   1   2  186.79    7.34
  -9  -1  -2  185.44    7.20
   9   1   3   38.24    2.61
  -9  -1  -3   31.80    2.43
   9   1   4   75.07    3.90
  -9  -1  -4   79.76    3.91
   9   1   5    8.48    1.64
  -9  -1  -5    7.09    1.71
   9   1   6   35.65    2.90
  -9  -1  -6   28.97    2.62
   9   1   7   48.32    3.35
  -9  -1  -7   42.62    3.11
   9   1   8    3.08    1.83
  -9  -1  -8    2.43    1.73
   9   1   9   13.35    2.14
  -9  -1  -9    9.60    2.10
   9   1  10   48.45    3.57
  -9  -1 -10   39.86    3.38
   9   1  11    4.28    1.88
  -9  -1 -11    2.11    2.10
   9   1  12    6.63    1.82
  -9  -1 -12    1.46    2.11
   9   1  13    1.36    1.17
  -9  -1 -13    0.02    1.83
  -9  -1 -14    5.56    2.14
   8   2 -14    0.92    2.02
   8   2 -13    0.06    1.87
   8   2 -12    1.48    2.23
   8   2 -11   10.52    2.30
   8   2 -10   22.57    3.01
   8   2  -9    2.80    1.89
   8   2  -8    1.82    1.74
   8   2  -7   16.37    2.34
   8   2  -6   28.12    2.65
   8   2  -5   18.01    2.38
   8   2  -4   69.51    3.65
   8   2  -3   47.49    2.98
   8   2  -2   29.97    2.46
   8   2  -1   15.73    1.83
   8   2   0   37.84    2.59
  -8  -2   0   37.96    2.44
   8   2   1   13.34    1.76
  -8  -2  -1   13.46    1.67
   8   2   2   23.74    2.19
  -8  -2  -2   28.45    2.26
   8   2   3   42.26    2.73
  -8  -2  -3   42.91    2.65
   8   2   4   69.48    3.78
  -8  -2  -4   71.70    3.61
   8   2   5    9.99    1.73
  -8  -2  -5   16.21    1.98
   8   2   6   27.03    2.70
  -8  -2  -6   27.01    2.46
   8   2   7   16.12    2.35
  -8  -2  -7   16.88    2.16
   8   2   8    2.72    1.50
  -8  -2  -8    0.80    1.59
   8   2   9    5.13    1.97
  -8  -2  -9    3.60    2.04
   8   2  10   19.73    2.67
  -8  -2 -10   21.31    2.54
   8   2  11    9.29    2.28
  -8  -2 -11    9.29    2.26
   8   2  12    1.52    1.88
  -8  -2 -12    1.17    2.03
   8   2  13    1.39    1.91
  -8  -2 -13    1.84    1.83
   8   2  14    2.52    1.76
  -8  -2 -14   -0.81    1.70
   7   3 -14   -0.76    2.26
   7   3 -13    7.63    2.55
   7   3 -12    3.38    1.97
   7   3 -11    4.67    2.21
   7   3 -10    2.91    1.74
   7   3  -9    5.92    1.90
   7   3  -8   14.23    2.26
   7   3  -7   77.67    4.23
   7   3  -6    6.36    1.76
   7   3  -5   42.58    2.82
   7   3  -4    6.90    1.59
   7   3  -3   75.62    3.78
   7   3  -2   22.40    2.08
   7   3  -1   89.12    4.13
   7   3   0  134.16    5.64
  -7  -3   0  134.60    5.46
   7   3   1   79.93    3.85
  -7  -3  -1   84.40    3.80
   7   3   2   19.79    2.05
  -7  -3  -2   22.76    1.95
   7   3   3   72.19    3.55
   7   3   3   68.28    2.42
  -7  -3  -3   71.61    3.47
   7   3   4    8.12    1.60
  -7  -3  -4    5.13    1.59
   7   3   5   43.11    2.85
  -7  -3  -5   46.12    2.87
   7   3   6    6.95    1.67
  -7  -3  -6    8.62    1.76
   7   3   7   79.64    4.38
  -7  -3  -7   78.25    4.23
   7   3   8   16.87    2.49
  -7  -3  -8   17.85    2.22
   7   3   9    6.45    2.08
  -7  -3  -9    3.15    1.94
   7   3  10    2.32    1.58
  -7  -3 -10    4.05    1.73
   7   3  11    8.45    2.10
  -7  -3 -11    4.88    1.81
   7   3  12    5.31    2.14
  -7  -3 -12    2.98    1.77
   7   3  13    5.77    1.93
  -7  -3 -13    4.94    2.19
   7   3  14    1.84    2.02
  -7  -3 -14    0.95    1.76
   6   4 -14    2.10    2.24
   6   4 -13   12.09    2.71
   6   4 -12    2.54    1.82
   6   4 -11    1.29    1.97
   6   4 -10    2.27    1.97
   6   4  -9   14.54    2.48
   6   4  -8   18.34    2.37
   6   4  -7  120.09    5.43
   6   4  -6   49.82    3.13
   6   4  -5   75.10    3.81
   6   4  -4    3.20    1.43
   6   4  -3   28.11    2.22
   6   4  -2    9.12    1.53
   6   4  -1  172.59    6.76
   6   4   0   88.65    4.17
   6   4   1  162.68    6.46
  -6  -4  -1  164.27    6.32
   6   4   2    9.79    1.52
   6   4   2    7.24    0.72
  -6  -4  -2    9.75    1.42
   6   4   3   27.55    1.11
   6   4   3   32.54    2.31
  -6  -4  -3   25.87    2.13
   6   4   4    2.20    1.26
  -6  -4  -4    5.20    1.31
   6   4   5   65.78    3.60
  -6  -4  -5   67.80    3.45
   6   4   6   52.96    3.20
  -6  -4  -6   46.98    3.00
   6   4   7  118.15    5.45
  -6  -4  -7  114.39    5.14
   6   4   8   23.46    2.63
  -6  -4  -8   25.83    2.45
   6   4   9   13.65    2.47
  -6  -4  -9   11.92    2.02
   6   4  10    0.96    1.52
  -6  -4 -10    2.32    1.82
   6   4  11    2.11    1.93
  -6  -4 -11    0.53    1.77
   6   4  12    3.62    2.12
  -6  -4 -12    1.00    1.62
   6   4  13   13.36    2.72
  -6  -4 -13   12.30    2.30
   6   4  14    3.82    2.12
  -6  -4 -14    1.12    1.75
   5   5 -15    0.81    2.17
   5   5 -14   19.33    3.00
   5   5 -13    0.64    1.69
   5   5 -12    2.16    1.94
   5   5 -11    8.43    2.21
   5   5 -10    5.15    2.06
   5   5  -9   18.81    2.35
   5   5  -8   77.13    4.10
   5   5  -7   10.83    1.85
   5   5  -6  313.65   11.51
   5   5  -5   55.22    3.15
   5   5  -4    1.07    1.27
   5   5  -3   93.95    4.21
   5   5  -2  153.42    6.10
   5   5  -1   56.61    2.99
   5   5   0  266.18    9.86
   5   5   0  274.66    9.35
   5   5   1   60.54    3.05
   5   5   1   52.66    2.31
  -5  -5  -1   54.16    2.84
   5   5   2  152.87    6.05
   5   5   2  153.31    5.26
  -5  -5  -2  145.11    5.85
   5   5   3   87.62    4.06
   5   5   3   83.35    3.07
  -5  -5  -3   90.84    3.87
   5   5   4   -0.57    1.08
  -5  -5  -4   -0.28    1.05
   5   5   5   55.81    3.19
  -5  -5  -5   51.43    2.91
   5   5   6  313.33   11.43
  -5  -5  -6  297.86   10.99
   5   5   7   16.31    2.18
  -5  -5  -7   10.91    1.80
   5   5   8   80.74    4.43
  -5  -5  -8   81.47    4.25
   5   5   9   17.74    2.48
  -5  -5  -9   20.41    2.48
   5   5  10    4.11    2.04
  -5  -5 -10    4.67    1.89
   5   5  11    7.36    1.98
  -5  -5 -11    7.18    1.74
   5   5  12    5.95    2.27
  -5  -5 -12    4.76    2.02
   5   5  13    1.61    1.81
  -5  -5 -13    0.51    1.80
   5   5  14   16.22    2.79
  -5  -5 -14   27.71    3.07
   5   5  15    3.43    2.04
   4   6 -14    3.25    2.24
   4   6 -14    5.49    2.30
   4   6 -13   13.67    2.56
   4   6 -12    0.50    1.94
   4   6 -11    0.32    1.52
   4   6 -10    1.47    1.87
   4   6  -9   15.17    2.33
   4   6  -8   27.68    2.67
   4   6  -7  126.13    5.55
   4   6  -6   46.93    2.94
   4   6  -5   72.78    3.63
   4   6  -4    2.22    1.45
   4   6  -3   34.39    2.34
   4   6  -2   10.53    1.64
   4   6  -2    7.78    1.32
   4   6  -1  165.50    6.00
   4   6  -1  156.11    6.27
   4   6   0   83.10    3.49
   4   6   0   89.10    4.00
   4   6   1  161.42    5.69
   4   6   1  155.26    6.22
   4   6   2    8.02    1.43
   4   6   2    8.57    0.93
  -4  -6  -2    9.73    1.37
   4   6   3   23.68    2.13
   4   6   3   24.42    1.37
  -4  -6  -3   31.26    2.03
   4   6   4    2.45    1.29
   4   6   4    3.83    0.38
  -4  -6  -4    1.62    1.13
   4   6   5   70.22    3.71
  -4  -6  -5   70.48    3.41
   4   6   6   40.86    2.98
  -4  -6  -6   43.67    2.83
   4   6   7  123.41    5.66
  -4  -6  -7  121.08    5.19
   4   6   8   21.70    2.56
  -4  -6  -8   22.31    2.39
   4   6   9   15.52    2.58
  -4  -6  -9   12.37    2.12
   4   6  10    0.31    1.92
  -4  -6 -10    0.08    1.56
   4   6  11    0.82    1.61
  -4  -6 -11   -1.30    1.57
   4   6  12    1.53    2.07
  -4  -6 -12    1.45    1.76
   4   6  13   14.34    2.65
  -4  -6 -13   11.06    2.28
   4   6  14    5.95    2.43
  -4  -6 -14    2.60    1.95
   3   7 -14    2.19    2.23
   3   7 -13    7.01    2.30
   3   7 -13    9.33    2.44
   3   7 -12    4.28    2.01
   3   7 -12    5.12    2.17
   3   7 -11    8.97    2.09
   3   7 -11    5.73    2.09
   3   7 -10    5.07    1.88
   3   7 -10    2.99    1.96
   3   7  -9    2.77    1.70
   3   7  -8   23.29    2.41
   3   7  -7   74.91    4.10
   3   7  -7   87.90    4.38
   3   7  -6    6.69    1.72
   3   7  -6    5.76    1.65
   3   7  -5   44.37    2.86
   3   7  -5   47.97    2.94
   3   7  -4    4.09    1.27
   3   7  -4    6.18    1.42
   3   7  -3   79.18    3.66
   3   7  -3   72.08    3.53
   3   7  -2   19.60    1.67
   3   7  -2   17.37    1.77
   3   7  -1   81.59    3.71
   3   7   0  132.45    5.32
   3   7   0  123.68    4.83
   3   7   1   81.87    3.25
   3   7   1   76.44    3.67
   3   7   2   19.01    1.89
   3   7   2   20.47    1.47
   3   7   3   65.12    2.85
   3   7   3   70.88    3.50
  -3  -7  -3   73.54    3.34
   3   7   4    5.80    0.72
   3   7   4    7.10    1.48
  -3  -7  -4    4.00    1.33
   3   7   5   43.63    1.71
   3   7   5   41.73    2.85
  -3  -7  -5   41.87    2.49
   3   7   6    8.59    1.74
  -3  -7  -6    3.95    1.50
   3   7   7   74.42    4.09
  -3  -7  -7   70.96    3.54
   3   7   8   17.11    2.37
  -3  -7  -8   17.04    2.07
   3   7   9    3.82    1.76
  -3  -7  -9    7.76    1.83
   3   7  10    1.99    1.65
  -3  -7 -10    4.91    1.76
   3   7  11    5.16    1.96
  -3  -7 -11    5.92    1.81
   3   7  12    3.93    1.94
  -3  -7 -12    1.33    1.69
   3   7  13    4.23    2.05
  -3  -7 -13    5.24    1.99
   3   7  14   -1.91    1.92
   2   8 -14   -0.51    2.07
   2   8 -13    2.13    2.16
   2   8 -12   -2.58    1.78
   2   8 -12    2.34    1.74
   2   8 -11    7.46    2.23
   2   8 -11    6.11    1.81
   2   8 -10   15.98    2.64
   2   8 -10   19.56    2.27
   2   8  -9    6.33    1.83
   2   8  -9    0.76    1.87
   2   8  -8    0.51    1.70
   2   8  -8    5.71    1.76
   2   8  -7   17.34    2.41
   2   8  -7   17.54    2.16
   2   8  -6   26.45    2.36
   2   8  -6   24.48    2.49
   2   8  -5   11.62    1.74
   2   8  -5   14.08    1.91
   2   8  -4   72.70    3.60
   2   8  -4   70.20    3.52
   2   8  -3   44.61    2.64
   2   8  -3   46.49    2.61
   2   8  -2   24.84    2.10
   2   8  -2   21.48    1.83
   2   8  -1   14.13    1.60
   2   8   0   36.52    2.29
   2   8   0   36.59    2.00
   2   8   1   14.68    1.68
   2   8   1   18.64    1.53
   2   8   2   24.26    1.66
   2   8   2   24.68    2.11
   2   8   3   39.83    2.26
   2   8   3   45.92    2.72
  -2  -8  -3   46.43    2.57
   2   8   4   67.71    3.56
   2   8   4   69.10    2.91
  -2  -8  -4   68.95    3.29
   2   8   5   14.54    1.09
   2   8   5   11.99    1.89
  -2  -8  -5   11.48    1.60
   2   8   6   27.42    2.59
   2   8   6   27.05    1.43
  -2  -8  -6   22.62    1.98
   2   8   7   19.13    2.38
  -2  -8  -7   16.51    1.93
   2   8   8    0.55    1.60
  -2  -8  -8    2.82    1.52
   2   8   9    5.68    1.98
  -2  -8  -9    2.06    1.51
   2   8  10   17.62    2.64
  -2  -8 -10   23.93    2.36
   2   8  11    5.09    2.03
  -2  -8 -11   10.27    1.95
   2   8  12   -2.51    1.90
  -2  -8 -12   -1.92    1.51
   2   8  13   -0.50    1.72
   2   8  14    0.36    1.86
   1   9 -14    3.48    2.33
   1   9 -13    1.26    2.14
   1   9 -12    1.38    2.01
   1   9 -11    3.71    1.69
   1   9 -11   -0.23    1.86
   1   9 -10   45.16    3.27
   1   9 -10   41.99    3.63
   1   9  -9   14.40    2.20
   1   9  -9   12.19    2.43
   1   9  -8    3.27    1.77
   1   9  -8    5.40    1.93
   1   9  -7   45.35    3.32
   1   9  -7   43.69    2.87
   1   9  -6   35.00    2.55
   1   9  -6   34.15    2.88
   1   9  -5    9.32    1.66
   1   9  -5    9.37    1.85
   1   9  -4   81.60    3.84
   1   9  -4   83.53    4.04
   1   9  -3   35.68    2.39
   1   9  -3   36.13    2.43
   1   9  -2  188.61    7.10
   1   9  -2  184.14    7.05
   1   9  -1   29.45    2.01
   1   9  -1   27.98    1.96
   1   9   0   -0.89    0.89
   1   9   0   -0.35    0.85
   1   9   1   26.66    2.03
   1   9   1   28.34    1.93
   1   9   2  185.94    7.03
   1   9   2  192.83    7.37
   1   9   3   34.74    2.43
   1   9   3   32.51    2.16
   1   9   4   77.84    3.43
   1   9   4   79.31    3.97
  -1  -9  -4   78.01    3.57
   1   9   5    8.40    1.09
   1   9   5    9.60    1.80
  -1  -9  -5   10.20    1.52
   1   9   6   31.62    1.80
   1   9   6   33.47    2.92
  -1  -9  -6   32.56    2.42
   1   9   7   40.20    2.07
   1   9   7   44.92    3.21
  -1  -9  -7   42.10    2.64
   1   9   8    8.18    2.18
  -1  -9  -8    4.12    1.51
   1   9   9   13.05    2.37
  -1  -9  -9   14.63    1.92
   1   9  10   38.99    3.74
  -1  -9 -10   42.41    2.86
   1   9  11    2.76    1.86
  -1  -9 -11    2.97    1.55
   1   9  12    2.54    1.92
   1   9  13    2.99    1.98
   1   9  14    5.45    2.27
   0  10 -14    7.16    2.69
   0  10 -13   -0.58    2.10
   0  10 -12    1.21    2.03
   0  10 -11   17.33    2.84
   0  10 -10   -1.31    1.73
   0  10 -10   -1.44    1.39
   0  10  -9   32.25    2.63
   0  10  -9   29.13    3.15
   0  10  -8   23.53    2.80
   0  10  -8   21.14    2.20
   0  10  -7    0.21    1.71
   0  10  -7   -0.46    1.50
   0  10  -6   10.73    1.79
   0  10  -6   13.12    2.16
   0  10  -5   43.99    3.03
   0  10  -5   41.49    2.76
   0  10  -4    6.19    1.43
   0  10  -4    6.74    1.62
   0  10  -3  197.92    7.55
   0  10  -3  192.59    7.33
   0  10  -2    8.26    1.47
   0  10  -2    5.74    1.20
   0  10  -1   13.16    1.60
   0  10  -1   13.47    1.55
   0  10   0   31.96    2.14
   0  10   1   14.85    1.60
   0  10   1   13.88    1.66
   0  10   2    5.60    1.35
   0  10   2    8.16    1.44
   0  10   3  177.55    6.86
   0  10   3  182.47    7.14
   0  10   4    6.36    1.31
   0  10   4    5.88    1.55
   0  10   5   38.06    2.21
   0  10   5   34.94    2.74
   0  10   6    9.70    1.31
   0  10   6   11.54    2.03
   0 -10  -6   12.39    1.56
   0  10   7   -0.08    0.91
   0  10   7    0.59    1.55
   0 -10  -7    0.35    1.22
   0  10   8   20.35    2.61
   0  10   8   20.64    1.69
   0 -10  -8   19.34    2.02
   0  10   9   29.89    3.05
   0 -10  -9   28.74    2.42
   0  10  10   -2.04    1.61
   0 -10 -10    3.99    1.59
   0  10  11   18.81    2.75
   0  10  12    1.88    1.96
   0  10  13    4.21    2.15
   0  10  14    4.74    2.60
  -1  11 -14    1.23    2.33
  -1  11 -13    0.42    2.15
  -1  11 -12    0.16    2.03
  -1  11 -11    5.14    2.19
  -1  11 -10   14.34    2.60
  -1  11  -9    6.51    2.13
  -1  11  -8    5.95    1.64
  -1  11  -8    3.85    1.97
  -1  11  -7    7.72    1.68
  -1  11  -7    8.40    2.11
  -1  11  -6   19.91    2.53
  -1  11  -6   22.27    2.07
  -1  11  -5   15.08    2.19
  -1  11  -5   18.04    1.87
  -1  11  -4   89.38    4.01
  -1  11  -4   94.69    4.54
  -1  11  -3   43.47    2.93
  -1  11  -3   48.68    2.64
  -1  11  -2    6.85    1.53
  -1  11  -2    5.43    1.20
  -1  11  -1   13.63    1.74
  -1  11  -1   11.35    1.60
  -1  11   0    1.45    1.28
  -1  11   0    1.56    1.16
  -1  11   1   10.58    1.53
  -1  11   2    4.85    1.52
  -1  11   2    4.80    1.53
  -1  11   3   40.67    2.80
  -1  11   3   49.26    2.92
  -1  11   4   82.21    4.03
  -1  11   4   79.73    4.10
  -1  11   5   13.45    2.03
  -1  11   5   16.56    1.80
  -1  11   6   18.23    1.82
  -1  11   6   20.71    2.40
  -1  11   7    7.24    1.37
  -1  11   7    4.65    1.83
   1 -11  -7    6.65    1.49
  -1  11   8    4.06    1.22
  -1  11   8    2.43    2.02
   1 -11  -8    4.89    1.46
  -1  11   9    8.00    2.12
  -1  11  10    9.80    2.24
  -1  11  11    2.32    1.79
  -1  11  12    3.09    2.02
  -1  11  13   10.87    2.82
  -1  11  14    2.43    2.17
  -2  12 -13    1.47    2.27
  -2  12 -12    2.42    2.19
  -2  12 -11    8.15    2.44
  -2  12 -10    7.36    1.92
  -2  12  -9    1.18    1.93
  -2  12  -8    3.36    2.03
  -2  12  -7    1.51    1.35
  -2  12  -7   -1.65    1.25
  -2  12  -6    0.25    1.24
  -2  12  -6    0.20    1.80
  -2  12  -5   14.49    2.24
  -2  12  -5   12.94    1.68
  -2  12  -4   13.77    1.60
  -2  12  -4   12.52    2.14
  -2  12  -3   41.53    2.47
  -2  12  -3   41.15    2.97
  -2  12  -2    4.93    1.34
  -2  12  -2    7.42    1.67
  -2  12  -1    2.67    1.40
  -2  12  -1    2.06    1.25
  -2  12   0    1.92    1.34
  -2  12   0   -0.84    1.17
  -2  12   1    5.13    1.70
  -2  12   1    2.39    1.40
  -2  12   2    6.28    1.45
  -2  12   2    0.28    0.73
  -2  12   3   38.81    2.70
  -2  12   3   34.25    2.59
  -2  12   4   13.85    2.01
  -2  12   4   15.43    2.10
  -2  12   5   14.96    1.96
  -2  12   5   17.88    2.28
  -2  12   6    1.42    1.60
  -2  12   6   -0.04    1.18
  -2  12   7    3.87    1.79
  -2  12   7    1.24    1.36
  -2  12   8    4.08    1.28
  -2  12   8    3.72    1.85
  -2  12   9    1.27    1.72
  -2  12  10    8.95    2.17
  -2  12  11    6.63    2.16
  -2  12  12    0.20    1.89
  -2  12  13    2.99    2.13
  -3  13 -13    4.62    2.44
  -3  13 -12    5.68    2.44
  -3  13 -11    3.24    2.22
  -3  13 -10   14.79    2.74
  -3  13  -9    0.19    1.91
  -3  13  -8    3.88    2.16
  -3  13  -7   14.88    2.24
  -3  13  -6   11.41    1.59
  -3  13  -6   10.68    2.30
  -3  13  -5    4.50    1.94
  -3  13  -5   -0.67    1.14
  -3  13  -4   14.45    1.67
  -3  13  -4   13.04    2.15
  -3  13  -3   14.65    1.64
  -3  13  -3   12.44    2.06
  -3  13  -2   76.12    3.60
  -3  13  -2   69.99    3.93
  -3  13  -1    1.04    1.28
  -3  13  -1    3.48    1.56
  -3  13   0    1.51    1.38
  -3  13   0    3.17    1.56
  -3  13   1    3.75    1.82
  -3  13   1    0.51    1.40
  -3  13   2   72.09    3.72
  -3  13   2   71.95    3.90
  -3  13   3    1.45    0.83
  -3  13   3   12.88    2.06
  -3  13   4   15.29    2.27
  -3  13   4   13.41    2.02
  -3  13   5    3.57    1.59
  -3  13   5    1.47    1.52
  -3  13   6    7.43    1.80
  -3  13   6   10.96    2.20
  -3  13   7   16.80    2.06
  -3  13   7   10.18    2.11
  -3  13   8    4.09    1.83
  -3  13   8    4.01    1.37
  -3  13   9    0.65    1.68
  -3  13  10   15.93    2.60
  -3  13  11    3.23    1.97
  -3  13  12    5.43    2.17
  -3  13  13    2.89    2.17
  -4  14 -13    1.23    2.47
  -4  14 -12    1.12    2.33
  -4  14 -11   12.68    2.76
  -4  14 -10    9.42    2.58
  -4  14  -9   17.54    2.82
  -4  14  -8    1.02    2.02
  -4  14  -7   15.90    2.57
  -4  14  -6    3.31    2.03
  -4  14  -5   27.53    2.95
  -4  14  -5   28.47    2.12
  -4  14  -4   42.37    2.52
  -4  14  -4   43.61    3.37
  -4  14  -3   36.17    3.05
  -4  14  -3   30.74    2.19
  -4  14  -2   13.45    1.76
  -4  14  -2   13.43    2.14
  -4  14  -1   51.55    2.93
  -4  14  -1   45.99    3.29
  -4  14   0    0.69    1.34
  -4  14   0    1.64    1.63
  -4  14   1   50.26    3.20
  -4  14   1   53.39    3.45
  -4  14   2   13.28    2.08
  -4  14   2   14.84    2.26
  -4  14   3   29.70    2.67
  -4  14   3   31.76    3.12
  -4  14   5   22.95    2.56
  -4  14   5   23.53    2.63
  -4  14   6    1.85    1.68
  -4  14   6    1.21    1.66
  -4  14   7    9.63    2.39
  -4  14   7   10.54    1.97
  -4  14   8    2.71    1.40
  -4  14   8    1.34    2.00
  -4  14   9   16.75    2.16
  -4  14   9   10.69    2.37
  -4  14  10   10.36    2.35
  -4  14  11    4.84    2.19
  -4  14  12    0.39    2.28
  -4  14  13    4.14    2.35
  -5  15 -12    2.79    2.41
  -5  15 -11    6.51    2.64
  -5  15 -10    2.82    2.28
  -5  15  -9   14.16    2.77
  -5  15  -8    3.23    2.13
  -5  15  -7   -1.12    1.85
  -5  15  -6    8.36    2.17
  -5  15  -5   10.62    2.30
  -5  15  -4    2.20    1.87
  -5  15  -4    2.63    1.26
  -5  15  -3   47.47    2.78
  -5  15  -3   45.93    3.46
  -5  15  -2    1.30    1.36
  -5  15  -2   -0.44    1.66
  -5  15  -1    9.06    1.63
  -5  15  -1   10.05    2.16
  -5  15   0   40.91    3.36
  -5  15   0   40.91    2.83
  -5  15   1   10.07    2.43
  -5  15   1    7.89    1.84
  -5  15   2    2.51    1.67
  -5  15   2    1.90    1.74
  -5  15   3   54.10    3.59
  -5  15   3   44.82    3.48
  -5  15   4    1.23    1.82
  -5  15   4   -0.26    1.64
  -5  15   5   13.94    2.46
  -5  15   6    6.11    1.94
  -5  15   6    4.63    1.80
  -5  15   7    1.94    1.71
  -5  15   7    1.02    1.66
  -5  15   8    2.47    1.75
  -5  15   8    3.76    1.73
  -5  15   9   12.75    2.48
  -5  15   9   18.23    2.34
  -5  15  10    4.45    2.05
  -5  15  11    5.33    2.54
  -5  15  12    0.45    2.02
  -6  16 -11   -0.47    2.20
  -6  16 -10    4.56    2.38
  -6  16  -9    5.92    2.36
  -6  16  -8    0.48    1.97
  -6  16  -7    2.13    2.01
  -6  16  -6    0.99    1.81
  -6  16  -5    6.77    2.17
  -6  16  -4    3.96    1.97
  -6  16  -3   15.03    2.49
  -6  16  -3   21.23    2.11
  -6  16  -2   21.98    2.13
  -6  16  -2   22.02    2.78
  -6  16  -1   15.04    1.96
  -6  16  -1    9.10    2.21
  -6  16   0    0.06    1.41
  -6  16   0   -0.45    1.76
  -6  16   1    8.81    1.90
  -6  16   1   11.66    2.35
  -6  16   2   19.95    2.30
  -6  16   2   20.13    2.69
  -6  16   3   20.14    2.51
  -6  16   3   15.66    2.59
  -6  16   4    5.33    1.96
  -6  16   4    2.35    2.14
  -6  16   5    5.40    2.06
  -6  16   5    1.49    1.90
  -6  16   6    1.42    1.24
  -6  16   6    2.60    1.65
  -6  16   7    3.43    1.37
  -6  16   7    5.63    1.95
  -6  16   8    0.35    1.67
  -6  16   8    1.81    1.82
  -6  16   9    5.93    1.91
  -6  16   9    4.87    2.06
  -6  16  10    6.20    2.30
  -6  16  11   -0.37    1.98
  -7  17 -11   -1.05    2.17
  -7  17 -10    0.15    2.19
  -7  17  -9    2.11    2.23
  -7  17  -8    2.65    2.14
  -7  17  -7    0.63    1.92
  -7  17  -6   12.46    2.48
  -7  17  -5    0.66    1.81
  -7  17  -4    2.25    1.94
  -7  17  -3    1.89    1.91
  -7  17  -2    2.93    1.89
  -7  17  -1    1.85    1.38
  -7  17  -1    3.50    1.97
  -7  17   0    6.15    1.71
  -7  17   0    5.75    2.12
  -7  17   1    1.89    1.91
  -7  17   1    1.43    1.54
  -7  17   2   -0.68    1.59
  -7  17   2    0.55    1.76
  -7  17   3    0.59    1.74
  -7  17   3    0.30    2.08
  -7  17   4    0.37    1.52
  -7  17   4   -1.95    1.97
  -7  17   5    3.09    2.05
  -7  17   5   -0.27    1.53
  -7  17   6   11.00    2.24
  -7  17   6   10.69    2.54
  -7  17   7   -2.21    1.63
  -7  17   7   -0.03    1.80
  -7  17   8    1.80    0.54
  -7  17   8    2.51    1.86
  -7  17   9    2.00    2.35
  -7  17   9    2.79    1.88
  -7  17  10   -2.16    1.78
  -7  17  11   -2.50    1.81
  -8  18 -10    0.28    2.25
  -8  18  -9    0.14    2.15
  -8  18  -8    5.57    2.42
  -8  18  -7   16.05    2.84
  -8  18  -6    1.84    2.06
  -8  18  -5    8.41    2.35
  -8  18  -4   -0.86    1.86
  -8  18  -3    3.13    2.00
  -8  18  -2    0.03    1.83
  -8  18  -1   14.73    2.52
  -8  18   0   11.40    1.92
  -8  18   0   12.85    2.44
  -8  18   1   19.78    2.37
  -8  18   1   23.06    2.84
  -8  18   2   -0.21    2.12
  -8  18   2    1.74    1.68
  -8  18   3    2.66    1.60
  -8  18   3    1.33    1.80
  -8  18   4    0.31    1.88
  -8  18   4    2.47    1.69
  -8  18   5    7.94    2.54
  -8  18   5    9.72    2.14
  -8  18   6    2.08    1.76
  -8  18   6   -0.07    1.78
  -8  18   7   13.24    2.54
  -8  18   7   19.52    2.92
  -8  18   8    5.16    2.57
  -8  18   8    5.44    2.32
  -8  18   9   -0.57    1.88
  -8  18   9    2.21    0.99
  -8  18  10    1.18    2.39
  -9  19  -9    2.13    2.24
  -9  19  -8   -0.53    2.02
  -9  19  -7   16.68    2.88
  -9  19  -6    1.49    2.20
  -9  19  -5    1.59    2.11
  -9  19  -4   -1.55    1.91
  -9  19  -3    2.54    2.05
  -9  19  -2    1.92    1.97
  -9  19  -1    7.65    2.30
  -9  19   0    7.16    2.24
  -9  19   1   10.25    2.05
  -9  19   1   11.34    2.40
  -9  19   2   -0.80    1.86
  -9  19   2    1.58    1.74
  -9  19   3    4.23    2.13
  -9  19   3    1.04    1.82
  -9  19   4    1.01    1.95
  -9  19   4   -0.95    1.85
  -9  19   5    3.26    2.07
  -9  19   5    3.47    1.85
  -9  19   6    2.80    2.04
  -9  19   6    6.56    2.44
  -9  19   7   15.48    2.92
  -9  19   7   18.96    2.96
  -9  19   8   -0.44    1.71
  -9  19   8    1.65    2.24
  -9  19   9    0.60    1.78
  -9  19   9   -1.19    2.31
 -10  20  -8    1.33    2.23
 -10  20  -7   -0.29    2.17
 -10  20  -6   19.78    3.10
 -10  20  -5    0.41    2.13
 -10  20  -4    0.66    2.03
 -10  20  -3    0.08    2.11
 -10  20  -2    5.01    2.22
 -10  20  -1   -2.42    1.91
 -10  20   0    5.13    2.19
 -10  20   1   -1.43    1.90
 -10  20   2    4.45    1.92
 -10  20   2    3.76    2.14
 -10  20   3    2.04    1.92
 -10  20   3    3.09    2.49
 -10  20   4    5.39    2.15
 -10  20   4   -1.79    1.82
 -10  20   5   -1.30    2.18
 -10  20   5    1.80    2.19
 -10  20   6   12.64    2.71
 -10  20   6   19.66    3.12
 -10  20   7   -1.76    1.77
 -10  20   7    0.00    1.94
 -10  20   8   -0.67    2.24
 -10  20   8    3.34    2.46
 -11  21  -7    2.47    2.31
 -11  21  -6   -2.80    1.98
 -11  21  -5    2.51    2.20
 -11  21  -4   -2.04    2.02
 -11  21  -3   -2.12    1.93
 -11  21  -2    0.73    2.04
 -11  21  -1    1.97    2.13
 -11  21   0    1.51    2.10
 -11  21   1    2.36    2.08
 -11  21   2    3.41    2.23
 -11  21   3    0.81    1.95
 -11  21   3    0.15    1.97
 -11  21   4    1.75    2.08
 -11  21   4    0.82    2.41
 -11  21   5    1.90    2.14
 -11  21   5    1.44    1.98
 -11  21   6   -0.60    1.91
 -11  21   6   -0.03    1.87
 -11  21   7    6.77    2.43
 -11  21   7    1.71    2.07
 -12  22  -5    1.02    2.20
 -12  22  -4    0.10    2.23
 -12  22  -3    2.18    2.19
 -12  22  -2    1.15    2.11
 -12  22  -1   -3.03    1.83
 -12  22   0    3.67    2.26
 -12  22   1    3.60    2.20
 -12  22   2   -1.55    1.95
 -12  22   3   -0.41    2.03
 -12  22   4   -0.79    1.95
 -12  22   4    1.07    2.05
 -12  22   5    3.33    2.32
 -12  22   5    0.58    2.09
 -13  23  -2    5.01    2.44
 -13  23  -1    2.64    2.31
 -13  23   0   -1.26    2.02
 -13  23   1    1.60    2.19
 -13  23   2    0.73    2.49
  23 -12  -2    1.63    2.32
 -23  12   2   -0.12    1.87
 -23  12   1   -1.85    2.03
 -23  12   0    1.92    1.85
 -23  12  -1    1.59    2.06
 -23  12  -2    1.09    2.18
 -23  12  -2    2.55    1.84
  22 -11  -5   -1.39    2.33
 -22  11   5    1.55    1.97
  22 -11  -4   -1.60    2.12
 -22  11   4    1.37    1.92
  22 -11  -3    1.32    1.90
 -22  11   3   -1.14    1.75
  22 -11  -2   -1.93    2.11
 -22  11   2    5.19    2.12
  22 -11  -1    0.42    2.07
 -22  11   1   -1.15    1.70
  22 -11   0   -0.71    1.99
 -22  11   0    4.37    1.92
 -22  11   0    2.35    2.09
 -22  11  -1    0.28    2.00
 -22  11  -1   -0.49    1.92
 -22  11  -2    0.42    1.92
 -22  11  -2    0.22    2.14
 -22  11  -3   -1.70    2.12
 -22  11  -3    1.31    1.61
 -22  11  -4   -2.31    2.16
 -22  11  -5   -1.20    1.92
  21 -10  -7   -0.49    2.47
 -21  10   7    3.56    2.16
  21 -10  -6    1.26    2.14
 -21  10   6   -1.25    1.82
  21 -10  -5    0.45    2.08
 -21  10   5   -0.07    1.85
  21 -10  -4    0.69    1.90
 -21  10   4   -2.17    1.61
  21 -10  -3    2.78    2.23
 -21  10   3    0.92    1.78
  21 -10  -2    1.82    2.16
 -21  10   2    2.33    1.82
  21 -10  -1    2.31    2.19
 -21  10   1    1.25    2.01
 -21  10   1    1.66    2.00
  21 -10   0   -0.40    0.69
 -21  10   0    0.41    1.97
 -21  10   0   -0.39    0.63
  21 -10   1    1.31    2.14
 -21  10  -1    2.70    2.13
 -21  10  -1    1.44    1.92
 -21  10  -2   -1.00    1.96
 -21  10  -2    0.44    1.77
 -21  10  -3    1.31    1.51
 -21  10  -3    0.98    1.79
 -21  10  -4    0.08    2.16
 -21  10  -5   -2.91    2.19
 -21  10  -6   -2.00    2.16
 -21  10  -7    2.10    2.11
  20  -9  -8   -1.05    2.07
  20  -9  -7    3.68    2.60
  20  -9  -6    5.15    2.37
 -20   9   6    9.07    2.33
  20  -9  -5    3.31    2.21
 -20   9   5    3.62    2.25
  20  -9  -4    0.09    1.80
 -20   9   4    0.70    1.74
  20  -9  -3    0.96    2.06
 -20   9   3    0.81    1.75
  20  -9  -2    7.99    2.51
 -20   9   2    1.42    1.65
 -20   9   2    5.35    2.19
  20  -9  -1    5.00    2.10
 -20   9   1    3.49    1.77
 -20   9   1    9.98    2.21
  20  -9   0   -0.79    1.87
 -20   9   0    0.15    1.89
 -20   9   0    1.54    1.85
  20  -9   1    2.84    2.05
 -20   9  -1    2.03    1.82
 -20   9  -1    4.07    2.23
  20  -9   2    3.92    2.16
 -20   9  -2    5.90    1.72
 -20   9  -2    4.85    2.25
 -20   9  -3    0.85    1.43
 -20   9  -3    1.05    1.85
 -20   9  -4   -1.71    1.80
 -20   9  -5    1.38    2.00
 -20   9  -6    6.91    2.28
 -20   9  -7    7.32    2.56
 -20   9  -8   -2.13    1.81
  19  -8  -9   -0.76    2.56
  19  -8  -8    2.54    2.20
  19  -8  -7   -1.41    2.37
  19  -8  -6    4.78    2.28
 -19   8   6    5.50    2.11
  19  -8  -5   -0.89    1.86
 -19   8   5    1.90    1.77
  19  -8  -4    2.89    1.93
 -19   8   4   -0.99    1.93
  19  -8  -3   -0.16    1.66
 -19   8   3    0.09    1.55
  19  -8  -2    4.03    1.95
 -19   8   2    1.54    1.96
 -19   8   2    2.62    1.71
  19  -8  -1    2.21    2.15
 -19   8   1    0.76    1.85
 -19   8   1    0.23    0.79
  19  -8   0   24.62    2.99
 -19   8   0   21.82    2.51
 -19   8   0   22.95    2.91
  19  -8   1   -0.72    0.66
 -19   8  -1    3.33    1.78
 -19   8  -1    2.63    1.76
  19  -8   2    0.86    2.00
 -19   8  -2    2.61    1.48
 -19   8  -2    1.93    1.81
  19  -8   3    0.60    1.82
 -19   8  -3    2.66    1.66
 -19   8  -3   -1.45    1.93
 -19   8  -4    1.59    2.18
 -19   8  -4    0.12    1.49
 -19   8  -5    0.01    2.15
 -19   8  -6    6.44    2.21
 -19   8  -7   -1.02    1.82
 -19   8  -8    6.15    2.26
 -19   8  -9   -1.44    2.32
  18  -7 -10    1.97    2.39
  18  -7  -9   -0.69    2.03
  18  -7  -8    0.29    2.04
  18  -7  -7    7.44    2.36
  18  -7  -6    4.34    2.11
  18  -7  -5    2.10    2.26
 -18   7   5   -0.73    1.56
  18  -7  -4   -0.48    1.72
 -18   7   4    0.19    1.57
  18  -7  -3    8.15    2.24
 -18   7   3    1.90    1.87
  18  -7  -2    1.39    2.04
 -18   7   2    1.98    1.47
 -18   7   2    2.23    1.62
  18  -7  -1    3.57    2.23
 -18   7   1    3.54    1.88
 -18   7   1    2.58    1.64
  18  -7   0    5.13    2.12
 -18   7   0    1.91    1.50
 -18   7   0    1.70    1.91
  18  -7   1    3.50    2.01
 -18   7  -1    5.06    1.60
 -18   7  -1    4.51    2.07
  18  -7   2    0.74    1.55
 -18   7  -2    5.17    1.71
 -18   7  -2    0.23    1.62
  18  -7   3    1.66    2.02
 -18   7  -3    2.16    1.79
 -18   7  -3    1.22    1.46
  18  -7   4   -0.81    1.61
 -18   7  -4    1.40    1.38
 -18   7  -4    1.50    1.85
 -18   7  -5   -3.68    1.58
 -18   7  -6    5.61    2.34
 -18   7  -7    6.95    2.25
 -18   7  -8   -1.93    1.76
 -18   7  -9   -2.44    1.84
 -18   7 -10    1.01    1.99
  17  -6 -11   -2.06    2.10
  17  -6 -10    1.11    2.14
  17  -6  -9    3.54    2.24
  17  -6  -8    5.64    2.63
  17  -6  -7    3.14    2.07
  17  -6  -6    6.54    2.18
  17  -6  -5    2.22    1.97
 -17   6   5    1.61    1.63
  17  -6  -4    7.12    2.41
 -17   6   4    4.68    1.75
  17  -6  -3    4.14    2.08
 -17   6   3    7.35    2.06
  17  -6  -2    2.15    1.80
 -17   6   2    1.29    1.45
 -17   6   2    1.25    1.22
  17  -6  -1   -1.00    1.68
 -17   6   1    2.07    1.75
 -17   6   1   -1.54    1.81
  17  -6   0    2.39    1.74
 -17   6   0    0.49    1.60
 -17   6   0   -0.99    1.87
  17  -6   1    0.54    1.91
 -17   6  -1   -1.01    1.48
 -17   6  -1   -1.92    1.53
  17  -6   2    1.03    1.32
 -17   6  -2    2.94    1.54
 -17   6  -2    1.72    1.72
  17  -6   3    2.73    1.84
 -17   6  -3    5.20    1.56
 -17   6  -3    4.22    1.90
  17  -6   4    4.67    1.91
 -17   6  -4    4.62    1.98
 -17   6  -4    3.51    1.44
  17  -6   5    1.27    1.66
 -17   6  -5    0.23    2.02
 -17   6  -6    5.09    1.95
 -17   6  -7    7.64    2.42
 -17   6  -8    3.01    2.28
 -17   6  -9    1.68    2.08
 -17   6 -10    0.29    2.17
 -17   6 -11   -0.30    1.96
  16  -5 -11   -1.27    2.08
  16  -5 -10   10.67    2.64
  16  -5  -9    1.59    2.15
  16  -5  -8    1.08    1.95
  16  -5  -7    1.80    1.89
  16  -5  -6    2.77    1.97
  16  -5  -5    3.18    2.29
  16  -5  -4   13.33    2.41
 -16   5   4   12.31    2.15
  16  -5  -3    6.08    2.04
 -16   5   3    7.48    1.83
  16  -5  -2    4.67    1.99
 -16   5   2    7.79    2.21
 -16   5   2    7.92    1.82
  16  -5  -1    3.29    2.23
 -16   5   1    0.67    1.93
 -16   5   1    0.47    1.35
  16  -5   0    1.60    1.72
 -16   5   0    0.09    1.31
 -16   5   0    3.41    2.05
  16  -5   1   -0.16    2.00
 -16   5  -1    0.88    1.71
 -16   5  -1    1.62    1.33
  16  -5   2    7.80    2.07
 -16   5  -2    7.54    1.65
 -16   5  -2    8.78    2.32
 -16   5  -3    8.90    2.14
 -16   5  -3    6.28    1.54
  16  -5   4   10.78    2.22
 -16   5  -4   14.19    1.83
 -16   5  -4   12.00    2.31
  16  -5   5    3.64    1.80
 -16   5  -5    3.44    2.19
  16  -5   6    0.14    1.73
 -16   5  -6    4.67    1.96
  16  -5   7    2.53    1.77
 -16   5  -7    2.82    1.86
 -16   5  -8    1.82    1.91
 -16   5  -9    2.81    1.96
 -16   5 -10    9.11    2.39
 -16   5 -11    3.75    2.16
  15  -4 -12   -0.32    2.19
  15  -4 -11    1.25    2.20
  15  -4 -10    2.52    2.18
  15  -4  -9    2.40    2.05
  15  -4  -8   10.64    2.43
  15  -4  -7    0.92    1.80
  15  -4  -6    1.03    1.85
  15  -4  -5    2.86    2.00
  15  -4  -4   43.79    3.50
  15  -4  -3   11.08    2.28
 -15   4   3   10.91    1.93
  15  -4  -2    1.72    1.84
 -15   4   2   -0.05    1.36
 -15   4   2    0.78    1.62
  15  -4  -1    6.38    2.01
 -15   4   1    9.03    2.21
 -15   4   1    5.93    1.77
  15  -4   0   31.91    3.16
 -15   4   0   31.84    2.64
 -15   4   0   35.68    3.12
  15  -4   1    7.69    2.06
 -15   4  -1    3.34    1.80
 -15   4  -1    4.93    1.54
  15  -4   2    1.70    1.71
 -15   4  -2   -0.01    1.37
 -15   4  -2   -1.99    1.91
  15  -4   3    9.17    2.27
 -15   4  -3   14.88    2.35
 -15   4  -3   12.72    1.65
 -15   4  -4   56.58    4.04
 -15   4  -4   47.60    2.70
  15  -4   5    0.43    1.63
 -15   4  -5    1.26    1.79
  15  -4   6    0.08    1.52
 -15   4  -6    2.06    1.80
  15  -4   7    5.46    1.82
 -15   4  -7    0.80    2.08
  15  -4   8   11.05    2.09
 -15   4  -8    7.39    2.10
 -15   4  -9    5.31    2.16
 -15   4 -10    7.50    2.20
 -15   4 -11    1.77    2.09
 -15   4 -12    1.10    2.11
  14  -3 -12    0.47    2.20
  14  -3 -11    2.26    2.18
  14  -3 -10    2.19    2.07
  14  -3  -9    7.02    2.23
  14  -3  -8   10.16    2.37
  14  -3  -7    3.60    1.95
  14  -3  -6    6.42    2.17
  14  -3  -5   10.06    2.35
  14  -3  -4    1.66    1.92
  14  -3  -3   21.06    2.58
  14  -3  -2    1.11    1.74
 -14   3   2   -1.42    1.72
 -14   3   2    1.37    1.33
  14  -3  -1    2.47    2.03
 -14   3   1    1.13    1.82
 -14   3   1    1.07    1.22
  14  -3   0   53.39    3.74
 -14   3   0   47.10    2.91
 -14   3   0   50.66    3.55
  14  -3   1   -0.21    1.84
 -14   3  -1    1.79    1.99
 -14   3  -1    0.85    1.21
  14  -3   2   -0.89    1.53
 -14   3  -2   -0.66    1.57
 -14   3  -2   -0.81    1.12
  14  -3   3   20.61    2.50
 -14   3  -3   20.94    1.85
 -14   3  -3   18.28    2.45
  14  -3   4    0.77    1.79
 -14   3  -4    2.65    1.16
 -14   3  -4    2.22    1.80
  14  -3   5    5.21    1.20
 -14   3  -5   13.69    2.29
  14  -3   6    3.59    1.86
 -14   3  -6    4.15    1.95
  14  -3   7    0.19    1.54
 -14   3  -7    0.89    1.67
  14  -3   8    8.53    1.95
 -14   3  -8    7.83    2.05
  14  -3   9   10.91    2.22
 -14   3  -9    9.95    2.29
 -14   3 -10   -1.97    1.71
 -14   3 -11    5.23    2.16
 -14   3 -12    3.85    2.15
  13  -2 -13    0.30    2.25
  13  -2 -12   -1.16    2.51
  13  -2 -11   -0.75    2.42
  13  -2 -10   14.48    2.71
  13  -2  -9    3.29    2.02
  13  -2  -8   15.10    2.80
  13  -2  -7    2.91    1.92
  13  -2  -6    0.96    1.93
  13  -2  -5    4.32    2.02
  13  -2  -4    3.90    1.89
  13  -2  -3    5.92    1.93
  13  -2  -2   51.68    3.79
 -13   2   2   46.03    3.21
  13  -2  -1    8.83    1.99
 -13   2   1    6.24    1.76
 -13   2   1    5.36    1.30
  13  -2   0   83.00    4.39
 -13   2   0   83.26    4.23
 -13   2   0   83.56    3.88
  13  -2   1    6.04    1.84
 -13   2  -1    5.30    1.77
 -13   2  -1    2.55    1.21
  13  -2   2   42.30    3.15
 -13   2  -2   44.77    2.43
 -13   2  -2   44.89    3.16
  13  -2   3    1.69    1.56
 -13   2  -3    4.84    1.83
 -13   2  -3    2.56    1.07
  13  -2   4    3.90    1.67
 -13   2  -4    3.91    1.09
 -13   2  -4    4.82    1.87
  13  -2   5    0.85    1.72
 -13   2  -5    1.38    1.81
  13  -2   6    0.81    0.37
 -13   2  -6   -1.02    1.69
  13  -2   7    6.62    1.89
 -13   2  -7    3.80    1.82
  13  -2   8   17.65    2.45
 -13   2  -8   13.54    2.61
  13  -2   9    0.00    1.54
 -13   2  -9   -0.45    1.70
  13  -2  10   18.95    2.67
 -13   2 -10   17.50    2.64
 -13   2 -11   -1.42    2.13
 -13   2 -12    2.99    2.38
 -13   2 -13   -3.04    1.85
  12  -1 -13    2.66    2.30
  12  -1 -12   -0.28    2.02
  12  -1 -11    5.59    2.25
  12  -1 -10    5.77    2.17
  12  -1  -9   -0.14    1.85
  12  -1  -8    3.31    1.96
  12  -1  -7    4.83    2.04
  12  -1  -6    2.61    1.95
  12  -1  -5    7.05    2.31
  12  -1  -4    7.32    1.96
  12  -1  -3   41.61    3.23
  12  -1  -2    7.49    1.97
  12  -1  -1   10.67    1.95
 -12   1   1    7.19    1.72
  12  -1   0   49.64    3.27
 -12   1   0   48.32    3.12
  12  -1   1    7.84    1.89
 -12   1  -1    6.73    1.21
 -12   1  -1   12.85    2.15
  12  -1   2    2.02    1.82
 -12   1  -2    3.69    1.08
 -12   1  -2    5.61    1.72
  12  -1   3   40.02    3.01
 -12   1  -3   39.05    2.04
 -12   1  -3   37.65    2.98
  12  -1   4    7.49    2.08
 -12   1  -4    8.13    1.90
 -12   1  -4    8.21    1.06
  12  -1   5    7.62    1.81
 -12   1  -5   10.56    2.39
  12  -1   6    2.83    1.58
 -12   1  -6   -0.56    1.65
  12  -1   7    2.96    1.49
 -12   1  -7    1.70    1.83
 -12   1  -8    5.70    2.26
  12  -1   9    2.93    1.66
 -12   1  -9    1.92    1.74
  12  -1  10    3.50    1.77
 -12   1 -10   -0.19    1.76
  12  -1  11    4.18    1.88
 -12   1 -11    6.96    2.16
 -12   1 -12    3.43    1.96
 -12   1 -13   -0.92    1.91
  11   0 -13    6.01    2.47
  11   0 -12    8.33    2.73
  11   0 -11    2.15    2.38
  11   0 -10    0.44    1.88
  11   0  -9   -0.44    1.82
  11   0  -8   33.97    3.27
  11   0  -7    5.10    2.00
  11   0  -6   16.86    2.52
  11   0  -5    6.20    1.92
  11   0  -4  151.00    6.50
  11   0  -3    9.45    2.26
  11   0  -2    2.59    1.67
  11   0  -1   15.46    2.16
 -11   0   1   17.59    2.09
  11   0   0   51.78    3.27
 -11   0   0   47.60    3.26
  11   0   1   18.60    2.22
 -11   0  -1   13.72    1.96
  11   0   2    0.82    1.41
 -11   0  -2   -0.54    1.45
  11   0   3    6.09    1.69
 -11   0  -3   10.60    2.08
  11   0   4  141.06    6.23
 -11   0  -4  137.78    4.94
 -11   0  -4  136.65    6.01
  11   0   5    0.91    1.76
 -11   0  -5    3.50    1.80
  11   0   6   18.72    2.53
 -11   0  -6   14.99    2.28
  11   0   7    6.35    1.83
 -11   0  -7    2.19    1.81
  11   0   8   34.56    3.11
 -11   0  -8   29.18    2.96
  11   0   9    0.68    1.53
 -11   0  -9    0.04    1.71
  11   0  10    0.43    0.73
 -11   0 -10   -0.11    1.71
  11   0  11    1.35    1.16
 -11   0 -11    2.20    2.23
  11   0  12   12.37    2.44
 -11   0 -12   10.50    2.56
 -11   0 -13    1.50    1.95
  10   1 -14   -0.43    2.45
  10   1 -13    1.26    2.52
  10   1 -12    3.28    2.12
  10   1 -11    1.27    1.95
  10   1 -10   10.94    2.37
  10   1  -9    9.74    2.20
  10   1  -8    2.64    1.93
  10   1  -7    3.96    1.98
  10   1  -6   23.44    2.67
  10   1  -5   13.93    2.19
  10   1  -4   82.01    4.30
  10   1  -3   47.41    3.25
  10   1  -2    6.49    1.74
  10   1  -1    8.49    1.78
 -10  -1   1   13.05    2.01
  10   1   0   -0.68    1.30
 -10  -1   0    0.77    1.30
  10   1   1    9.92    1.78
 -10  -1  -1    8.23    1.65
  10   1   2    6.29    1.67
 -10  -1  -2    6.92    1.65
  10   1   3   51.95    3.40
 -10  -1  -3   44.57    2.99
  10   1   4   78.81    4.37
 -10  -1  -4   86.03    4.25
  10   1   5   13.93    2.30
 -10  -1  -5   15.93    2.21
  10   1   6   18.52    2.31
 -10  -1  -6   18.67    2.36
  10   1   7    3.81    1.68
 -10  -1  -7    6.61    1.95
  10   1   8    5.62    1.81
 -10  -1  -8    2.26    1.82
  10   1   9   11.12    2.09
 -10  -1  -9    6.43    1.96
  10   1  10   10.34    2.34
 -10  -1 -10    7.75    2.08
  10   1  11    5.12    2.02
 -10  -1 -11    1.85    1.85
  10   1  12    1.96    1.85
 -10  -1 -12    5.20    2.08
  10   1  13    1.56    1.27
 -10  -1 -13    4.29    2.08
 -10  -1 -14    2.51    2.06
   9   2 -14    1.89    2.22
   9   2 -13    1.28    2.34
   9   2 -12    1.83    2.00
   9   2 -11    6.33    2.09
   9   2 -10    0.63    1.75
   9   2  -9   12.40    2.63
   9   2  -8   11.98    2.40
   9   2  -7    8.25    2.15
   9   2  -6   62.88    3.85
   9   2  -5   13.21    2.08
   9   2  -4   30.41    2.73
   9   2  -3   91.72    4.55
   9   2  -2   23.31    2.32
   9   2  -1   21.72    2.22
   9   2   0   14.57    2.02
  -9  -2   0   15.01    1.83
   9   2   1   17.46    2.06
  -9  -2  -1   17.26    1.96
   9   2   2   32.39    2.61
  -9  -2  -2   23.69    2.29
   9   2   3   91.07    4.60
  -9  -2  -3   92.90    4.36
   9   2   4   31.59    2.67
  -9  -2  -4   23.92    2.37
   9   2   5   14.73    2.08
  -9  -2  -5   11.35    2.17
   9   2   6   63.10    3.79
  -9  -2  -6   66.24    4.05
   9   2   7    7.08    2.01
  -9  -2  -7    8.89    2.24
   9   2   8    9.43    2.05
  -9  -2  -8   11.79    2.39
   9   2   9   11.12    2.34
  -9  -2  -9   10.81    2.14
   9   2  10    1.43    1.80
  -9  -2 -10    3.29    1.78
   9   2  11   10.72    2.34
  -9  -2 -11    9.85    2.16
   9   2  12    5.13    2.15
  -9  -2 -12    0.77    1.81
   9   2  13    2.43    1.77
  -9  -2 -13    1.58    1.86
   9   2  14    9.63    2.51
  -9  -2 -14    6.90    2.18
   8   3 -14    5.27    2.58
   8   3 -13    1.13    2.36
   8   3 -12    1.19    2.21
   8   3 -11    3.59    2.20
   8   3 -10   13.50    2.62
   8   3  -9   10.66    2.26
   8   3  -8    5.77    2.04
   8   3  -7   11.85    2.14
   8   3  -6    8.65    1.91
   8   3  -5    8.86    1.87
   8   3  -4    6.68    1.78
   8   3  -3   42.60    2.95
   8   3  -2    6.29    1.54
   8   3  -1   14.26    2.08
   8   3   0   24.50    2.29
  -8  -3   0   25.33    2.20
   8   3   1   14.89    1.90
  -8  -3  -1   15.95    1.89
   8   3   2    7.03    1.62
  -8  -3  -2    9.49    1.58
   8   3   3   37.65    2.66
  -8  -3  -3   37.13    2.63
   8   3   4    6.86    1.69
  -8  -3  -4   10.80    1.77
   8   3   5    7.08    1.96
  -8  -3  -5    7.58    1.93
   8   3   6    5.03    1.67
  -8  -3  -6    5.38    1.74
   8   3   7   13.36    2.31
  -8  -3  -7    9.20    1.98
   8   3   8    3.44    1.74
  -8  -3  -8    6.24    2.14
   8   3   9   10.65    2.29
  -8  -3  -9    7.55    1.93
   8   3  10   15.57    2.45
  -8  -3 -10   13.18    2.42
   8   3  11    4.34    1.80
  -8  -3 -11    4.09    2.10
   8   3  12    1.43    1.99
  -8  -3 -12   -2.06    1.57
   8   3  13    1.83    2.02
  -8  -3 -13    1.82    2.15
   8   3  14    2.54    2.07
  -8  -3 -14    3.81    1.98
   7   4 -14    4.37    2.14
   7   4 -13    3.59    2.32
   7   4 -12    4.22    2.28
   7   4 -11   -2.40    1.93
   7   4 -10   27.58    2.92
   7   4  -9    0.15    1.68
   7   4  -8   21.52    2.78
   7   4  -7    8.70    1.98
   7   4  -6   21.50    2.38
   7   4  -5    1.60    1.53
   7   4  -4    9.27    1.81
   7   4  -3    4.29    1.48
   7   4  -2   18.27    2.05
   7   4  -1   12.84    1.99
   7   4   0  218.18    8.35
   7   4   1    9.31    1.66
  -7  -4  -1   13.11    1.70
   7   4   2   13.34    1.85
   7   4   2   16.13    1.04
  -7  -4  -2   15.24    1.96
   7   4   3    4.77    0.51
   7   4   3    4.79    1.46
  -7  -4  -3    6.52    1.49
   7   4   4    9.02    1.73
  -7  -4  -4    8.13    1.62
   7   4   5    1.82    1.45
  -7  -4  -5   -0.14    1.36
   7   4   6   23.08    2.47
  -7  -4  -6   18.27    2.39
   7   4   7    3.26    1.90
  -7  -4  -7    4.68    1.70
   7   4   8   26.99    3.06
  -7  -4  -8   24.01    2.59
   7   4   9    0.67    1.59
  -7  -4  -9    1.20    1.92
   7   4  10   26.05    3.09
  -7  -4 -10   22.34    2.70
   7   4  11    4.49    1.90
  -7  -4 -11   -1.54    1.75
   7   4  12   12.63    2.58
  -7  -4 -12    4.20    1.87
   7   4  13   -0.49    2.00
  -7  -4 -13   -0.97    1.66
   7   4  14    4.09    2.27
  -7  -4 -14    0.61    2.03
   6   5 -14    0.83    2.25
   6   5 -13   16.43    2.98
   6   5 -12    2.02    2.11
   6   5 -11   -0.84    1.95
   6   5 -10   -0.72    1.86
   6   5  -9   -0.98    1.58
   6   5  -8    5.43    1.84
   6   5  -7   92.61    4.58
   6   5  -6   29.25    2.68
   6   5  -5   26.68    2.58
   6   5  -4   11.30    1.77
   6   5  -3    2.32    1.34
   6   5  -2   19.69    2.05
   6   5  -1   96.75    4.38
   6   5   0   21.71    2.09
   6   5   1   95.77    4.48
   6   5   1   97.77    3.75
  -6  -5  -1   99.95    4.34
   6   5   2   19.12    2.02
   6   5   2   22.25    1.25
  -6  -5  -2   20.31    1.93
   6   5   3    2.93    1.37
   6   5   3    2.96    0.55
  -6  -5  -3    3.61    1.30
   6   5   4    9.68    1.67
  -6  -5  -4   10.46    1.85
   6   5   5   26.38    2.65
  -6  -5  -5   20.93    2.32
   6   5   6   22.05    2.52
  -6  -5  -6   27.43    2.52
   6   5   7  105.70    5.23
  -6  -5  -7   90.52    4.73
   6   5   8    6.27    1.94
  -6  -5  -8    6.95    2.08
   6   5   9    3.35    1.99
  -6  -5  -9    0.71    1.88
   6   5  10   -1.86    1.43
  -6  -5 -10   -1.70    1.69
   6   5  11    1.58    1.99
  -6  -5 -11    2.48    1.62
   6   5  12    3.90    2.13
  -6  -5 -12   -1.16    1.86
   6   5  13   12.78    2.58
  -6  -5 -13   11.70    2.48
   6   5  14   -0.37    2.08
  -6  -5 -14    4.57    2.10
   5   6 -14    2.74    2.31
   5   6 -13    6.78    2.47
   5   6 -12   -0.52    1.97
   5   6 -11   -2.56    1.80
   5   6 -10    2.70    1.90
   5   6  -9    0.18    1.83
   5   6  -8    5.01    1.69
   5   6  -7   89.92    4.50
   5   6  -6   26.02    2.71
   5   6  -5   23.19    2.31
   5   6  -4   10.74    1.93
   5   6  -3    5.74    1.47
   5   6  -2   25.95    2.23
   5   6  -1   95.30    4.03
   5   6  -1  102.21    4.55
   5   6   0   24.13    1.59
   5   6   0   24.64    2.17
   5   6   1   96.86    3.83
   5   6   1  104.30    4.54
   5   6   2   20.23    1.28
   5   6   2   20.53    2.06
  -5  -6  -2   19.01    1.89
   5   6   3    5.43    1.40
   5   6   3    2.22    0.71
  -5  -6  -3    0.56    1.14
   5   6   4    9.64    1.71
  -5  -6  -4   10.01    1.55
   5   6   5   21.04    2.32
  -5  -6  -5   19.10    2.16
   5   6   6   26.79    2.62
  -5  -6  -6   24.54    2.27
   5   6   7   90.25    4.69
  -5  -6  -7   87.31    4.26
   5   6   8    6.05    1.89
  -5  -6  -8    6.05    1.96
   5   6   9    2.84    1.77
  -5  -6  -9    0.98    1.83
   5   6  10    4.06    1.76
  -5  -6 -10   -0.18    1.49
   5   6  11   -0.66    1.57
  -5  -6 -11   -0.30    1.72
   5   6  12   -0.15    2.03
  -5  -6 -12   -0.72    1.85
   5   6  13    9.16    2.35
  -5  -6 -13    9.92    2.29
   5   6  14    2.53    1.88
  -5  -6 -14    3.45    2.11
   4   7 -14    3.80    2.33
   4   7 -13    0.16    1.95
   4   7 -13    1.55    2.10
   4   7 -12    7.86    2.39
   4   7 -12    3.48    2.08
   4   7 -11   -0.11    1.80
   4   7 -10   27.10    2.78
   4   7  -9   -0.57    1.76
   4   7  -8   26.16    2.57
   4   7  -7    6.58    2.02
   4   7  -6   22.21    2.50
   4   7  -5    0.59    1.36
   4   7  -4    4.88    1.41
   4   7  -4    8.03    1.59
   4   7  -3    4.30    1.27
   4   7  -3    6.41    1.50
   4   7  -2   16.06    1.58
   4   7  -2   15.43    1.80
   4   7  -1   10.76    1.36
   4   7  -1    9.28    1.72
   4   7   0  213.80    7.70
   4   7   0  217.71    8.18
   4   7   1    9.85    1.19
   4   7   1   13.87    1.72
   4   7   2   16.20    1.88
   4   7   2   18.42    1.38
  -4  -7  -2   16.12    1.75
   4   7   3    5.52    0.96
   4   7   3    4.30    1.38
  -4  -7  -3    3.83    1.40
   4   7   4    8.12    1.67
   4   7   4    8.19    0.73
  -4  -7  -4    5.56    1.59
   4   7   5    1.78    1.45
   4   7   5    1.91    0.32
  -4  -7  -5    1.63    1.27
   4   7   6   20.46    2.40
  -4  -7  -6   18.68    2.02
   4   7   7    8.39    2.15
  -4  -7  -7    7.44    1.82
   4   7   8   26.16    2.87
  -4  -7  -8   25.38    2.55
   4   7   9    2.92    1.82
  -4  -7  -9   -1.02    1.38
   4   7  10   25.58    3.01
  -4  -7 -10   26.66    2.68
   4   7  11   -1.48    1.51
  -4  -7 -11   -0.79    1.70
   4   7  12    5.50    2.09
  -4  -7 -12    5.90    2.06
   4   7  13    1.53    1.94
  -4  -7 -13   -2.48    1.86
   4   7  14    3.69    2.37
   3   8 -14    2.43    2.33
   3   8 -13    0.43    2.05
   3   8 -12    4.25    1.91
   3   8 -12    4.30    2.22
   3   8 -11    4.91    2.06
   3   8 -11    6.28    1.95
   3   8 -10   14.25    2.61
   3   8 -10   17.39    2.38
   3   8  -9    8.61    2.02
   3   8  -9   11.73    2.35
   3   8  -8    1.83    1.89
   3   8  -8    4.45    1.87
   3   8  -7   13.32    1.93
   3   8  -7   13.80    2.25
   3   8  -6    7.25    1.91
   3   8  -6    4.43    1.51
   3   8  -5    8.54    1.80
   3   8  -5    8.47    1.83
   3   8  -4    7.20    1.72
   3   8  -4    8.61    1.65
   3   8  -3   37.15    2.76
   3   8  -3   44.87    2.77
   3   8  -2    5.15    1.39
   3   8  -2    7.26    1.44
   3   8  -1   17.34    1.85
   3   8   0   22.49    2.00
   3   8   0   16.91    1.60
   3   8   1   16.31    1.46
   3   8   1   14.42    1.75
   3   8   2    6.64    1.15
   3   8   2    7.12    1.48
   3   8   3   32.70    1.96
   3   8   3   36.62    2.55
  -3  -8  -3   32.22    2.25
   3   8   4    9.40    1.09
   3   8   4    7.49    1.69
  -3  -8  -4    8.72    1.43
   3   8   5    6.35    1.69
   3   8   5    7.85    0.79
  -3  -8  -5   11.39    1.59
   3   8   6    5.98    1.98
  -3  -8  -6    6.82    1.67
   3   8   7   10.99    2.09
  -3  -8  -7   10.74    1.92
   3   8   8    3.47    1.82
  -3  -8  -8    4.10    1.72
   3   8   9    9.94    2.14
  -3  -8  -9    6.67    1.86
   3   8  10   10.64    2.51
  -3  -8 -10   17.93    2.24
   3   8  11    4.70    2.15
  -3  -8 -11    5.11    1.82
   3   8  12    0.33    2.15
  -3  -8 -12   -1.50    1.65
   3   8  13    4.09    2.03
   3   8  14    3.70    2.35
   2   9 -14    3.67    2.36
   2   9 -13   -1.38    1.93
   2   9 -12    5.65    2.28
   2   9 -11   11.06    2.45
   2   9 -11   11.19    2.21
   2   9 -10    2.78    1.78
   2   9 -10    0.80    1.93
   2   9  -9   16.99    2.26
   2   9  -9   12.51    2.41
   2   9  -8    9.10    1.91
   2   9  -8    9.97    2.29
   2   9  -7    4.67    1.84
   2   9  -7    9.22    1.86
   2   9  -6   59.67    3.35
   2   9  -6   66.46    3.81
   2   9  -5   15.21    2.06
   2   9  -5   12.42    1.98
   2   9  -4   30.49    2.28
   2   9  -4   26.86    2.42
   2   9  -3   83.42    3.99
   2   9  -3   85.92    3.92
   2   9  -2   29.00    2.31
   2   9  -2   28.11    2.38
   2   9  -1    7.02    1.16
   2   9  -1   17.93    1.76
   2   9   0   12.07    1.65
   2   9   0   12.89    1.51
   2   9   1   19.68    1.98
   2   9   1   20.26    1.72
   2   9   2   27.02    2.02
   2   9   2   26.18    2.30
   2   9   3   85.40    4.10
   2   9   3   81.19    3.63
   2   9   4   28.85    2.57
   2   9   4   27.54    1.89
  -2  -9  -4   29.03    2.28
   2   9   5   14.87    2.12
   2   9   5   13.53    1.20
  -2  -9  -5   15.38    1.70
   2   9   6   63.92    2.63
   2   9   6   59.34    3.77
  -2  -9  -6   64.07    3.37
   2   9   7    4.66    1.76
  -2  -9  -7    5.46    1.56
   2   9   8   11.36    2.44
  -2  -9  -8   11.86    1.90
   2   9   9   12.14    2.28
  -2  -9  -9   13.54    1.99
   2   9  10    0.46    1.69
  -2  -9 -10    3.30    1.59
   2   9  11   11.27    2.43
  -2  -9 -11   12.53    2.03
   2   9  12    4.27    2.03
   2   9  13   -4.52    1.95
   2   9  14    2.51    2.37
   1  10 -14   -2.88    2.18
   1  10 -13    4.99    2.48
   1  10 -12    3.18    2.24
   1  10 -11    5.99    2.28
   1  10 -10   10.50    2.42
   1  10 -10   12.45    2.08
   1  10  -9    7.49    2.21
   1  10  -9   10.80    2.05
   1  10  -8    1.54    1.95
   1  10  -8    4.13    1.81
   1  10  -7    6.59    2.06
   1  10  -7    7.57    1.89
   1  10  -6   22.47    2.23
   1  10  -6   17.51    2.44
   1  10  -5   15.87    2.19
   1  10  -5   15.47    2.01
   1  10  -4   87.36    4.30
   1  10  -4   85.20    4.06
   1  10  -3   51.28    2.97
   1  10  -3   42.87    2.83
   1  10  -2    4.31    1.48
   1  10  -2    5.84    1.40
   1  10  -1   10.73    1.49
   1  10  -1   10.84    1.59
   1  10   0    2.61    1.12
   1  10   0    2.25    1.17
   1  10   1   10.99    1.60
   1  10   1   12.93    1.60
   1  10   2    5.90    1.46
   1  10   2    8.01    1.48
   1  10   3   43.03    2.70
   1  10   3   48.54    2.97
   1  10   4   84.18    4.28
   1  10   4   83.80    3.79
   1  10   5   13.11    1.45
   1  10   5   14.41    2.10
  -1 -10  -5   14.61    1.77
   1  10   6   18.23    2.38
   1  10   6   19.52    1.57
  -1 -10  -6   19.74    1.95
   1  10   7    7.93    1.98
  -1 -10  -7    7.32    1.59
   1  10   8    4.28    1.81
  -1 -10  -8    3.81    1.51
   1  10   9    7.30    2.08
  -1 -10  -9    7.63    1.69
   1  10  10   10.98    2.37
  -1 -10 -10   12.84    1.93
   1  10  11    5.02    2.07
   1  10  12    3.79    2.05
   1  10  13    4.76    2.14
   1  10  14    1.58    2.05
   0  11 -13    2.96    2.25
   0  11 -12    8.92    2.60
   0  11 -11    0.47    2.04
   0  11 -10    0.96    1.90
   0  11  -9    1.53    1.58
   0  11  -9   -0.25    1.84
   0  11  -8   37.99    2.86
   0  11  -8   33.86    3.29
   0  11  -7    8.94    1.89
   0  11  -7    7.32    2.15
   0  11  -6   17.15    2.41
   0  11  -6   19.72    2.16
   0  11  -5    2.88    1.55
   0  11  -5    3.73    1.78
   0  11  -4  142.67    6.25
   0  11  -4  150.54    5.98
   0  11  -3    6.15    1.50
   0  11  -3    6.57    1.67
   0  11  -2   -0.65    1.24
   0  11  -2    1.31    1.33
   0  11  -1   17.04    1.83
   0  11  -1   14.51    1.72
   0  11   0   37.73    2.47
   0  11   1   16.12    1.86
   0  11   1   17.55    1.83
   0  11   2    0.88    1.33
   0  11   2    0.58    1.26
   0  11   3    7.45    1.84
   0  11   3    9.02    1.64
   0  11   4  140.37    5.73
   0  11   4  135.28    6.02
   0  11   5    5.87    1.69
   0  11   5    4.92    1.29
   0  11   6   18.32    2.42
   0  11   6   19.56    1.82
   0  11   7    6.99    1.20
   0  11   7    4.71    1.86
   0 -11  -7    7.79    1.65
   0  11   8   29.93    3.10
   0 -11  -8   34.44    2.63
   0  11   9    1.27    1.69
   0 -11  -9    0.36    1.24
   0  11  10    3.35    1.93
   0  11  11   -0.16    1.77
   0  11  12   10.76    2.50
   0  11  13   -0.06    1.86
  -1  12 -13    0.56    2.18
  -1  12 -12    2.88    2.29
  -1  12 -11    2.74    1.74
  -1  12 -10   -0.65    1.85
  -1  12  -9    3.13    2.05
  -1  12  -8    8.36    1.75
  -1  12  -8    7.57    2.17
  -1  12  -7    1.49    1.50
  -1  12  -7    2.06    1.93
  -1  12  -6    2.55    1.35
  -1  12  -6    1.90    1.86
  -1  12  -5    7.19    2.06
  -1  12  -5    7.72    1.58
  -1  12  -4    8.94    1.55
  -1  12  -4   10.86    2.26
  -1  12  -3   40.22    2.97
  -1  12  -3   41.49    2.77
  -1  12  -2    2.09    1.38
  -1  12  -2    3.18    1.53
  -1  12  -1    6.61    1.58
  -1  12  -1    7.36    1.60
  -1  12   0   50.42    3.10
  -1  12   0   53.37    3.24
  -1  12   1    6.83    1.54
  -1  12   2    1.58    1.60
  -1  12   2    2.49    1.41
  -1  12   3   40.50    2.84
  -1  12   3   36.11    2.81
  -1  12   4    9.11    1.84
  -1  12   4    8.42    1.77
  -1  12   5    3.22    1.91
  -1  12   5   10.15    1.60
  -1  12   6    1.93    1.63
  -1  12   6    1.11    1.25
  -1  12   7    2.64    1.66
  -1  12   7    3.28    1.27
  -1  12   8    5.44    1.96
   1 -12  -8    3.28    1.41
  -1  12   9    2.59    1.76
  -1  12  10   -0.80    1.65
  -1  12  11    8.21    2.53
  -1  12  12    2.82    2.01
  -1  12  13    0.97    2.33
  -2  13 -13    0.19    2.36
  -2  13 -12    2.55    2.29
  -2  13 -11    0.73    2.09
  -2  13 -10   13.66    2.66
  -2  13  -9    2.91    2.09
  -2  13  -8   16.13    2.58
  -2  13  -7    1.06    1.93
  -2  13  -6    0.49    1.37
  -2  13  -6   -1.36    1.87
  -2  13  -5    0.64    1.34
  -2  13  -5    0.36    1.79
  -2  13  -4    1.67    1.73
  -2  13  -4    2.17    1.34
  -2  13  -3    1.84    1.61
  -2  13  -3    2.92    1.33
  -2  13  -2   47.76    3.13
  -2  13  -2   45.21    2.80
  -2  13  -1    7.45    1.61
  -2  13  -1    4.89    1.62
  -2  13   0   80.38    3.97
  -2  13   0   74.58    3.97
  -2  13   1    7.00    1.88
  -2  13   1    2.99    1.46
  -2  13   2   21.05    2.13
  -2  13   3    5.00    1.77
  -2  13   3    3.39    1.79
  -2  13   4    4.46    1.75
  -2  13   4    2.08    1.59
  -2  13   5    1.50    1.43
  -2  13   5    3.04    1.91
  -2  13   6    1.13    1.30
  -2  13   6    1.74    1.65
  -2  13   7    0.54    1.22
  -2  13   7    0.83    1.63
  -2  13   8   15.54    2.69
  -2  13   9    1.03    1.69
  -2  13  10   16.07    2.84
  -2  13  11    2.32    2.01
  -2  13  12    4.41    2.14
  -2  13  13   -1.06    1.91
  -3  14 -12    4.93    2.88
  -3  14 -11    7.45    2.62
  -3  14 -10   -2.61    2.05
  -3  14  -9    8.96    2.47
  -3  14  -8   12.34    2.54
  -3  14  -7    2.92    2.01
  -3  14  -6    6.69    2.21
  -3  14  -5   10.65    1.66
  -3  14  -5   17.53    2.54
  -3  14  -4    2.19    1.38
  -3  14  -4    2.92    1.88
  -3  14  -3   16.14    2.31
  -3  14  -3   19.38    2.02
  -3  14  -2    1.97    1.68
  -3  14  -2    1.45    1.32
  -3  14  -1    3.09    1.47
  -3  14  -1    2.33    1.64
  -3  14   0   51.55    3.64
  -3  14   0   50.60    3.21
  -3  14   1    1.35    1.59
  -3  14   1    2.62    1.43
  -3  14   2    1.93    1.61
  -3  14   2   -0.61    1.50
  -3  14   3   14.75    2.09
  -3  14   3   12.33    1.79
  -3  14   4    2.15    1.87
  -3  14   4    5.74    1.79
  -3  14   5    9.82    2.07
  -3  14   5   13.66    2.20
  -3  14   6    5.88    1.75
  -3  14   6    5.78    2.09
  -3  14   7    3.34    1.44
  -3  14   7    0.45    1.67
  -3  14   8    7.12    2.00
  -3  14   9    7.50    2.12
  -3  14  10    2.81    2.24
  -3  14  11   10.30    2.69
  -3  14  12    5.28    2.55
  -4  15 -12    2.22    2.42
  -4  15 -11    4.92    2.49
  -4  15 -10    4.47    2.37
  -4  15  -9    5.94    2.38
  -4  15  -8   11.16    2.50
  -4  15  -7    3.23    2.08
  -4  15  -6    0.13    1.87
  -4  15  -5    0.43    1.82
  -4  15  -4   49.00    2.88
  -4  15  -4   48.87    3.61
  -4  15  -3    9.53    2.15
  -4  15  -3   12.10    1.78
  -4  15  -2    1.79    1.72
  -4  15  -2   -0.60    1.25
  -4  15  -1    6.02    1.96
  -4  15  -1    6.69    1.70
  -4  15   0   31.46    3.15
  -4  15   0   29.53    2.58
  -4  15   1    3.39    2.17
  -4  15   1    4.45    1.52
  -4  15   2    3.65    1.84
  -4  15   2   -1.28    1.30
  -4  15   3   14.30    2.33
  -4  15   3   13.72    2.32
  -4  15   4   23.17    2.35
  -4  15   5    0.33    1.40
  -4  15   5   -1.00    1.53
  -4  15   6    0.82    1.62
  -4  15   6    0.11    1.49
  -4  15   7    1.70    1.70
  -4  15   7    4.02    1.64
  -4  15   8    9.29    2.01
  -4  15   8    6.48    2.04
  -4  15   9   -0.04    1.76
  -4  15  10    5.94    2.49
  -4  15  11    0.82    1.91
  -4  15  12    2.63    2.14
  -5  16 -11    2.31    2.34
  -5  16 -10    3.32    2.34
  -5  16  -9    5.37    2.38
  -5  16  -8    0.75    2.03
  -5  16  -7   -2.36    1.75
  -5  16  -6    1.43    1.95
  -5  16  -5    3.19    1.94
  -5  16  -4   13.94    2.45
  -5  16  -3    5.42    2.00
  -5  16  -3    7.13    1.52
  -5  16  -2    6.00    2.05
  -5  16  -2    8.17    1.68
  -5  16  -1   -0.53    1.76
  -5  16  -1   -1.72    1.44
  -5  16   0   -1.17    1.75
  -5  16   0    0.22    1.43
  -5  16   1    1.14    1.37
  -5  16   1    2.65    1.90
  -5  16   2    6.70    2.11
  -5  16   2    4.26    1.63
  -5  16   3    6.74    1.80
  -5  16   3    3.72    2.17
  -5  16   4   13.29    2.43
  -5  16   4   12.44    2.34
  -5  16   5    6.54    1.90
  -5  16   5    1.48    0.74
  -5  16   6    0.69    1.83
  -5  16   6    2.40    1.72
  -5  16   7    2.16    1.79
  -5  16   7   -1.45    1.58
  -5  16   8    1.62    1.62
  -5  16   8   -0.76    1.69
  -5  16   9    0.64    1.79
  -5  16  10    8.61    2.66
  -5  16  11    2.02    2.04
  -6  17 -11    2.69    2.41
  -6  17 -10   -0.93    2.13
  -6  17  -9    5.36    2.42
  -6  17  -8    1.64    2.11
  -6  17  -7    5.09    2.23
  -6  17  -6    5.30    2.15
  -6  17  -5    1.28    1.84
  -6  17  -4    3.60    1.98
  -6  17  -3    2.39    1.92
  -6  17  -2    2.97    1.97
  -6  17  -2    0.58    1.35
  -6  17  -1    1.15    1.46
  -6  17  -1   -0.41    1.77
  -6  17   0    2.14    1.52
  -6  17   0   -1.38    1.75
  -6  17   1   -1.68    2.04
  -6  17   1   -0.96    1.23
  -6  17   2   -0.21    1.72
  -6  17   2    1.17    1.41
  -6  17   3    8.98    2.52
  -6  17   3    4.57    1.68
  -6  17   4    1.74    2.15
  -6  17   4    4.96    1.77
  -6  17   5   -2.33    1.71
  -6  17   5    1.60    1.93
  -6  17   6    1.29    0.57
  -6  17   6    4.08    2.13
  -6  17   7    3.14    1.92
  -6  17   7    5.48    2.25
  -6  17   8    1.08    1.88
  -6  17   8    1.24    2.09
  -6  17   9   -3.73    1.96
  -6  17  10   -0.49    1.94
  -6  17  11    0.43    2.10
  -7  18 -10   -3.31    2.08
  -7  18  -9   -1.39    1.93
  -7  18  -8    0.25    2.12
  -7  18  -7    7.90    2.45
  -7  18  -6    6.58    2.20
  -7  18  -5    0.73    1.90
  -7  18  -4   -0.53    1.82
  -7  18  -3    1.98    1.91
  -7  18  -2    1.55    1.91
  -7  18  -1    3.70    1.98
  -7  18  -1    3.52    1.54
  -7  18   0    3.33    1.60
  -7  18   0    0.73    1.77
  -7  18   1    6.64    2.09
  -7  18   1    2.61    1.68
  -7  18   2    3.06    1.97
  -7  18   2    2.55    1.75
  -7  18   3    0.58    1.76
  -7  18   3    2.33    1.88
  -7  18   4   -0.30    2.00
  -7  18   4   -0.76    1.55
  -7  18   5    1.62    2.12
  -7  18   5    0.20    1.90
  -7  18   6    3.03    2.15
  -7  18   6    5.19    1.96
  -7  18   7    6.32    2.16
  -7  18   8   -0.81    1.49
  -7  18   8    0.17    2.16
  -7  18   9   -0.46    1.92
  -7  18  10   -1.72    1.87
  -8  19  -9    0.62    2.24
  -8  19  -8    1.51    2.17
  -8  19  -7    0.73    2.08
  -8  19  -6    5.30    2.31
  -8  19  -5    1.75    2.06
  -8  19  -4    0.01    2.01
  -8  19  -3    1.09    1.94
  -8  19  -2    1.59    1.99
  -8  19  -1    2.45    2.01
  -8  19   0   23.60    2.44
  -8  19   0   15.83    2.70
  -8  19   1   -0.08    1.83
  -8  19   1    1.13    1.58
  -8  19   2    3.17    1.83
  -8  19   2    1.08    1.96
  -8  19   3   -0.12    1.75
  -8  19   3    0.41    1.83
  -8  19   4   -1.37    1.85
  -8  19   4   -1.62    1.77
  -8  19   5    3.51    2.10
  -8  19   5    2.16    1.90
  -8  19   6    2.82    1.89
  -8  19   6    4.67    2.07
  -8  19   7    2.99    1.99
  -8  19   7    1.21    2.24
  -8  19   8    3.72    1.81
  -8  19   8    3.90    2.14
  -8  19   9    2.72    2.52
  -9  20  -8   -0.10    2.18
  -9  20  -7    6.23    2.50
  -9  20  -6    2.68    2.31
  -9  20  -5    2.30    2.20
  -9  20  -4    2.25    2.22
  -9  20  -3   -3.23    1.92
  -9  20  -2    1.13    2.02
  -9  20  -1    5.17    2.24
  -9  20   0   -1.20    1.89
  -9  20   1    4.79    2.19
  -9  20   1    2.82    1.83
  -9  20   2    6.52    2.15
  -9  20   2    1.31    2.02
  -9  20   3   -1.78    1.79
  -9  20   3    0.99    1.54
  -9  20   4    0.19    1.93
  -9  20   4   -0.28    1.83
  -9  20   5    1.75    2.26
  -9  20   5    1.63    1.84
  -9  20   6    6.07    2.52
  -9  20   6    5.55    2.19
  -9  20   7    7.38    2.31
  -9  20   7    3.60    2.37
  -9  20   8    1.63    2.30
  -9  20   8   -0.10    1.90
 -10  21  -7   -1.56    2.19
 -10  21  -6    0.76    2.29
 -10  21  -5    0.55    2.15
 -10  21  -4   -1.19    1.96
 -10  21  -3    2.09    2.22
 -10  21  -2    2.53    2.23
 -10  21  -1    4.53    2.23
 -10  21   0    1.51    2.02
 -10  21   1   -2.15    2.32
 -10  21   2    2.01    2.05
 -10  21   3   -3.61    2.16
 -10  21   3   -1.07    1.83
 -10  21   4    1.29    1.70
 -10  21   4    1.45    2.01
 -10  21   5   -1.24    1.75
 -10  21   5   -0.61    1.88
 -10  21   6    1.55    2.02
 -10  21   6    1.82    2.28
 -10  21   7   -0.31    2.28
 -10  21   7    3.86    2.42
 -11  22  -5   -2.44    2.05
 -11  22  -4    2.55    2.22
 -11  22  -3    1.57    2.21
 -11  22  -2    2.51    2.56
 -11  22  -1    2.41    2.17
 -11  22   0    1.98    2.14
 -11  22   1    1.53    2.10
 -11  22   2    1.85    2.46
 -11  22   3    0.07    1.99
 -11  22   4    3.24    2.52
 -11  22   4   -0.32    2.06
 -11  22   5   -1.33    2.09
 -11  22   5   -2.99    1.70
 -12  23  -2   -1.97    2.04
 -12  23  -1   -0.03    2.15
 -12  23   0   -0.51    2.04
 -12  23   1   -1.31    1.99
 -12  23   2    2.02    2.26
  23 -11  -3    1.14    2.45
  23 -11  -2    2.54    2.16
 -23  11   2    2.70    1.99
  23 -11  -1   -2.69    2.06
 -23  11   1    0.55    2.11
 -23  11   0    2.32    1.88
 -23  11  -1    1.32    2.05
 -23  11  -1    1.18    2.26
 -23  11  -2   -0.67    2.15
 -23  11  -2    2.19    2.04
  22 -10  -5    0.11    2.00
 -22  10   5   -1.19    1.78
  22 -10  -4   -0.72    1.92
 -22  10   4    1.03    1.94
  22 -10  -3    4.98    2.55
 -22  10   3    4.08    2.30
  22 -10  -2    3.89    2.44
 -22  10   2   -1.98    1.66
  22 -10  -1   -1.93    1.70
 -22  10   1    0.74    1.79
  22 -10   0    0.20    1.56
 -22  10   0    5.92    2.25
 -22  10   0    1.83    1.66
 -22  10  -1    1.30    1.62
 -22  10  -1    0.36    2.08
 -22  10  -2    0.76    1.81
 -22  10  -2    0.76    1.87
 -22  10  -3    0.59    2.27
 -22  10  -4    0.84    2.03
 -22  10  -5    2.74    2.46
  21  -9  -7   -0.49    2.16
  21  -9  -6   -0.03    2.09
 -21   9   6    1.50    1.91
  21  -9  -5    0.64    2.04
 -21   9   5    1.60    2.22
  21  -9  -4    1.66    1.97
 -21   9   4    4.11    2.01
  21  -9  -3    1.63    2.33
 -21   9   3    1.13    1.78
  21  -9  -2    1.37    2.00
 -21   9   2    1.30    1.71
 -21   9   2   -1.10    1.98
  21  -9  -1    0.05    2.12
 -21   9   1    2.08    1.74
 -21   9   1    1.43    1.36
  21  -9   0    3.27    2.30
 -21   9   0    0.31    2.03
 -21   9   0    1.49    1.91
  21  -9   1    0.11    1.24
 -21   9  -1    2.21    2.19
 -21   9  -1    2.62    1.93
  21  -9   2    0.00    1.98
 -21   9  -2   -1.86    1.72
 -21   9  -2   -0.76    1.41
 -21   9  -3    2.74    2.31
 -21   9  -4    2.74    2.07
 -21   9  -5    4.00    2.21
 -21   9  -6    0.21    2.08
 -21   9  -7   -1.37    2.32
  20  -8  -8   -1.52    2.57
  20  -8  -7   -0.21    2.60
  20  -8  -6    1.41    2.15
  20  -8  -5    1.13    2.03
 -20   8   5    3.55    2.25
  20  -8  -4   -1.50    1.70
 -20   8   4    1.88    2.10
  20  -8  -3    7.07    2.47
 -20   8   3    1.84    1.77
  20  -8  -2   -0.14    2.18
 -20   8   2    1.70    1.65
 -20   8   2    3.67    2.11
  20  -8  -1    3.72    2.35
 -20   8   1    4.07    1.98
 -20   8   1    4.67    1.79
  20  -8   0    5.77    2.05
 -20   8   0    7.10    2.30
 -20   8   0    7.04    1.89
  20  -8   1    3.86    2.05
 -20   8  -1    1.81    1.84
 -20   8  -1    2.81    1.56
  20  -8   2    0.00    2.01
 -20   8  -2    3.63    2.29
 -20   8  -2    2.60    1.71
  20  -8   3    3.56    2.00
 -20   8  -3    2.04    1.91
 -20   8  -4   -1.62    1.81
 -20   8  -5    2.60    2.10
 -20   8  -6    0.37    2.05
 -20   8  -7    2.26    2.49
 -20   8  -8    4.52    2.55
  19  -7  -9   -2.87    2.38
  19  -7  -8    0.25    2.14
  19  -7  -7    1.92    2.21
  19  -7  -6    1.15    2.17
  19  -7  -5    1.47    2.35
 -19   7   5    1.82    1.84
  19  -7  -4    3.33    2.30
 -19   7   4    0.23    1.68
  19  -7  -3    6.49    2.34
 -19   7   3    1.57    1.68
  19  -7  -2   -0.44    1.79
 -19   7   2    0.21    0.56
 -19   7   2    5.00    1.74
  19  -7  -1    6.37    2.35
 -19   7   1    4.36    1.87
 -19   7   1    4.79    1.75
  19  -7   0    0.95    1.80
 -19   7   0    0.19    1.41
 -19   7   0    1.29    2.00
  19  -7   1    7.44    2.36
 -19   7  -1    5.69    1.98
 -19   7  -1    5.37    1.77
  19  -7   2   -0.01    0.54
 -19   7  -2   -0.26    1.74
 -19   7  -2    0.03    1.51
  19  -7   3    2.23    1.94
 -19   7  -3    3.22    2.22
 -19   7  -3    1.64    1.53
  19  -7   4    3.58    2.04
 -19   7  -4    0.04    1.84
 -19   7  -5    1.82    1.98
 -19   7  -6    2.82    2.40
 -19   7  -7   -1.51    1.84
 -19   7  -8   -1.91    1.90
 -19   7  -9   -0.06    2.36
  18  -6 -10    1.34    2.25
  18  -6  -9    1.36    2.19
  18  -6  -8   -0.33    2.11
  18  -6  -7    3.18    2.16
  18  -6  -6    4.02    2.19
  18  -6  -5    2.54    2.02
  18  -6  -4    3.55    1.98
 -18   6   4   10.39    2.11
  18  -6  -3    5.61    2.03
 -18   6   3    2.86    1.66
  18  -6  -2    1.63    1.87
 -18   6   2    0.79    1.48
 -18   6   2   -1.87    1.49
  18  -6  -1    5.28    2.03
 -18   6   1    6.11    2.17
 -18   6   1    4.18    1.59
  18  -6   0    3.68    2.11
 -18   6   0    1.89    1.99
 -18   6   0    0.29    1.61
  18  -6   1    5.42    1.95
 -18   6  -1    5.83    1.93
 -18   6  -1    6.81    1.83
  18  -6   2   -1.87    1.84
 -18   6  -2    1.34    1.47
 -18   6  -2    0.00    1.93
  18  -6   3    2.18    1.54
 -18   6  -3    1.02    2.09
 -18   6  -3    1.95    1.55
  18  -6   4    7.60    2.23
 -18   6  -4    7.75    2.41
  18  -6   5   -0.51    1.79
 -18   6  -5    2.06    2.37
 -18   6  -6    2.99    2.03
 -18   6  -7    6.85    2.28
 -18   6  -8    1.59    1.93
 -18   6  -9   -1.67    1.88
 -18   6 -10    0.20    2.05
  17  -5 -11    2.12    2.29
  17  -5 -10   -1.44    1.98
  17  -5  -9    4.16    2.56
  17  -5  -8    0.37    1.99
  17  -5  -7    0.15    2.01
  17  -5  -6    0.17    2.00
  17  -5  -5    1.77    1.95
  17  -5  -4   -3.10    1.93
  17  -5  -3   20.10    2.93
 -17   5   3   15.15    2.39
  17  -5  -2    4.45    2.28
 -17   5   2    1.30    1.77
 -17   5   2   -0.25    1.59
  17  -5  -1    8.56    2.45
 -17   5   1    8.84    1.99
 -17   5   1   13.43    2.52
  17  -5   0    5.90    1.96
 -17   5   0    4.67    1.52
 -17   5   0    7.50    2.22
  17  -5   1    7.60    2.14
 -17   5  -1   10.32    2.38
 -17   5  -1    6.89    1.70
  17  -5   2    1.14    1.97
 -17   5  -2    1.81    1.43
 -17   5  -2    2.61    1.79
  17  -5   3    8.22    2.01
 -17   5  -3   12.76    2.29
 -17   5  -3   15.38    1.93
  17  -5   4   -0.34    1.70
 -17   5  -4    0.60    2.08
  17  -5   5    3.51    1.91
 -17   5  -5    1.38    2.29
  17  -5   6    0.39    1.71
 -17   5  -6    1.58    1.93
 -17   5  -7    4.12    2.10
 -17   5  -8    5.26    2.14
 -17   5  -9    2.70    2.06
 -17   5 -10    1.08    1.98
 -17   5 -11    1.11    2.04
  16  -4 -11    3.31    2.44
  16  -4 -10    2.37    2.20
  16  -4  -9   -0.11    2.02
  16  -4  -8    0.91    2.02
  16  -4  -7    1.61    2.12
  16  -4  -6   -0.63    1.84
  16  -4  -5    3.89    2.01
  16  -4  -4   -1.32    1.66
  16  -4  -3   11.55    2.37
 -16   4   3   14.14    2.09
  16  -4  -2    7.05    2.21
 -16   4   2    5.71    1.65
 -16   4   2    9.90    2.38
  16  -4  -1    2.24    2.18
 -16   4   1    1.98    2.13
 -16   4   1    4.66    1.75
  16  -4   0    0.59    2.11
 -16   4   0   -1.07    1.42
 -16   4   0    4.54    2.15
  16  -4   1    5.90    2.29
 -16   4  -1    3.95    2.21
 -16   4  -1    2.35    1.46
  16  -4   2    7.72    2.32
 -16   4  -2   11.06    1.72
 -16   4  -2   13.05    2.51
  16  -4   3    8.68    2.08
 -16   4  -3   10.99    2.22
 -16   4  -3   13.97    1.72
  16  -4   4    1.99    1.14
 -16   4  -4    1.00    1.81
  16  -4   5    2.62    1.82
 -16   4  -5    3.50    2.00
  16  -4   6   -1.23    1.63
 -16   4  -6   -0.57    1.82
  16  -4   7    3.04    1.91
 -16   4  -7    0.82    1.90
 -16   4  -8    2.11    1.94
 -16   4  -9    3.70    2.04
 -16   4 -10    1.99    1.93
 -16   4 -11    0.12    1.96
  15  -3 -12    0.72    2.67
  15  -3 -11    4.51    2.68
  15  -3 -10   -0.87    1.98
  15  -3  -9    2.81    2.10
  15  -3  -8   -0.06    2.27
  15  -3  -7    0.39    1.90
  15  -3  -6   11.47    2.43
  15  -3  -5    6.65    2.09
  15  -3  -4   21.68    2.75
  15  -3  -3    5.44    2.10
  15  -3  -2    2.37    2.36
 -15   3   2    4.30    2.07
 -15   3   2    4.58    1.54
  15  -3  -1    3.17    1.93
 -15   3   1    2.22    1.31
 -15   3   1    5.16    2.18
  15  -3   0    3.21    1.86
 -15   3   0    2.38    1.76
 -15   3   0    1.13    1.23
  15  -3   1    3.83    2.18
 -15   3  -1    2.24    1.37
 -15   3  -1    1.96    1.78
  15  -3   2    0.51    1.95
 -15   3  -2    0.64    1.76
 -15   3  -2    4.23    1.37
  15  -3   3    7.46    2.03
 -15   3  -3    4.03    1.37
 -15   3  -3    1.72    1.78
  15  -3   4   20.32    2.82
 -15   3  -4   23.19    2.77
 -15   3  -5    8.67    2.43
  15  -3   6    6.77    1.98
 -15   3  -6    8.71    2.18
  15  -3   7    2.26    1.75
 -15   3  -7    0.38    1.77
  15  -3   8    0.77    1.64
 -15   3  -8    3.33    2.25
 -15   3  -9    1.09    1.91
 -15   3 -10    2.33    2.03
 -15   3 -11    0.47    2.27
 -15   3 -12   -0.35    2.36
  14  -2 -12    0.40    2.23
  14  -2 -11    4.24    2.38
  14  -2 -10    0.43    2.36
  14  -2  -9    0.74    2.31
  14  -2  -8   -0.47    1.82
  14  -2  -7   17.44    2.96
  14  -2  -6    4.11    2.01
  14  -2  -5    2.68    2.26
  14  -2  -4    3.66    2.03
  14  -2  -3    1.11    1.89
  14  -2  -2    1.30    1.87
 -14   2   2   -0.27    1.66
  14  -2  -1   18.75    2.55
 -14   2   1   21.97    2.51
  14  -2   0    3.79    1.86
 -14   2   0    0.24    1.24
 -14   2   0    4.32    2.01
  14  -2   1   24.56    3.01
 -14   2  -1   21.48    2.04
 -14   2  -1   18.29    2.41
  14  -2   2   -1.71    1.88
 -14   2  -2   -0.19    1.18
 -14   2  -2   -4.43    1.85
  14  -2   3    2.61    2.04
 -14   2  -3    0.84    1.06
 -14   2  -3    1.35    1.78
  14  -2   4    3.72    1.83
 -14   2  -4    2.43    1.86
  14  -2   5    2.23    1.88
 -14   2  -5    2.04    2.26
  14  -2   6    2.57    1.38
 -14   2  -6    2.29    1.92
  14  -2   7    9.70    1.77
 -14   2  -7   19.35    2.80
  14  -2   8   -1.18    1.52
 -14   2  -8    0.36    1.78
  14  -2   9    0.42    1.76
 -14   2  -9    0.40    2.08
  14  -2  10    2.21    1.98
 -14   2 -10    5.68    2.41
 -14   2 -11    1.42    1.98
 -14   2 -12   -0.56    1.93
  13  -1 -13    3.82    2.40
  13  -1 -12    4.77    2.39
  13  -1 -11    0.39    1.97
  13  -1 -10    4.24    2.14
  13  -1  -9   -1.56    2.22
  13  -1  -8    1.01    1.97
  13  -1  -7   16.06    2.65
  13  -1  -6    2.04    1.98
  13  -1  -5    5.32    2.03
  13  -1  -4    7.85    2.13
  13  -1  -3    0.26    1.75
  13  -1  -2    2.16    2.23
  13  -1  -1   27.97    2.80
 -13   1   1   32.52    3.02
  13  -1   0   49.69    3.54
 -13   1   0   53.59    3.46
  13  -1   1   34.25    3.23
 -13   1  -1   30.73    2.85
  13  -1   2    7.49    2.14
 -13   1  -2    4.80    2.08
 -13   1  -2    5.32    1.22
  13  -1   3   -0.34    1.85
 -13   1  -3    2.97    1.78
 -13   1  -3    2.95    1.06
  13  -1   4    8.03    2.22
 -13   1  -4    7.77    2.03
  13  -1   5    8.07    1.98
 -13   1  -5    7.80    2.11
  13  -1   6    2.17    1.86
 -13   1  -6    1.47    1.85
  13  -1   7   13.50    2.24
 -13   1  -7   16.16    2.45
 -13   1  -8    5.30    2.01
  13  -1   9    0.30    1.33
 -13   1  -9   -0.21    2.05
  13  -1  10    1.40    1.78
 -13   1 -10   -0.51    1.77
  13  -1  11    2.52    1.89
 -13   1 -11   -1.68    1.74
 -13   1 -12   -0.21    2.30
 -13   1 -13   -1.58    1.95
  12   0 -13   -0.15    2.10
  12   0 -12   -0.09    2.04
  12   0 -11    3.33    2.16
  12   0 -10    0.96    2.30
  12   0  -9   -2.30    1.80
  12   0  -8    3.18    2.03
  12   0  -7    5.88    2.12
  12   0  -6   34.53    3.31
  12   0  -5   -1.42    1.63
  12   0  -4   -0.36    1.73
  12   0  -3    3.49    1.96
  12   0  -2   -1.14    1.61
  12   0  -1    3.22    1.78
 -12   0   1    1.12    1.57
  12   0   0  104.06    5.09
 -12   0   0  101.30    4.91
  12   0   1    2.03    1.64
 -12   0  -1    3.95    1.62
  12   0   2   -1.72    1.45
 -12   0  -2   -0.51    1.60
  12   0   3    3.40    1.77
 -12   0  -3    4.73    1.80
  12   0   4    1.12    1.58
 -12   0  -4    1.16    1.70
  12   0   5   -0.52    1.76
 -12   0  -5   -1.99    1.65
  12   0   6   31.99    3.20
 -12   0  -6   31.95    3.08
  12   0   7    3.80    2.04
 -12   0  -7    6.16    2.04
  12   0   8    1.05    1.76
 -12   0  -8    3.12    1.90
  12   0   9    1.15    1.71
 -12   0  -9   -1.50    1.71
  12   0  10    2.11    1.28
 -12   0 -10    3.05    2.23
  12   0  11    1.18    0.83
 -12   0 -11    1.92    1.99
  12   0  12    0.65    1.74
 -12   0 -12    3.14    2.35
 -12   0 -13   -3.36    1.78
  11   1 -13    1.85    2.48
  11   1 -12    3.74    2.20
  11   1 -11    7.94    2.70
  11   1 -10    1.89    2.06
  11   1  -9   -1.39    2.11
  11   1  -8    8.66    2.25
  11   1  -7    5.57    2.40
  11   1  -6    5.71    2.06
  11   1  -5    6.84    2.27
  11   1  -4    8.64    2.05
  11   1  -3   44.82    3.38
  11   1  -2    5.32    1.79
  11   1  -1    9.16    1.93
 -11  -1   1    6.41    2.03
  11   1   0   53.05    3.50
 -11  -1   0   56.61    3.38
  11   1   1   11.22    2.27
 -11  -1  -1    9.65    1.83
  11   1   2    3.82    1.73
 -11  -1  -2    4.48    1.68
  11   1   3   42.19    3.16
 -11  -1  -3   40.26    3.05
  11   1   4    8.42    1.96
 -11  -1  -4    8.14    1.95
  11   1   5    7.63    1.94
 -11  -1  -5    9.26    2.09
  11   1   6    0.88    1.58
 -11  -1  -6   -1.00    1.72
  11   1   7    3.90    2.07
 -11  -1  -7    1.88    1.82
  11   1   8    3.19    1.89
 -11  -1  -8    5.83    2.28
  11   1   9    3.85    1.93
 -11  -1  -9    4.90    2.24
  11   1  10    3.17    1.63
 -11  -1 -10    2.24    1.86
  11   1  11    7.13    2.02
 -11  -1 -11    5.49    2.06
  11   1  12    2.38    2.07
 -11  -1 -12    3.72    2.00
  11   1  13    1.39    1.25
 -11  -1 -13   -1.11    2.15
  10   2 -13    1.96    2.17
  10   2 -12    1.31    2.00
  10   2 -11    8.57    2.63
  10   2 -10    9.07    2.33
  10   2  -9    4.04    2.06
  10   2  -8    0.64    1.86
  10   2  -7    1.55    1.95
  10   2  -6    0.20    1.68
  10   2  -5   14.61    2.54
  10   2  -4   13.07    2.22
  10   2  -3   43.48    3.25
  10   2  -2    2.29    1.62
  10   2  -1    2.36    1.63
  10   2   0    0.98    1.54
 -10  -2   0    0.26    1.37
  10   2   1    0.50    1.41
 -10  -2  -1   -1.03    1.37
  10   2   2    7.58    1.81
 -10  -2  -2    7.12    1.68
  10   2   3   38.69    3.03
 -10  -2  -3   40.46    2.96
  10   2   4    8.94    1.95
 -10  -2  -4   12.40    1.99
  10   2   5   14.56    2.23
 -10  -2  -5   13.71    2.21
  10   2   6   -1.10    1.76
 -10  -2  -6    1.35    1.71
  10   2   7    4.10    2.05
 -10  -2  -7    0.32    1.81
  10   2   8    3.17    1.96
 -10  -2  -8    0.76    1.80
  10   2   9    0.93    1.55
 -10  -2  -9    0.03    1.99
  10   2  10   10.00    2.15
 -10  -2 -10    5.13    1.98
  10   2  11   12.47    2.65
 -10  -2 -11    9.24    2.24
  10   2  12    1.31    1.96
 -10  -2 -12   -0.07    1.79
  10   2  13    5.34    2.19
 -10  -2 -13   -1.32    1.77
   9   3 -14    2.64    2.25
   9   3 -13    6.20    2.57
   9   3 -12    3.68    2.41
   9   3 -11   -0.36    1.85
   9   3 -10   18.67    2.74
   9   3  -9    0.44    2.17
   9   3  -8    2.00    1.87
   9   3  -7   21.43    2.65
   9   3  -6   19.93    2.55
   9   3  -5   19.17    2.48
   9   3  -4   69.24    4.04
   9   3  -3   14.27    2.15
   9   3  -2   11.47    1.97
   9   3  -1   23.85    2.42
   9   3   0    1.57    1.45
  -9  -3   0   -1.29    1.22
   9   3   1   21.68    2.36
  -9  -3  -1   23.02    2.28
   9   3   2   10.34    1.90
  -9  -3  -2   11.31    1.99
   9   3   3   20.37    2.26
  -9  -3  -3   14.14    2.02
   9   3   4   68.72    4.10
  -9  -3  -4   65.94    3.75
   9   3   5   20.48    2.48
  -9  -3  -5   14.79    2.16
   9   3   6   20.04    2.52
  -9  -3  -6   17.91    2.37
   9   3   7   18.88    2.54
  -9  -3  -7   24.09    2.60
   9   3   8    1.61    1.93
  -9  -3  -8    2.60    1.83
   9   3   9    3.54    2.04
  -9  -3  -9    5.22    1.95
   9   3  10   19.16    2.84
  -9  -3 -10   17.01    2.69
   9   3  11   -0.07    1.92
  -9  -3 -11    2.99    2.13
   9   3  12    1.38    2.08
  -9  -3 -12    1.36    1.86
   9   3  13    3.08    2.19
  -9  -3 -13    3.30    2.00
   9   3  14    0.79    1.71
  -9  -3 -14    0.22    1.88
   8   4 -14   -0.61    2.41
   8   4 -13    5.02    2.24
   8   4 -12    1.07    2.01
   8   4 -11    0.06    2.18
   8   4 -10   10.14    2.24
   8   4  -9   17.01    2.50
   8   4  -8    1.93    1.87
   8   4  -7   42.76    3.29
   8   4  -6   10.49    2.14
   8   4  -5   15.78    2.34
   8   4  -4   26.44    2.79
   8   4  -3   26.24    2.53
   8   4  -2   42.09    2.97
   8   4  -1   61.70    3.73
   8   4   0    0.55    1.37
   8   4   1   61.11    3.50
  -8  -4  -1   62.30    3.40
   8   4   2   41.33    2.94
  -8  -4  -2   42.05    3.01
   8   4   3   23.04    1.11
   8   4   3   28.58    2.60
  -8  -4  -3   22.08    2.35
   8   4   4   32.83    2.81
  -8  -4  -4   24.61    2.46
   8   4   5   11.56    2.21
  -8  -4  -5   10.58    1.96
   8   4   6    9.80    2.05
  -8  -4  -6    7.72    1.87
   8   4   7   35.77    3.30
  -8  -4  -7   42.60    3.43
   8   4   8    3.72    1.88
  -8  -4  -8    4.00    1.81
   8   4   9   23.57    3.01
  -8  -4  -9   13.95    2.59
   8   4  10    9.74    2.24
  -8  -4 -10   10.55    2.41
   8   4  11    7.08    2.25
  -8  -4 -11    1.61    2.09
   8   4  12    5.48    2.06
  -8  -4 -12    0.69    1.76
   8   4  13    5.68    2.06
  -8  -4 -13    4.02    2.25
   8   4  14    1.98    1.86
  -8  -4 -14    0.21    2.17
   7   5 -14    1.67    2.44
   7   5 -13    5.20    2.46
   7   5 -12   10.15    2.61
   7   5 -11    8.23    2.16
   7   5 -10    5.65    2.27
   7   5  -9   15.64    2.62
   7   5  -8   10.89    2.36
   7   5  -7   17.09    2.38
   7   5  -5   18.69    2.35
   7   5  -4    6.55    1.76
   7   5  -3   62.26    3.53
   7   5  -2   -0.44    1.31
   7   5  -1   85.74    4.19
   7   5   0   56.79    3.30
   7   5   1   87.81    4.19
   7   5   1   81.99    3.36
  -7  -5  -1   81.91    4.00
   7   5   2    0.56    0.66
   7   5   2   -1.31    1.21
  -7  -5  -2    0.58    1.30
   7   5   3   60.00    3.47
   7   5   3   55.69    2.23
  -7  -5  -3   64.53    3.33
   7   5   4    9.85    2.04
  -7  -5  -4    6.80    1.85
   7   5   5   17.30    2.28
  -7  -5  -5   18.60    2.20
   7   5   6   10.61    2.07
  -7  -5  -6   13.23    2.26
   7   5   7   17.91    2.48
  -7  -5  -7   15.73    2.22
   7   5   8   11.34    2.42
  -7  -5  -8    7.91    1.97
   7   5   9   12.31    2.55
  -7  -5  -9   14.74    2.25
   7   5  10    7.90    2.36
  -7  -5 -10    5.81    1.88
   7   5  11    5.92    2.02
  -7  -5 -11    2.12    2.07
   7   5  12    4.41    2.04
  -7  -5 -12    4.20    1.92
   7   5  13    2.97    2.23
  -7  -5 -13    2.31    1.89
   7   5  14    2.02    2.29
  -7  -5 -14    1.81    2.17
   6   6 -14    1.76    2.27
   6   6 -13    1.77    2.17
   6   6 -12    0.51    1.81
   6   6 -11    1.19    1.77
   6   6 -10    5.82    2.12
   6   6  -9    1.82    1.64
   6   6  -8    5.84    1.94
   6   6  -7   10.06    2.03
   6   6  -6   41.94    3.17
   6   6  -5   23.01    2.41
   6   6  -4   37.98    3.05
   6   6  -3   18.25    2.12
   6   6  -2    6.52    1.61
   6   6  -1   81.16    4.02
   6   6  -1   81.54    3.58
   6   6   0   22.58    2.26
   6   6   0   20.46    1.61
   6   6   1   77.36    3.90
   6   6   1   74.01    3.13
   6   6   2    5.33    1.52
   6   6   2    4.50    0.83
  -6  -6  -2    6.54    1.71
   6   6   3   15.84    1.15
   6   6   3   17.33    2.08
  -6  -6  -3   14.99    1.88
   6   6   4   30.03    2.70
  -6  -6  -4   30.31    2.40
   6   6   5   26.99    2.69
  -6  -6  -5   29.52    2.68
   6   6   6   36.04    3.16
  -6  -6  -6   39.60    3.11
   6   6   7    8.28    2.03
  -6  -6  -7    6.56    1.73
   6   6   8    3.74    1.89
  -6  -6  -8    3.97    1.95
   6   6   9    3.83    1.87
  -6  -6  -9    5.49    2.04
   6   6  10    8.47    2.14
  -6  -6 -10    7.07    2.13
   6   6  11    1.66    1.83
  -6  -6 -11    0.97    1.95
   6   6  12    1.94    1.90
  -6  -6 -12    3.58    2.12
   6   6  13    3.12    2.31
  -6  -6 -13   -0.54    1.99
   6   6  14    6.08    2.57
  -6  -6 -14    2.01    2.22
   5   7 -14    0.65    2.23
   5   7 -14   -1.58    2.08
   5   7 -13    0.92    2.07
   5   7 -13    1.93    2.07
   5   7 -12    5.15    2.15
   5   7 -11    5.61    2.10
   5   7 -10    6.85    2.13
   5   7  -9   13.65    2.21
   5   7  -8    7.99    2.23
   5   7  -7   18.97    2.37
   5   7  -6    9.67    1.94
   5   7  -5   20.86    2.26
   5   7  -4    4.56    1.61
   5   7  -3   64.61    3.53
   5   7  -3   62.48    3.27
   5   7  -2    0.84    0.74
   5   7  -2   -0.49    1.22
   5   7  -1   81.65    3.66
   5   7  -1   84.17    4.06
   5   7   0   57.16    2.79
   5   7   0   58.51    3.29
   5   7   1   81.53    3.98
   5   7   1   79.99    3.35
   5   7   2   -1.68    0.73
   5   7   2   -0.27    1.26
  -5  -7  -2   -0.93    1.40
   5   7   3   58.27    3.35
   5   7   3   53.92    2.47
  -5  -7  -3   59.30    3.14
   5   7   4    7.00    1.74
   5   7   4    6.71    0.59
  -5  -7  -4    5.12    1.49
   5   7   5   18.23    2.48
  -5  -7  -5   15.88    1.95
   5   7   6    9.61    2.02
  -5  -7  -6   10.37    2.04
   5   7   7   17.88    2.54
  -5  -7  -7   20.29    2.42
   5   7   8    9.91    2.15
  -5  -7  -8    7.60    1.79
   5   7   9   16.84    2.54
  -5  -7  -9   13.76    2.27
   5   7  10    5.96    1.99
  -5  -7 -10    5.12    1.72
   5   7  11    7.02    2.15
  -5  -7 -11    6.35    2.09
   5   7  12    7.32    2.47
  -5  -7 -12    5.03    2.15
   5   7  13    7.79    2.60
  -5  -7 -13    1.05    2.08
   5   7  14    4.84    2.54
  -5  -7 -14    0.75    2.09
   4   8 -14   -1.32    2.54
   4   8 -13    5.27    2.38
   4   8 -13    5.20    2.14
   4   8 -12    1.54    2.08
   4   8 -12    0.00    1.85
   4   8 -11    3.52    2.12
   4   8 -11    1.81    1.86
   4   8 -10    9.81    2.20
   4   8 -10    6.29    2.13
   4   8  -9   15.97    2.61
   4   8  -9   21.35    2.50
   4   8  -8    8.59    2.15
   4   8  -8    3.75    1.94
   4   8  -7   38.00    3.16
   4   8  -7   37.44    3.27
   4   8  -6   10.80    2.03
   4   8  -6    7.74    1.79
   4   8  -5    9.45    2.01
   4   8  -5   12.10    1.98
   4   8  -4   32.92    2.62
   4   8  -4   26.39    2.61
   4   8  -3   27.39    2.41
   4   8  -3   25.72    2.36
   4   8  -2   33.43    2.28
   4   8  -2   40.99    2.85
   4   8  -1   63.25    3.16
   4   8  -1   64.62    3.58
   4   8   0    0.99    1.32
   4   8   0    0.54    0.99
   4   8   1   57.68    2.72
   4   8   1   60.26    3.33
   4   8   2   37.19    2.09
   4   8   2   33.07    2.59
   4   8   3   20.34    2.22
   4   8   3   20.84    1.62
  -4  -8  -3   26.65    2.35
   4   8   4   26.07    2.67
   4   8   4   22.05    1.48
  -4  -8  -4   27.95    2.40
   4   8   5    9.32    1.91
  -4  -8  -5    8.88    1.63
   4   8   6    8.52    1.99
  -4  -8  -6    8.39    1.88
   4   8   7   38.15    3.36
  -4  -8  -7   37.10    2.77
   4   8   8    6.44    2.04
  -4  -8  -8    6.40    1.95
   4   8   9   12.62    2.41
  -4  -8  -9   21.55    2.42
   4   8  10   10.52    2.49
  -4  -8 -10    9.05    2.07
   4   8  11    3.02    1.92
  -4  -8 -11    3.62    1.91
   4   8  12    0.66    1.80
  -4  -8 -12   -2.35    1.70
   4   8  13    5.74    2.48
  -4  -8 -13    6.79    2.19
   4   8  14    1.98    2.04
   3   9 -14    1.36    2.26
   3   9 -13    4.50    2.37
   3   9 -12    2.86    1.97
   3   9 -12    5.12    2.28
   3   9 -11   -0.40    1.84
   3   9 -11    0.64    1.95
   3   9 -10   13.68    2.58
   3   9 -10   21.41    2.66
   3   9  -9    1.75    1.77
   3   9  -9   -0.13    1.83
   3   9  -8    2.67    1.88
   3   9  -8    6.61    1.89
   3   9  -7   26.11    2.64
   3   9  -7   25.16    2.82
   3   9  -6   16.36    2.27
   3   9  -6   14.43    2.25
   3   9  -5   20.82    2.38
   3   9  -5   17.87    2.22
   3   9  -4   73.13    3.78
   3   9  -4   75.79    4.10
   3   9  -3   15.40    1.88
   3   9  -3   16.16    1.93
   3   9  -2   11.60    1.61
   3   9  -2   10.38    1.71
   3   9  -1   26.21    2.22
   3   9  -1   14.37    1.59
   3   9   0    1.53    1.30
   3   9   0    0.60    1.08
   3   9   1   20.98    2.11
   3   9   1   21.53    1.84
   3   9   2   11.55    1.79
   3   9   2   11.23    1.46
   3   9   3   16.53    1.63
   3   9   3   15.12    2.08
   3   9   4   65.01    2.96
   3   9   4   63.07    3.77
  -3  -9  -4   73.52    3.64
   3   9   5   10.07    2.03
   3   9   5   16.48    1.20
  -3  -9  -5   20.06    1.97
   3   9   6   18.43    2.40
  -3  -9  -6   12.65    1.95
   3   9   7   21.18    2.61
  -3  -9  -7   23.44    2.37
   3   9   8    5.93    1.96
  -3  -9  -8    2.61    1.72
   3   9   9    1.51    1.96
  -3  -9  -9    0.38    1.55
   3   9  10   16.73    2.61
  -3  -9 -10   16.41    2.26
   3   9  11    2.89    1.90
  -3  -9 -11    0.24    1.65
   3   9  12   -1.15    2.14
  -3  -9 -12    3.24    1.86
   3   9  13    3.47    2.12
   3   9  14    0.98    2.34
   2  10 -13    0.66    2.21
   2  10 -12    0.14    2.02
   2  10 -11    7.15    2.35
   2  10 -10   10.84    2.03
   2  10 -10    5.16    2.20
   2  10  -9    1.99    1.88
   2  10  -9    2.09    1.67
   2  10  -8    6.27    2.08
   2  10  -8    2.71    1.69
   2  10  -7    1.70    1.80
   2  10  -7    1.90    1.74
   2  10  -6    2.46    1.70
   2  10  -6   -0.19    1.67
   2  10  -5   29.05    2.74
   2  10  -5   17.22    2.25
   2  10  -4   14.36    1.84
   2  10  -4   13.03    1.99
   2  10  -3   40.66    2.96
   2  10  -3   34.27    2.53
   2  10  -2    4.83    1.60
   2  10  -2    4.94    1.41
   2  10  -1    1.41    0.84
   2  10  -1    1.16    1.46
   2  10   0    1.05    1.03
   2  10   0    0.39    1.25
   2  10   1    1.66    1.22
   2  10   1    1.94    1.35
   2  10   2    4.54    1.41
   2  10   2    6.24    1.57
   2  10   3   37.53    2.45
   2  10   3   34.96    2.75
   2  10   4   11.82    1.49
   2  10   4   10.45    1.92
   2  10   5   14.24    1.36
   2  10   5   18.30    2.33
  -2 -10  -5   15.28    1.80
   2  10   6   -1.79    1.48
  -2 -10  -6   -0.52    1.18
   2  10   7    3.27    1.85
  -2 -10  -7    1.84    1.50
   2  10   8    2.56    1.75
  -2 -10  -8    3.09    1.56
   2  10   9    2.19    1.79
  -2 -10  -9    1.87    1.55
   2  10  10    6.72    2.04
  -2 -10 -10    8.58    1.86
   2  10  11    9.47    2.32
   2  10  12    1.48    1.93
   2  10  13    2.46    2.35
   1  11 -13    0.15    2.22
   1  11 -12    5.13    2.30
   1  11 -11    6.34    2.34
   1  11 -10    2.36    2.08
   1  11  -9   -0.68    1.84
   1  11  -9    1.67    1.63
   1  11  -8    6.54    2.15
   1  11  -8    6.16    1.78
   1  11  -7    3.16    1.92
   1  11  -7    1.30    1.62
   1  11  -6    1.24    1.83
   1  11  -6    1.99    1.61
   1  11  -5    7.75    1.76
   1  11  -5    8.96    1.97
   1  11  -4    9.82    1.91
   1  11  -4    9.35    1.77
   1  11  -3   39.24    2.60
   1  11  -3   37.56    2.83
   1  11  -2    4.59    1.37
   1  11  -2    2.13    1.42
   1  11  -1    6.38    1.70
   1  11  -1    6.61    1.49
   1  11   0   44.71    2.79
   1  11   0   41.49    2.49
   1  11   1    8.42    1.67
   1  11   1    7.62    1.55
   1  11   2    5.02    1.57
   1  11   2    3.16    1.41
   1  11   3   36.81    2.76
   1  11   3   39.82    2.87
   1  11   4    8.51    1.85
   1  11   4    9.00    1.63
   1  11   5    9.12    1.93
   1  11   5    5.21    1.20
   1  11   6    3.60    1.78
  -1 -11  -6    3.05    1.49
   1  11   7    1.61    1.68
  -1 -11  -7   -0.23    1.38
   1  11   8    5.46    1.90
  -1 -11  -8    6.16    1.64
   1  11   9    2.14    1.86
  -1 -11  -9    0.27    1.51
   1  11  10    1.77    1.86
   1  11  11    7.36    2.24
   1  11  12    0.42    1.89
   1  11  13   -0.11    1.86
   0  12 -13   -3.21    2.09
   0  12 -12    1.78    2.16
   0  12 -11    2.07    2.14
   0  12 -10   -0.31    2.00
   0  12  -9   -0.34    1.85
   0  12  -8    3.98    1.68
   0  12  -8   -0.49    1.82
   0  12  -7    5.06    2.06
   0  12  -7    4.71    1.62
   0  12  -6   33.19    3.21
   0  12  -6   33.17    2.73
   0  12  -5    0.87    1.61
   0  12  -5    0.99    1.72
   0  12  -4    2.37    1.66
   0  12  -4    0.87    1.42
   0  12  -3    6.64    1.75
   0  12  -3    4.86    1.61
   0  12  -2    0.45    1.68
   0  12  -2    1.24    1.45
   0  12  -1    2.08    1.32
   0  12  -1    1.88    1.37
   0  12   0   96.75    4.61
   0  12   1    1.62    1.56
   0  12   1    3.49    1.50
   0  12   2   -1.15    1.27
   0  12   2    0.33    1.41
   0  12   3    2.27    1.52
   0  12   3    3.51    1.60
   0  12   4    1.34    1.57
   0  12   4   -0.69    1.24
   0  12   5    1.22    1.59
   0  12   5    2.14    1.29
   0  12   6   33.07    3.13
   0  12   6   33.09    2.28
   0  12   7    3.08    1.81
   0  12   8   -0.09    1.52
   0 -12  -8    2.07    1.49
   0  12   9   -0.35    1.89
   0  12  10    2.60    2.20
   0  12  11    3.60    2.30
   0  12  12   -0.56    1.82
   0  12  13    0.70    1.96
  -1  13 -13    0.85    2.33
  -1  13 -12    1.00    2.32
  -1  13 -11    1.77    2.20
  -1  13 -10    1.30    2.14
  -1  13  -9    2.68    2.02
  -1  13  -8    5.81    2.22
  -1  13  -7   20.14    2.76
  -1  13  -7   14.36    1.97
  -1  13  -6    1.40    1.54
  -1  13  -6    0.28    1.86
  -1  13  -5    9.72    2.21
  -1  13  -5   11.44    1.81
  -1  13  -4   10.32    1.86
  -1  13  -4   10.92    2.11
  -1  13  -3    3.71    1.72
  -1  13  -3    3.27    1.49
  -1  13  -2    4.39    1.56
  -1  13  -2    7.30    1.79
  -1  13  -1   36.40    2.98
  -1  13  -1   32.51    2.67
  -1  13   0   55.03    3.32
  -1  13   0   39.50    2.83
  -1  13   1   36.14    2.95
  -1  13   2    3.88    1.76
  -1  13   2    6.67    1.70
  -1  13   3    2.56    1.78
  -1  13   3    2.50    1.64
  -1  13   4    9.78    1.95
  -1  13   4   11.21    2.03
  -1  13   5   10.05    2.07
  -1  13   5   12.46    1.97
  -1  13   6    3.84    2.04
  -1  13   6    2.04    1.17
  -1  13   7   17.67    2.50
  -1  13   8    6.86    2.06
  -1  13   9    0.00    1.61
  -1  13  10    1.76    1.84
  -1  13  11    0.63    1.82
  -1  13  12    4.56    2.19
  -1  13  13    2.54    2.19
  -2  14 -12    2.79    2.44
  -2  14 -11    3.35    2.40
  -2  14 -10    1.96    2.15
  -2  14  -9   -2.09    1.91
  -2  14  -8   -2.20    1.76
  -2  14  -7   18.37    2.50
  -2  14  -6   -0.01    1.85
  -2  14  -6   -0.76    1.29
  -2  14  -5    3.03    1.51
  -2  14  -5    1.86    1.93
  -2  14  -4    2.96    1.57
  -2  14  -4    2.37    1.89
  -2  14  -3   -0.57    1.33
  -2  14  -3    1.85    1.73
  -2  14  -2   -0.22    1.43
  -2  14  -2    0.91    1.62
  -2  14  -1   23.64    2.51
  -2  14  -1   25.09    2.41
  -2  14   0    2.27    1.38
  -2  14   0    1.60    1.59
  -2  14   1   21.71    2.43
  -2  14   1   16.87    2.12
  -2  14   2    0.07    1.40
  -2  14   2    3.57    1.37
  -2  14   3   -0.12    1.73
  -2  14   3   -0.41    1.74
  -2  14   4    6.12    1.90
  -2  14   4    4.22    1.76
  -2  14   5    4.16    1.78
  -2  14   5    2.39    1.61
  -2  14   6    2.44    1.37
  -2  14   6    1.12    1.64
  -2  14   7   19.04    2.64
  -2  14   8    0.23    1.59
  -2  14   9    1.17    1.78
  -2  14  10    2.70    1.95
  -2  14  11    2.90    2.30
  -2  14  12    3.16    2.30
  -3  15 -12   -1.12    2.27
  -3  15 -11   -0.92    2.19
  -3  15 -10    0.12    2.20
  -3  15  -9   -0.63    2.06
  -3  15  -8   -0.12    1.96
  -3  15  -7    4.14    2.22
  -3  15  -6   12.13    2.49
  -3  15  -5    9.41    1.63
  -3  15  -5    8.58    2.24
  -3  15  -4   17.09    2.55
  -3  15  -4   19.95    2.03
  -3  15  -3    3.94    1.50
  -3  15  -3    6.58    2.00
  -3  15  -2    4.08    1.54
  -3  15  -2    1.38    1.75
  -3  15  -1    3.14    1.56
  -3  15  -1    5.91    1.90
  -3  15   0    4.31    2.15
  -3  15   0    6.99    1.87
  -3  15   1    2.04    1.66
  -3  15   1    3.98    2.08
  -3  15   2    2.81    1.55
  -3  15   2    4.64    2.05
  -3  15   3    4.89    1.96
  -3  15   3    2.77    1.66
  -3  15   4   23.32    2.78
  -3  15   4   24.31    2.88
  -3  15   5    9.32    1.99
  -3  15   5   10.78    2.15
  -3  15   6   10.18    1.94
  -3  15   6    8.79    2.34
  -3  15   7    1.19    1.39
  -3  15   7    0.17    1.61
  -3  15   8   -0.56    1.65
  -3  15   9   -0.93    1.69
  -3  15  10    1.73    1.93
  -3  15  11   -1.20    1.76
  -3  15  12    1.36    2.00
  -4  16 -11    5.98    2.63
  -4  16 -10   -1.02    2.20
  -4  16  -9    4.46    2.44
  -4  16  -8   -2.57    1.94
  -4  16  -7    3.98    2.22
  -4  16  -6    0.22    1.84
  -4  16  -5    3.89    2.02
  -4  16  -4    0.56    1.79
  -4  16  -3   16.20    2.43
  -4  16  -3   15.78    1.96
  -4  16  -2    2.05    1.87
  -4  16  -2    6.02    1.64
  -4  16  -1   -0.47    1.44
  -4  16  -1    3.40    1.89
  -4  16   0    2.69    1.42
  -4  16   0    3.95    1.95
  -4  16   1    5.08    1.88
  -4  16   1    4.04    2.22
  -4  16   2    4.10    1.65
  -4  16   2   11.64    2.50
  -4  16   3    9.00    1.92
  -4  16   3    4.24    1.96
  -4  16   4   -1.92    1.57
  -4  16   4    0.00    1.51
  -4  16   5    5.01    1.84
  -4  16   5    3.55    1.88
  -4  16   6    1.13    1.63
  -4  16   6    2.79    1.74
  -4  16   7    6.90    1.99
  -4  16   7    2.01    1.79
  -4  16   8    3.25    1.92
  -4  16   9    3.56    2.32
  -4  16  10    2.99    2.04
  -4  16  11    3.77    2.12
  -5  17 -11   -1.42    2.32
  -5  17 -10    1.66    2.34
  -5  17  -9    3.98    2.36
  -5  17  -8    5.69    2.26
  -5  17  -7    5.00    2.29
  -5  17  -6   -0.17    1.96
  -5  17  -5    1.96    2.02
  -5  17  -4   -0.04    1.76
  -5  17  -3    7.78    2.13
  -5  17  -2    3.44    1.89
  -5  17  -2    0.08    1.45
  -5  17  -1   11.17    2.31
  -5  17  -1    8.76    1.76
  -5  17   0    7.57    2.40
  -5  17   0    6.04    1.75
  -5  17   1    7.04    2.09
  -5  17   1    7.99    1.93
  -5  17   2    0.07    1.62
  -5  17   2   -1.40    2.00
  -5  17   3   15.24    2.71
  -5  17   3   17.78    2.53
  -5  17   4   -0.57    1.50
  -5  17   4   -1.27    1.59
  -5  17   5   -0.70    1.82
  -5  17   5    1.21    1.61
  -5  17   6   -0.04    1.60
  -5  17   6    0.20    1.50
  -5  17   7    3.71    1.90
  -5  17   7    1.68    1.84
  -5  17   8    6.46    2.43
  -5  17   9    4.72    2.08
  -5  17  10   -1.66    1.80
  -5  17  11    2.63    2.17
  -6  18 -10    0.06    2.19
  -6  18  -9    0.79    2.20
  -6  18  -8   -2.02    1.99
  -6  18  -7    4.22    2.35
  -6  18  -6   -0.40    1.97
  -6  18  -5    2.46    2.06
  -6  18  -4    7.26    2.22
  -6  18  -3    5.14    2.10
  -6  18  -2    0.68    1.92
  -6  18  -1    5.72    2.15
  -6  18  -1    7.21    1.84
  -6  18   0    4.55    2.31
  -6  18   0    0.00    1.44
  -6  18   1    2.06    2.22
  -6  18   1    5.98    1.83
  -6  18   2    0.14    1.70
  -6  18   2    1.88    1.90
  -6  18   3    5.21    2.37
  -6  18   3    3.38    1.93
  -6  18   4    8.87    2.28
  -6  18   4    8.30    2.48
  -6  18   5    0.12    1.92
  -6  18   5    1.34    2.03
  -6  18   6    7.31    2.39
  -6  18   6    3.98    1.57
  -6  18   7    4.24    2.36
  -6  18   7    5.54    1.91
  -6  18   8   -0.78    2.14
  -6  18   9   -1.38    2.08
  -6  18  10    4.55    2.61
  -7  19  -9    1.61    2.34
  -7  19  -8    2.19    2.23
  -7  19  -7    1.29    2.19
  -7  19  -6   -1.87    1.90
  -7  19  -5    3.04    2.21
  -7  19  -4    0.17    1.96
  -7  19  -3   -0.45    1.91
  -7  19  -2    1.94    2.04
  -7  19  -1    2.89    2.00
  -7  19   0   -0.56    1.83
  -7  19   0    3.56    1.65
  -7  19   1    5.63    1.89
  -7  19   1    5.73    2.09
  -7  19   2    1.83    1.94
  -7  19   2    2.21    1.85
  -7  19   3    2.93    1.84
  -7  19   3   -0.77    2.21
  -7  19   4    2.43    2.23
  -7  19   4    1.60    1.93
  -7  19   5    0.56    1.88
  -7  19   5    0.69    2.03
  -7  19   6   -0.24    1.75
  -7  19   6    2.64    2.23
  -7  19   7    4.61    1.28
  -7  19   7    4.01    2.06
  -7  19   8   -0.01    2.14
  -7  19   9    2.35    2.08
  -8  20  -8    5.62    2.51
  -8  20  -7    1.42    2.23
  -8  20  -6    1.89    2.20
  -8  20  -5   -0.59    2.03
  -8  20  -4    0.70    2.14
  -8  20  -3    5.07    2.26
  -8  20  -2   -2.57    2.23
  -8  20  -1    0.99    2.03
  -8  20   0    1.60    2.09
  -8  20   1    3.64    2.14
  -8  20   1    1.46    1.75
  -8  20   2    4.77    1.93
  -8  20   2    2.91    2.08
  -8  20   3    3.02    1.70
  -8  20   3   -0.75    1.86
  -8  20   4    1.33    1.75
  -8  20   4   -3.60    2.08
  -8  20   5    4.49    2.39
  -8  20   5    2.49    1.89
  -8  20   6   -1.24    1.69
  -8  20   6   -1.71    1.96
  -8  20   7    5.66    2.40
  -8  20   7    4.14    2.13
  -8  20   8    2.27    2.42
  -9  21  -7    2.13    2.39
  -9  21  -6    4.05    2.39
  -9  21  -5    1.25    2.17
  -9  21  -4    1.11    2.22
  -9  21  -3    3.90    2.22
  -9  21  -2   -0.42    2.40
  -9  21  -1    0.12    1.97
  -9  21   0   -1.47    1.88
  -9  21   1    3.44    2.43
  -9  21   2   -0.29    1.76
  -9  21   2    2.05    2.48
  -9  21   3    3.10    2.01
  -9  21   3   -1.81    1.95
  -9  21   4    1.97    2.08
  -9  21   4    3.37    2.09
  -9  21   5   -0.05    1.91
  -9  21   5    3.71    2.01
  -9  21   6   -0.69    2.18
  -9  21   6    1.16    2.36
  -9  21   7    0.97    2.27
  -9  21   7    0.31    2.36
 -10  22  -5   -0.49    2.22
 -10  22  -4    6.56    2.80
 -10  22  -3    3.28    2.26
 -10  22  -2    3.89    2.36
 -10  22  -1    0.78    2.18
 -10  22   0    0.95    2.14
 -10  22   1    0.30    2.01
 -10  22   2    1.87    2.10
 -10  22   3    4.42    2.23
 -10  22   3    5.86    2.28
 -10  22   4    0.06    2.02
 -10  22   4    1.72    2.07
 -10  22   5   -1.14    2.02
 -10  22   5    1.89    2.06
 -11  23  -2    4.09    2.28
 -11  23  -1   -1.78    2.02
 -11  23   0   -2.02    1.93
 -11  23   1    0.03    2.09
 -11  23   2    1.45    2.23
  23 -10  -2    0.57    2.01
 -23  10   2    0.42    1.86
  23 -10  -1    1.66    2.02
 -23  10   1    2.33    2.18
  23 -10   0   -3.31    1.86
 -23  10   0   -0.52    1.97
 -23  10   0   -0.93    1.96
 -23  10  -1    3.58    1.81
 -23  10  -1    1.06    2.25
 -23  10  -2   -2.34    2.15
  22  -9  -5   -2.22    2.35
 -22   9   5    1.29    2.33
  22  -9  -4   10.98    2.87
 -22   9   4    8.30    2.42
  22  -9  -3    4.62    2.26
 -22   9   3    2.10    2.19
  22  -9  -2    0.64    2.00
 -22   9   2    2.43    1.84
  22  -9  -1   -1.10    2.16
 -22   9   1   -0.83    1.89
 -22   9   1   -0.02    0.77
  22  -9   0    1.63    2.15
 -22   9   0    0.05    1.91
 -22   9   0    0.14    2.07
  22  -9   1    0.18    0.82
 -22   9  -1    4.46    2.37
 -22   9  -1    2.08    1.64
 -22   9  -2   -0.89    2.22
 -22   9  -3    1.65    1.99
 -22   9  -4   10.55    2.79
 -22   9  -5   -0.36    2.13
  21  -8  -7   -1.01    2.15
  21  -8  -6   -0.73    2.44
  21  -8  -5    0.67    2.36
 -21   8   5    1.61    1.86
  21  -8  -4    0.71    2.35
 -21   8   4    4.15    1.97
  21  -8  -3    3.08    2.20
 -21   8   3    5.93    2.06
  21  -8  -2   -0.67    2.29
 -21   8   2   -0.45    1.65
 -21   8   2   -1.08    1.34
  21  -8  -1   -0.46    2.15
 -21   8   1    0.03    2.04
 -21   8   1    0.02    1.83
  21  -8   0   -0.62    2.16
 -21   8   0    1.66    1.87
 -21   8   0    0.74    1.58
  21  -8   1    2.27    2.17
 -21   8  -1   -3.05    1.62
 -21   8  -1   -1.20    1.70
  21  -8   2    2.29    1.81
 -21   8  -2   -0.06    2.19
 -21   8  -3    2.81    2.38
 -21   8  -4   -0.10    1.94
 -21   8  -5    0.74    2.07
 -21   8  -6    0.60    2.09
  20  -7  -8   -2.51    2.06
  20  -7  -7   -2.50    1.94
  20  -7  -6   -0.38    2.00
  20  -7  -5   -0.05    1.95
  20  -7  -4    3.54    2.13
 -20   7   4    2.74    1.83
  20  -7  -3    1.88    2.34
 -20   7   3   -0.64    1.89
  20  -7  -2    0.38    1.92
 -20   7   2    0.70    1.71
 -20   7   2    1.00    1.61
  20  -7  -1    3.25    2.27
 -20   7   1   -0.12    1.84
 -20   7   1    0.03    2.02
  20  -7   0    4.50    2.40
 -20   7   0    6.54    1.78
 -20   7   0   10.61    2.49
  20  -7   1   -0.35    2.10
 -20   7  -1   -0.44    1.69
 -20   7  -1    0.34    2.17
  20  -7   2    3.15    1.75
 -20   7  -2    3.82    1.79
 -20   7  -2   -2.33    2.01
  20  -7   3   -0.57    1.96
 -20   7  -3    0.49    1.88
 -20   7  -4    4.02    2.10
 -20   7  -5   -0.97    1.91
 -20   7  -6    0.11    2.04
 -20   7  -7   -0.87    2.46
 -20   7  -8   -1.42    2.40
  19  -6  -9   -0.56    2.69
  19  -6  -8   -0.58    2.17
  19  -6  -7    1.02    2.11
  19  -6  -6    7.16    2.71
  19  -6  -5    6.17    2.23
  19  -6  -4   -1.28    1.80
  19  -6  -3   13.58    2.87
 -19   6   3   15.02    2.57
  19  -6  -2    1.85    1.94
 -19   6   2    1.64    1.57
 -19   6   2    0.86    2.00
  19  -6  -1    1.28    2.17
 -19   6   1    4.05    2.16
 -19   6   1    0.90    1.50
  19  -6   0    4.86    2.31
 -19   6   0    6.34    1.87
 -19   6   0    8.72    2.10
  19  -6   1    2.28    2.16
 -19   6  -1    1.35    1.36
 -19   6  -1    0.05    2.04
  19  -6   2    2.59    2.11
 -19   6  -2    2.53    1.63
 -19   6  -2    3.06    2.25
 -19   6  -3   14.94    2.53
  19  -6   4    0.05    2.14
 -19   6  -4    1.08    1.95
  19  -6   5    5.95    2.33
 -19   6  -5    6.03    2.29
 -19   6  -6   -0.58    2.32
 -19   6  -7   -0.32    2.08
 -19   6  -8   -1.82    2.01
 -19   6  -9    3.78    2.63
  18  -5 -10    0.95    2.29
  18  -5  -9   -0.58    2.18
  18  -5  -8    2.17    2.27
  18  -5  -7    1.06    2.06
  18  -5  -6    2.79    2.51
  18  -5  -5   -1.38    1.75
  18  -5  -4    9.62    2.36
  18  -5  -3    4.08    2.09
 -18   5   3    5.88    1.82
  18  -5  -2    9.24    2.64
 -18   5   2    9.33    1.94
 -18   5   2   12.76    2.33
  18  -5  -1    0.65    1.72
 -18   5   1    1.87    1.75
 -18   5   1    0.60    1.68
  18  -5   0    5.86    2.36
 -18   5   0    6.59    2.28
 -18   5   0   13.04    1.93
  18  -5   1   -0.99    2.08
 -18   5  -1    3.26    1.59
 -18   5  -1    3.17    1.87
  18  -5   2   10.12    2.50
 -18   5  -2   14.67    2.67
 -18   5  -2   12.48    1.92
  18  -5   3    2.59    2.14
 -18   5  -3    3.70    1.95
  18  -5   4    3.24    1.19
 -18   5  -4    8.94    2.25
  18  -5   5   -0.24    1.81
 -18   5  -5    3.09    2.07
  18  -5   6    5.11    2.06
 -18   5  -6    5.35    2.58
 -18   5  -7    4.29    2.23
 -18   5  -8    3.63    2.19
 -18   5  -9    1.09    2.08
 -18   5 -10    7.63    2.43
  17  -4 -10    8.89    2.61
  17  -4  -9    0.75    2.28
  17  -4  -8   -1.82    2.10
  17  -4  -7    5.09    2.27
  17  -4  -6    0.56    1.94
  17  -4  -5    3.65    2.02
  17  -4  -4    2.88    1.94
  17  -4  -3    3.28    2.03
  17  -4  -2   13.42    2.50
 -17   4   2   18.42    2.55
 -17   4   2   16.75    2.34
  17  -4  -1   11.72    2.27
 -17   4   1    7.30    1.66
 -17   4   1    5.15    1.99
  17  -4   0    3.18    2.19
 -17   4   0    1.96    1.52
 -17   4   0    5.74    2.21
  17  -4   1    9.03    2.43
 -17   4  -1   10.50    2.20
 -17   4  -1    8.44    1.72
  17  -4   2   15.55    2.51
 -17   4  -2   17.20    2.00
 -17   4  -2   19.84    2.59
  17  -4   3    2.55    2.10
 -17   4  -3   -1.22    2.03
  17  -4   4    3.58    1.99
 -17   4  -4    1.71    2.19
  17  -4   5    0.18    1.11
 -17   4  -5    1.91    1.94
  17  -4   6   -0.88    1.74
 -17   4  -6   -3.82    1.70
  17  -4   7    5.23    2.08
 -17   4  -7    3.91    2.21
 -17   4  -8   -0.26    1.99
 -17   4  -9   -0.78    1.91
 -17   4 -10    8.63    2.46
  16  -3 -11    0.49    2.20
  16  -3 -10    0.11    2.09
  16  -3  -9    1.11    2.56
  16  -3  -8    3.75    2.29
  16  -3  -7    1.23    1.99
  16  -3  -6    1.56    1.96
  16  -3  -5    1.88    1.91
  16  -3  -4   -3.37    1.67
  16  -3  -3   10.91    2.40
  16  -3  -2    0.72    1.87
 -16   3   2   -0.21    1.95
  16  -3  -1    0.30    1.84
 -16   3   1    3.81    2.10
 -16   3   1    3.43    1.42
  16  -3   0    5.26    2.05
 -16   3   0    5.87    2.00
 -16   3   0    4.74    1.62
  16  -3   1    0.49    1.83
 -16   3  -1    1.19    1.38
 -16   3  -1   -0.90    1.71
  16  -3   2    2.42    2.21
 -16   3  -2   -0.92    2.16
 -16   3  -2    3.55    1.49
  16  -3   3    5.23    2.22
 -16   3  -3    9.41    2.16
  16  -3   4   -3.06    1.72
 -16   3  -4   -0.69    1.71
  16  -3   5   -2.00    1.62
 -16   3  -5    0.79    1.89
  16  -3   6    0.92    0.91
 -16   3  -6    2.09    1.99
  16  -3   7    0.57    1.91
 -16   3  -7   -1.26    1.82
  16  -3   8    7.73    2.23
 -16   3  -8    3.17    2.08
 -16   3  -9    0.28    2.36
 -16   3 -10    1.33    2.04
 -16   3 -11    1.56    2.12
  15  -2 -11    0.73    2.19
  15  -2 -10    4.64    2.37
  15  -2  -9   -1.59    1.98
  15  -2  -8    2.03    2.06
  15  -2  -7   13.33    2.49
  15  -2  -6   11.10    2.39
  15  -2  -5    2.56    1.88
  15  -2  -4    6.72    2.23
  15  -2  -3   -1.65    2.27
  15  -2  -2   12.82    2.47
  15  -2  -1   15.07    2.48
 -15   2   1   20.52    2.81
  15  -2   0    2.12    2.24
 -15   2   0   -2.13    1.68
  15  -2   1   18.63    2.69
 -15   2  -1   18.09    1.94
 -15   2  -1   15.28    2.42
  15  -2   2   12.05    2.61
 -15   2  -2   11.04    1.64
 -15   2  -2   12.67    2.34
  15  -2   3    1.04    2.05
 -15   2  -3    3.17    1.90
  15  -2   4    9.01    2.12
 -15   2  -4    9.57    2.20
  15  -2   5    0.65    1.78
 -15   2  -5    1.57    1.82
  15  -2   6    9.73    2.31
 -15   2  -6   14.36    2.49
 -15   2  -7   11.21    2.37
  15  -2   8    0.18    1.77
 -15   2  -8    1.52    2.03
  15  -2   9    0.92    1.88
 -15   2  -9    2.98    2.08
 -15   2 -10    2.60    2.12
 -15   2 -11   -1.28    1.85
  14  -1 -12    2.84    2.35
  14  -1 -11   -0.88    2.08
  14  -1 -10    7.40    2.52
  14  -1  -9    0.98    2.17
  14  -1  -8    6.56    2.32
  14  -1  -7    0.41    1.82
  14  -1  -6   39.05    3.57
  14  -1  -5    2.25    1.95
  14  -1  -4   -0.86    1.88
  14  -1  -3    1.29    2.00
  14  -1  -2   22.16    2.87
  14  -1  -1    2.77    1.85
 -14   1   1   -0.35    1.72
  14  -1   0   55.56    3.83
 -14   1   0   54.25    3.63
  14  -1   1   -2.02    1.96
 -14   1  -1    1.74    1.72
  14  -1   2   21.05    2.70
 -14   1  -2   23.99    2.71
  14  -1   3    2.35    1.85
 -14   1  -3    4.42    2.00
  14  -1   4   -1.75    1.90
 -14   1  -4   -0.47    1.76
  14  -1   5    0.52    1.55
 -14   1  -5    0.64    1.82
  14  -1   6   30.44    3.20
 -14   1  -6   39.12    3.42
  14  -1   7    1.78    1.88
 -14   1  -7    0.20    1.78
  14  -1   8    3.42    1.67
 -14   1  -8    6.83    2.22
  14  -1   9    1.67    0.84
 -14   1  -9    3.96    2.08
  14  -1  10    5.04    2.10
 -14   1 -10    2.47    2.10
 -14   1 -11   -1.36    1.89
 -14   1 -12    1.89    2.11
  13   0 -12    0.80    2.16
  13   0 -11    3.46    2.24
  13   0 -10    8.40    2.47
  13   0  -9    0.90    2.01
  13   0  -8    1.64    1.94
  13   0  -7   19.05    2.74
  13   0  -6   30.46    3.13
  13   0  -5   21.14    2.75
  13   0  -4   15.82    2.59
  13   0  -3    0.95    2.23
  13   0  -2   34.61    3.16
  13   0  -1   41.87    3.49
 -13   0   1   48.15    3.64
  13   0   0    2.27    2.16
 -13   0   0    0.06    1.70
  13   0   1   46.11    3.74
 -13   0  -1   41.69    3.43
  13   0   2   40.42    3.47
 -13   0  -2   39.92    3.27
  13   0   3    1.18    1.76
 -13   0  -3    0.58    2.08
  13   0   4    9.13    2.42
 -13   0  -4   12.61    2.27
  13   0   5   19.75    2.63
 -13   0  -5   18.49    2.60
  13   0   6   36.45    3.56
 -13   0  -6   38.98    3.40
  13   0   7   22.29    2.75
 -13   0  -7   19.07    2.67
  13   0   8    1.46    1.83
 -13   0  -8   -0.81    1.83
  13   0   9    1.29    1.90
 -13   0  -9   -0.44    1.86
  13   0  10    5.35    2.09
 -13   0 -10    5.13    2.18
  13   0  11    1.59    0.78
 -13   0 -11    3.12    2.12
 -13   0 -12   -0.61    1.95
  12   1 -13    5.21    2.81
  12   1 -12    3.61    2.31
  12   1 -11   -0.89    2.45
  12   1 -10    3.01    2.48
  12   1  -9   -0.36    1.86
  12   1  -8    6.27    2.20
  12   1  -7   19.43    2.94
  12   1  -6    3.17    2.05
  12   1  -5    5.97    2.16
  12   1  -4    7.13    2.17
  12   1  -3    4.17    2.01
  12   1  -2    4.72    1.89
  12   1  -1   34.06    3.36
 -12  -1   1   35.16    3.03
  12   1   0   41.56    3.33
 -12  -1   0   42.98    3.18
  12   1   1   32.42    3.07
 -12  -1  -1   34.39    3.15
  12   1   2    3.44    2.15
 -12  -1  -2    4.63    1.86
  12   1   3   -0.77    2.00
 -12  -1  -3    2.42    1.79
  12   1   4   10.00    2.33
 -12  -1  -4    8.72    2.06
  12   1   5    7.44    2.04
 -12  -1  -5    3.75    1.94
  12   1   6    1.95    1.95
 -12  -1  -6    1.47    1.87
  12   1   7   13.24    2.62
 -12  -1  -7   16.48    2.74
  12   1   8    6.07    2.10
 -12  -1  -8    4.86    2.00
  12   1   9    1.55    1.76
 -12  -1  -9    0.76    1.83
  12   1  10    2.78    2.02
 -12  -1 -10   -0.42    1.84
  12   1  11    3.12    2.04
 -12  -1 -11    0.01    2.29
  12   1  12    2.21    2.04
 -12  -1 -12    4.39    2.14
 -12  -1 -13    2.16    2.08
  11   2 -13    1.25    2.22
  11   2 -12    5.11    2.38
  11   2 -11   -0.62    2.36
  11   2 -10   13.65    2.70
  11   2  -9   -0.61    1.85
  11   2  -8   11.65    2.38
  11   2  -7    0.94    1.85
  11   2  -6    1.42    2.31
  11   2  -5    0.36    1.88
  11   2  -4   -0.19    1.85
  11   2  -3    6.01    1.93
  11   2  -2   42.90    3.27
  11   2  -1    3.48    1.85
  11   2   0   86.92    4.84
 -11  -2   0   90.21    4.74
  11   2   1    4.37    1.83
 -11  -2  -1    4.31    1.70
  11   2   2   44.24    3.28
 -11  -2  -2   42.85    3.11
  11   2   3    4.26    1.82
 -11  -2  -3    2.15    1.69
  11   2   4    1.60    1.64
 -11  -2  -4    5.50    1.86
  11   2   5   -0.38    1.93
 -11  -2  -5    2.83    1.86
  11   2   6   -0.05    1.81
 -11  -2  -6    1.06    2.10
  11   2   7    0.41    1.90
 -11  -2  -7    4.97    2.03
  11   2   8   13.68    2.47
 -11  -2  -8   16.74    2.56
  11   2   9    0.84    1.92
 -11  -2  -9   -0.08    1.81
  11   2  10   15.81    2.61
 -11  -2 -10   13.17    2.53
  11   2  11    1.70    2.00
 -11  -2 -11   -0.41    1.83
  11   2  12    4.98    2.00
 -11  -2 -12    6.32    2.23
  11   2  13   -1.16    1.99
 -11  -2 -13   -0.85    1.89
  10   3 -13   -4.37    1.85
  10   3 -12    6.21    2.39
  10   3 -11    3.52    2.50
  10   3 -10   14.48    2.64
  10   3  -9    0.21    1.85
  10   3  -8    3.50    1.99
  10   3  -7   19.56    2.68
  10   3  -6   11.84    2.32
  10   3  -5    1.33    1.88
  10   3  -4   14.97    2.36
  10   3  -3   14.69    2.28
  10   3  -2   83.53    4.45
  10   3  -1    2.89    1.74
  10   3   0    1.66    1.60
 -10  -3   0    3.50    1.58
  10   3   1    2.92    1.68
 -10  -3  -1   -1.37    1.46
  10   3   2   76.81    4.41
 -10  -3  -2   71.11    3.98
  10   3   3    8.16    1.95
 -10  -3  -3   13.79    2.09
  10   3   4   13.54    2.22
 -10  -3  -4   11.92    2.11
  10   3   5    1.76    1.72
 -10  -3  -5    3.77    1.84
  10   3   6    7.03    1.98
 -10  -3  -6   12.16    2.42
  10   3   7   18.34    2.78
 -10  -3  -7   16.22    2.47
  10   3   8    3.05    1.77
 -10  -3  -8    5.90    2.30
  10   3   9    2.88    2.01
 -10  -3  -9    1.80    1.90
  10   3  10   18.34    2.85
 -10  -3 -10   17.94    2.89
  10   3  11    4.27    2.27
 -10  -3 -11    7.77    2.51
  10   3  12    8.44    2.43
 -10  -3 -12    6.97    2.21
  10   3  13    5.03    2.35
 -10  -3 -13    1.27    2.02
   9   4 -13   -5.65    2.07
   9   4 -12    5.18    2.49
   9   4 -11   16.52    2.97
   9   4 -10    0.59    2.16
   9   4  -9   17.31    2.81
   9   4  -8    3.12    1.90
   9   4  -7    1.76    1.87
   9   4  -6   54.57    3.82
   9   4  -5   28.21    2.95
   9   4  -4   12.24    2.15
   9   4  -3   83.26    4.45
   9   4  -2   43.33    3.20
   9   4  -1   18.99    2.36
   9   4   0    0.77    1.76
   9   4   1   15.17    2.22
  -9  -4  -1   16.45    2.17
   9   4   2   42.98    3.15
  -9  -4  -2   38.12    2.90
   9   4   3   80.48    4.34
  -9  -4  -3   81.18    4.15
   9   4   4   10.28    2.07
  -9  -4  -4    9.65    1.98
   9   4   5   26.20    2.79
  -9  -4  -5   25.80    2.66
   9   4   6   52.99    3.73
  -9  -4  -6   52.44    3.53
   9   4   7    2.33    1.74
  -9  -4  -7    0.60    1.78
   9   4   8    2.00    1.69
  -9  -4  -8    5.35    1.95
   9   4   9   21.17    2.94
  -9  -4  -9   22.63    2.76
   9   4  10    0.17    2.02
  -9  -4 -10    1.52    1.90
   9   4  11   14.47    2.85
  -9  -4 -11   14.96    2.56
   9   4  12    1.19    1.87
  -9  -4 -12    0.98    2.26
   9   4  13    1.40    1.84
  -9  -4 -13   -1.23    2.17
   8   5 -13    3.45    2.46
   8   5 -12   -1.03    2.15
   8   5 -11    4.14    2.40
   8   5 -10   14.32    2.47
   8   5  -9    0.88    1.72
   8   5  -8    3.72    2.21
   8   5  -7   17.93    2.54
   8   5  -6    8.34    2.15
   8   5  -5   28.84    3.06
   8   5  -4   50.39    3.65
   8   5  -3   25.76    2.65
   8   5  -2   22.78    2.51
   8   5  -1   24.61    2.47
   8   5   0   12.68    2.00
   8   5   1   25.90    1.65
   8   5   1   27.62    2.59
  -8  -5  -1   26.54    2.49
   8   5   2   16.42    1.25
   8   5   2   17.06    2.21
  -8  -5  -2   18.97    2.18
   8   5   3   24.67    2.62
  -8  -5  -3   24.94    2.45
   8   5   4   42.60    3.26
  -8  -5  -4   48.44    3.11
   8   5   5   24.68    2.75
  -8  -5  -5   20.29    2.38
   8   5   6    3.51    1.79
  -8  -5  -6    2.72    1.74
   8   5   7   17.96    2.58
  -8  -5  -7   18.11    2.41
   8   5   8    4.10    1.87
  -8  -5  -8    4.31    2.16
   8   5   9    4.14    1.84
  -8  -5  -9    3.34    2.07
   8   5  10   13.72    2.54
  -8  -5 -10   18.21    2.77
   8   5  11    5.47    2.38
  -8  -5 -11    7.04    2.13
   8   5  12   -0.02    1.98
  -8  -5 -12    0.00    2.20
   8   5  13    3.20    2.30
  -8  -5 -13    2.86    2.37
   7   6 -13    1.96    2.01
   7   6 -12   -0.26    2.10
   7   6 -11    0.70    2.06
   7   6 -10    0.34    1.95
   7   6  -9    0.46    1.70
   7   6  -8   10.95    2.19
   7   6  -7   13.64    2.59
   7   6  -6    3.02    1.85
   7   6  -5    3.73    2.06
   7   6  -4   59.92    3.63
   7   6  -3   26.60    2.59
   7   6  -2   -0.10    1.74
   7   6  -1    7.56    1.77
   7   6   0    4.05    1.81
   7   6   0    4.70    1.08
   7   6   1    7.68    1.79
   7   6   1    6.54    1.08
   7   6   2    1.28    1.47
   7   6   2    1.08    0.81
  -7  -6  -2    0.40    1.39
   7   6   3   23.15    1.37
   7   6   3   26.87    2.70
  -7  -6  -3   27.17    2.66
   7   6   4   52.45    3.53
  -7  -6  -4   59.39    3.57
   7   6   5    4.47    1.71
  -7  -6  -5    2.16    1.57
   7   6   6   -0.33    1.64
  -7  -6  -6    0.60    1.61
   7   6   7    9.08    2.37
  -7  -6  -7   10.39    2.27
   7   6   8    7.41    2.01
  -7  -6  -8    9.82    2.28
   7   6   9    1.14    1.94
  -7  -6  -9    2.04    1.96
   7   6  10    5.56    2.01
  -7  -6 -10    5.71    2.13
   7   6  11    2.26    1.88
  -7  -6 -11    0.45    1.76
   7   6  12    0.19    1.83
  -7  -6 -12   -0.88    1.70
   7   6  13    3.36    2.34
  -7  -6 -13    1.87    2.22
   6   7 -13    0.93    1.82
   6   7 -12   -0.03    2.10
   6   7 -11    0.24    1.98
   6   7 -10    3.78    2.15
   6   7  -9    3.62    2.09
   6   7  -8    7.28    2.06
   6   7  -7   12.14    2.21
   6   7  -6    0.93    1.93
   6   7  -5    2.33    1.70
   6   7  -4   58.18    3.57
   6   7  -3   28.64    2.64
   6   7  -3   26.83    2.29
   6   7  -2    0.76    0.53
   6   7  -2    2.07    1.56
   6   7  -1    7.87    1.26
   6   7  -1    7.60    1.75
   6   7   0    3.52    1.58
   6   7   0    3.62    1.07
   6   7   1    7.88    1.69
   6   7   1    8.30    1.19
   6   7   2   -0.61    1.37
   6   7   2    0.46    0.88
  -6  -7  -2    2.05    1.69
   6   7   3   22.81    1.59
   6   7   3   27.06    2.60
  -6  -7  -3   29.72    2.60
   6   7   4   56.68    3.60
  -6  -7  -4   56.93    3.57
   6   7   5    1.80    1.63
  -6  -7  -5    1.78    1.47
   6   7   6   -0.01    1.57
  -6  -7  -6    0.37    1.77
   6   7   7   11.20    2.23
  -6  -7  -7   10.04    2.21
   6   7   8    6.60    2.04
  -6  -7  -8    8.64    2.15
   6   7   9    3.43    1.85
  -6  -7  -9    2.76    1.88
   6   7  10    3.09    1.86
  -6  -7 -10    0.96    1.59
   6   7  11   -0.03    2.04
  -6  -7 -11    2.39    2.01
   6   7  12    3.77    2.16
  -6  -7 -12    0.07    1.97
   6   7  13    4.10    2.43
  -6  -7 -13    2.63    2.19
   5   8 -13    5.25    2.45
   5   8 -13    1.90    2.18
   5   8 -12   -0.73    2.03
   5   8 -12   -0.36    2.00
   5   8 -11    6.90    2.25
   5   8 -11    6.59    2.32
   5   8 -10   15.85    2.71
   5   8 -10   14.34    2.65
   5   8  -9    1.51    1.70
   5   8  -9   -1.89    1.63
   5   8  -8    0.72    1.80
   5   8  -8    5.35    2.10
   5   8  -7   19.81    2.41
   5   8  -7   17.96    2.51
   5   8  -6    8.62    1.93
   5   8  -6    2.14    1.72
   5   8  -5   27.91    2.64
   5   8  -5   27.42    2.81
   5   8  -4   52.26    3.20
   5   8  -4   45.50    3.49
   5   8  -3   31.31    2.50
   5   8  -3   32.03    2.87
   5   8  -2   18.30    2.32
   5   8  -1   26.93    2.13
   5   8  -1   25.10    2.46
   5   8   0   14.53    1.55
   5   8   0   12.64    2.13
   5   8   1   21.22    2.27
   5   8   1   22.72    1.77
   5   8   2   16.48    2.12
   5   8   2   20.69    1.61
   5   8   3   23.07    1.73
   5   8   3   24.74    2.53
  -5  -8  -3   26.03    2.34
   5   8   4   49.19    3.38
  -5  -8  -4   50.01    3.07
   5   8   5   22.75    2.62
  -5  -8  -5   25.18    2.54
   5   8   6    4.01    1.76
  -5  -8  -6    3.23    1.80
   5   8   7   19.15    2.71
  -5  -8  -7   22.87    2.56
   5   8   8    0.61    1.72
  -5  -8  -8    0.04    1.73
   5   8   9    3.10    1.83
  -5  -8  -9    4.92    1.89
   5   8  10    8.16    2.26
  -5  -8 -10   13.85    2.11
   5   8  11    5.99    2.16
  -5  -8 -11    8.41    2.23
   5   8  12    1.39    2.11
  -5  -8 -12   -3.45    1.73
   5   8  13    8.07    2.55
  -5  -8 -13    3.93    2.15
   4   9 -13    1.61    2.24
   4   9 -12    1.47    2.10
   4   9 -12    3.41    2.23
   4   9 -11   15.42    2.74
   4   9 -11   13.43    2.55
   4   9 -10    0.85    1.92
   4   9 -10   -0.34    1.98
   4   9  -9   22.65    2.94
   4   9  -9   23.24    2.73
   4   9  -8    3.17    1.69
   4   9  -8    1.54    1.93
   4   9  -7   -0.68    1.72
   4   9  -7    3.09    1.95
   4   9  -6   57.16    3.72
   4   9  -6   56.89    3.56
   4   9  -5   24.98    2.55
   4   9  -5   30.80    2.79
   4   9  -4   10.26    1.84
   4   9  -4    8.51    2.02
   4   9  -3   92.30    4.38
   4   9  -3   92.05    4.45
   4   9  -2   41.76    2.81
   4   9  -2   33.64    2.40
   4   9  -1   20.19    1.97
   4   9  -1   18.12    2.13
   4   9   0    1.64    1.65
   4   9   0    3.15    1.23
   4   9   1   18.97    1.78
   4   9   1   18.19    2.19
   4   9   2   40.17    3.12
   4   9   2   42.79    2.38
   4   9   3   82.75    4.23
   4   9   3   76.73    3.48
   4   9   4   10.72    2.04
   4   9   4   10.47    1.26
  -4  -9  -4   11.67    1.96
   4   9   5   19.29    2.47
  -4  -9  -5   27.12    2.51
   4   9   6   54.19    3.73
  -4  -9  -6   55.17    3.48
   4   9   7    1.27    1.72
  -4  -9  -7    2.36    1.48
   4   9   8   -0.58    1.68
  -4  -9  -8    2.13    1.68
   4   9   9   21.11    2.79
  -4  -9  -9   18.51    2.42
   4   9  10    1.09    1.79
  -4  -9 -10    1.70    1.54
   4   9  11   13.16    2.68
  -4  -9 -11   12.81    2.29
   4   9  12    2.04    2.06
  -4  -9 -12    1.66    1.92
   4   9  13    1.95    2.05
   3  10 -13    1.93    2.25
   3  10 -12    6.89    2.49
   3  10 -11    5.90    2.06
   3  10 -11    3.91    2.17
   3  10 -10   19.63    2.59
   3  10 -10   15.81    2.77
   3  10  -9    1.57    1.93
   3  10  -9    1.76    1.75
   3  10  -8    2.38    1.80
   3  10  -8   -0.14    1.75
   3  10  -7   15.16    2.13
   3  10  -7   16.59    2.50
   3  10  -6   14.20    2.36
   3  10  -6    9.60    2.17
   3  10  -5    1.77    1.50
   3  10  -5    0.54    1.70
   3  10  -4   15.12    2.10
   3  10  -4   17.61    2.27
   3  10  -3   10.63    2.05
   3  10  -3    8.47    1.74
   3  10  -2   75.54    3.76
   3  10  -2   75.38    3.91
   3  10  -1    1.05    1.35
   3  10  -1    0.19    1.00
   3  10   0    1.50    1.22
   3  10   0    4.38    1.53
   3  10   1    3.44    1.22
   3  10   1    0.75    1.41
   3  10   2   74.66    4.02
   3  10   2   77.97    3.55
   3  10   3   10.71    1.65
   3  10   3   13.88    2.06
   3  10   4   13.39    2.15
   3  10   4   14.91    1.59
   3  10   5   -0.17    1.59
  -3 -10  -5    1.91    1.62
   3  10   6    8.14    2.06
  -3 -10  -6   11.07    1.93
   3  10   7   12.21    2.25
  -3 -10  -7   12.07    2.05
   3  10   8    1.85    1.74
  -3 -10  -8    3.40    1.61
   3  10   9    0.18    1.94
  -3 -10  -9    1.42    1.56
   3  10  10   16.36    2.92
  -3 -10 -10   15.99    2.26
   3  10  11    6.28    2.21
  -3 -10 -11    2.54    1.79
   3  10  12    5.33    2.20
   3  10  13    3.11    2.06
   2  11 -13    1.20    2.26
   2  11 -12    1.43    2.22
   2  11 -11   -0.32    2.08
   2  11 -10   10.70    2.57
   2  11 -10   16.95    2.46
   2  11  -9    0.73    1.99
   2  11  -9    0.34    1.67
   2  11  -8   14.71    2.23
   2  11  -8   14.11    2.50
   2  11  -7    0.41    1.83
   2  11  -7    4.56    1.84
   2  11  -6   -2.16    1.66
   2  11  -6   -0.83    1.70
   2  11  -5    0.17    1.65
   2  11  -5    2.64    1.72
   2  11  -4    3.66    1.99
   2  11  -4    3.83    1.74
   2  11  -3    4.18    1.83
   2  11  -3    3.95    1.72
   2  11  -2   49.22    3.19
   2  11  -2   45.78    2.98
   2  11  -1    4.68    1.54
   2  11  -1    0.79    0.79
   2  11   0   78.31    3.97
   2  11   0   74.99    3.64
   2  11   1    3.94    1.58
   2  11   2   40.76    2.98
   2  11   2   44.05    2.87
   2  11   3    2.18    1.46
   2  11   3    4.82    1.76
   2  11   4    0.78    1.52
   2  11   4    2.70    1.33
   2  11   5    2.11    1.73
   2  11   6   -1.61    1.53
  -2 -11  -6    2.14    1.55
   2  11   7    2.54    1.99
  -2 -11  -7    3.77    1.72
   2  11   8   13.70    2.56
  -2 -11  -8   13.10    2.08
   2  11   9   -0.31    1.66
  -2 -11  -9    1.13    1.54
   2  11  10   14.27    2.68
  -2 -11 -10   17.91    2.19
   2  11  11    1.66    2.22
   2  11  12   11.44    2.61
   2  11  13    0.09    2.03
   1  12 -13    0.24    2.33
   1  12 -12    4.53    2.49
   1  12 -11   -1.26    1.99
   1  12 -10    2.73    2.12
   1  12  -9   -1.92    1.86
   1  12  -9    2.08    1.72
   1  12  -8    3.38    2.04
   1  12  -8    6.02    1.74
   1  12  -7   16.06    2.65
   1  12  -7   19.11    2.40
   1  12  -6    1.84    1.63
   1  12  -6    1.07    1.80
   1  12  -5    6.70    2.01
   1  12  -5    8.90    1.88
   1  12  -4   11.83    2.40
   1  12  -4    8.53    1.90
   1  12  -3    1.21    1.58
   1  12  -3    4.60    1.47
   1  12  -2    8.50    1.89
   1  12  -2    7.03    1.71
   1  12  -1   30.82    2.69
   1  12  -1   34.78    2.60
   1  12   0   44.66    2.88
   1  12   0   36.77    2.55
   1  12   1   36.30    2.78
   1  12   1   31.09    2.89
   1  12   2    6.47    1.67
   1  12   2    2.89    1.86
   1  12   3    2.79    1.63
   1  12   3    3.51    1.58
   1  12   4   12.62    1.92
   1  12   4    9.18    2.04
   1  12   5    9.27    2.09
   1  12   5    9.16    1.60
   1  12   6    3.14    2.03
   1  12   7   14.04    2.35
   1  12   8    5.72    1.95
  -1 -12  -8    5.21    1.60
   1  12   9    0.57    1.73
  -1 -12  -9   -0.75    1.37
   1  12  10    3.22    1.95
   1  12  11    2.06    1.99
   1  12  12    4.70    2.17
   1  12  13    5.33    2.66
   0  13 -12   -1.76    2.10
   0  13 -11    4.61    2.39
   0  13 -10    4.29    2.30
   0  13  -9    1.03    2.04
   0  13  -8    1.66    2.01
   0  13  -7   21.25    2.32
   0  13  -7   24.51    2.98
   0  13  -6   43.03    3.62
   0  13  -6   45.46    3.22
   0  13  -5   21.89    2.78
   0  13  -5   23.30    2.37
   0  13  -4   10.68    2.17
   0  13  -4   16.01    2.07
   0  13  -3   -0.03    1.56
   0  13  -3    0.67    1.54
   0  13  -2   37.05    2.87
   0  13  -2   39.38    2.90
   0  13  -1   37.73    2.81
   0  13  -1   43.10    3.04
   0  13   0    3.65    1.76
   0  13   0    0.45    0.81
   0  13   1   39.77    3.05
   0  13   1   41.60    3.23
   0  13   2   36.91    2.89
   0  13   3    2.05    1.61
   0  13   3    2.18    1.69
   0  13   4   13.20    2.21
   0  13   4   17.05    2.29
   0  13   5   19.47    2.55
   0  13   5   22.26    2.27
   0  13   6   33.91    3.18
   0  13   7   16.62    2.53
   0  13   8    0.45    1.61
   0  13   9    0.10    2.02
   0  13  10    7.18    2.18
   0  13  11    0.01    1.80
   0  13  12    1.82    2.05
  -1  14 -12    5.30    2.54
  -1  14 -11   -4.32    1.91
  -1  14 -10    3.70    2.39
  -1  14  -9   -0.85    2.04
  -1  14  -8    7.30    2.36
  -1  14  -7   -0.21    1.89
  -1  14  -6   38.31    2.74
  -1  14  -6   37.85    3.54
  -1  14  -5   -2.15    1.69
  -1  14  -5    0.36    1.44
  -1  14  -4    0.12    1.47
  -1  14  -4   -1.02    1.72
  -1  14  -3   -1.89    1.54
  -1  14  -3    1.17    1.51
  -1  14  -2   25.22    2.57
  -1  14  -2   21.10    2.32
  -1  14  -1   -0.55    1.32
  -1  14  -1   -1.71    1.37
  -1  14   0   54.97    3.43
  -1  14   0   52.85    3.55
  -1  14   1   -0.84    0.74
  -1  14   1    0.28    1.69
  -1  14   2   25.39    2.71
  -1  14   2   25.59    2.78
  -1  14   3    0.57    1.75
  -1  14   3   -0.74    1.56
  -1  14   4    0.61    1.57
  -1  14   4    3.12    1.72
  -1  14   5    1.18    1.61
  -1  14   5    2.40    1.62
  -1  14   6   33.77    3.24
  -1  14   7    2.55    1.69
  -1  14   8    8.26    2.16
  -1  14   9   -0.52    1.70
  -1  14  10    4.04    2.06
  -1  14  11   -3.46    1.70
  -1  14  12    2.73    2.15
  -2  15 -11    1.94    2.32
  -2  15 -10    1.91    2.23
  -2  15  -9    0.21    2.14
  -2  15  -8   -1.26    1.95
  -2  15  -7    8.89    2.39
  -2  15  -6   15.26    2.53
  -2  15  -5    2.52    2.00
  -2  15  -5    2.07    1.52
  -2  15  -4   10.29    2.20
  -2  15  -4    9.11    1.86
  -2  15  -3    0.70    1.71
  -2  15  -3    0.72    1.44
  -2  15  -2   12.01    1.98
  -2  15  -2   12.47    2.22
  -2  15  -1   14.20    2.21
  -2  15  -1   17.75    2.31
  -2  15   0   -3.04    1.84
  -2  15   0   -0.74    1.36
  -2  15   1   17.97    2.49
  -2  15   1   14.85    2.54
  -2  15   2    7.87    1.91
  -2  15   2    9.08    1.93
  -2  15   3    0.92    1.84
  -2  15   3    1.79    1.65
  -2  15   4    8.68    2.14
  -2  15   4    7.90    1.96
  -2  15   5    0.17    1.57
  -2  15   5    5.72    1.77
  -2  15   6   13.12    2.48
  -2  15   7   12.10    2.33
  -2  15   8    0.87    1.99
  -2  15   9    1.73    1.93
  -2  15  10    2.83    2.02
  -2  15  11    0.88    1.95
  -3  16 -11    4.41    2.60
  -3  16 -10    0.45    2.35
  -3  16  -9    0.02    2.21
  -3  16  -8    5.94    2.39
  -3  16  -7   -0.10    2.04
  -3  16  -6   -0.52    1.90
  -3  16  -5    2.41    1.90
  -3  16  -4   -0.16    1.70
  -3  16  -4    0.58    1.47
  -3  16  -3    9.85    1.93
  -3  16  -3    5.68    2.03
  -3  16  -2    5.22    1.64
  -3  16  -2    2.25    1.75
  -3  16  -1    1.90    1.76
  -3  16  -1    0.66    1.54
  -3  16   0    3.59    1.52
  -3  16   0    4.02    2.18
  -3  16   1   -2.64    1.56
  -3  16   1    1.58    1.53
  -3  16   2    1.73    1.80
  -3  16   2   -2.57    1.49
  -3  16   3    6.42    2.17
  -3  16   3   12.01    2.08
  -3  16   4   -0.43    1.78
  -3  16   4    0.62    1.71
  -3  16   5   -1.28    1.46
  -3  16   5    1.73    1.61
  -3  16   6    2.00    1.75
  -3  16   6    3.35    1.72
  -3  16   7    4.01    1.90
  -3  16   8    5.99    2.16
  -3  16   9    0.50    1.80
  -3  16  10    2.37    2.03
  -3  16  11    3.78    2.25
  -4  17 -10    6.09    2.74
  -4  17  -9    1.14    2.18
  -4  17  -8    2.20    2.25
  -4  17  -7    1.01    2.11
  -4  17  -6   -0.22    1.92
  -4  17  -5    0.07    1.91
  -4  17  -4    2.85    1.94
  -4  17  -3    5.32    2.28
  -4  17  -3    5.34    1.55
  -4  17  -2   18.21    2.17
  -4  17  -2   16.22    2.53
  -4  17  -1    6.14    2.06
  -4  17  -1    7.29    1.75
  -4  17   0    2.98    1.69
  -4  17   0    3.26    1.90
  -4  17   1    9.22    2.05
  -4  17   1    7.17    2.10
  -4  17   2   18.18    2.82
  -4  17   2   17.81    2.52
  -4  17   3    3.55    1.34
  -4  17   3    1.12    1.53
  -4  17   4    0.48    1.63
  -4  17   4    1.76    1.60
  -4  17   5   -1.03    1.70
  -4  17   5    2.80    1.80
  -4  17   6   -0.12    1.61
  -4  17   6    1.07    1.71
  -4  17   7    4.57    2.33
  -4  17   8    0.15    1.76
  -4  17   9    3.72    2.07
  -4  17  10    6.89    2.39
  -5  18 -10    2.88    2.50
  -5  18  -9    4.25    2.34
  -5  18  -8    1.44    2.27
  -5  18  -7    4.59    2.64
  -5  18  -6    4.92    2.28
  -5  18  -5    5.28    2.21
  -5  18  -4   11.03    2.41
  -5  18  -3    4.92    2.11
  -5  18  -2   12.90    1.97
  -5  18  -2   13.00    2.42
  -5  18  -1    0.67    1.84
  -5  18  -1    0.92    1.49
  -5  18   0   11.91    2.34
  -5  18   0   12.29    2.11
  -5  18   1    1.64    1.77
  -5  18   1   -1.59    1.72
  -5  18   2   10.62    2.30
  -5  18   2   10.20    1.99
  -5  18   3    9.21    2.24
  -5  18   3    5.74    2.12
  -5  18   4   12.68    2.49
  -5  18   5    0.42    1.65
  -5  18   5    1.39    1.69
  -5  18   6    2.57    1.94
  -5  18   6    5.27    2.10
  -5  18   7    3.75    2.36
  -5  18   8    1.05    1.93
  -5  18   9    0.59    1.97
  -5  18  10    5.93    2.64
  -6  19  -9    6.08    2.57
  -6  19  -8    3.32    2.29
  -6  19  -7   -1.46    2.09
  -6  19  -6    3.32    2.26
  -6  19  -5    4.07    2.24
  -6  19  -4   -0.29    1.98
  -6  19  -3   16.22    3.04
  -6  19  -2    2.50    2.01
  -6  19  -1    0.57    1.92
  -6  19  -1    1.69    1.52
  -6  19   0    4.03    2.05
  -6  19   0    5.58    1.83
  -6  19   1   -1.87    2.12
  -6  19   1    2.29    1.74
  -6  19   2    0.94    1.87
  -6  19   2    1.87    1.92
  -6  19   3   14.07    2.60
  -6  19   3   11.82    2.38
  -6  19   4    1.10    1.96
  -6  19   4    0.35    2.10
  -6  19   5    0.97    1.02
  -6  19   5    4.76    2.00
  -6  19   6   10.54    2.55
  -6  19   6    2.81    1.92
  -6  19   7   -4.09    1.61
  -6  19   8    1.25    1.93
  -6  19   9    2.62    2.14
  -7  20  -8   -2.35    2.56
  -7  20  -7    3.00    2.30
  -7  20  -6    0.30    2.07
  -7  20  -5    2.85    2.19
  -7  20  -4    3.22    2.18
  -7  20  -3    0.02    1.99
  -7  20  -2    4.17    2.23
  -7  20  -1    0.13    1.97
  -7  20   0    4.69    2.51
  -7  20   1   -0.72    1.67
  -7  20   1   -0.69    1.85
  -7  20   2    3.23    1.89
  -7  20   2    5.32    2.55
  -7  20   3    1.90    2.02
  -7  20   3   -1.22    1.78
  -7  20   4    5.01    2.55
  -7  20   4    3.93    1.92
  -7  20   5    1.41    2.21
  -7  20   5    0.35    1.72
  -7  20   6    0.08    2.21
  -7  20   6    2.31    1.41
  -7  20   7    0.97    1.92
  -7  20   8   -1.41    1.85
  -8  21  -6    0.36    2.23
  -8  21  -5    3.18    2.38
  -8  21  -4    2.11    2.19
  -8  21  -3    9.53    2.55
  -8  21  -2   -0.02    2.02
  -8  21  -1   -0.04    2.04
  -8  21   0    4.87    2.18
  -8  21   1   -0.34    1.91
  -8  21   2   -3.52    1.72
  -8  21   2   -0.65    1.76
  -8  21   3    5.25    2.52
  -8  21   3    6.69    2.20
  -8  21   4    2.74    2.08
  -8  21   4    0.99    2.15
  -8  21   5    2.89    2.38
  -8  21   5    4.65    2.34
  -8  21   6    3.51    2.38
  -8  21   6   -0.69    2.22
  -9  22  -5    1.61    2.31
  -9  22  -4    9.49    2.71
  -9  22  -3    0.38    2.18
  -9  22  -2    0.65    2.17
  -9  22  -1   -0.93    2.03
  -9  22   0    1.48    2.10
  -9  22   1    3.60    2.53
  -9  22   2   -1.95    1.86
  -9  22   3    2.02    2.02
  -9  22   3    4.38    2.59
  -9  22   4    5.42    2.04
  -9  22   4    7.01    2.29
  -9  22   5    1.52    2.20
  -9  22   5   -1.11    1.84
 -10  23  -2   -0.44    2.13
 -10  23  -1   -0.19    2.05
 -10  23   0    4.00    2.33
 -10  23   1    4.05    2.32
 -10  23   2    1.90    2.15
  23  -9  -2    0.99    2.06
  23  -9  -1   -1.00    1.87
 -23   9   1    1.43    1.81
  23  -9   0    2.08    2.41
 -23   9   0    4.44    2.45
 -23   9   0    5.64    1.98
  23  -9   1   -1.30    1.64
 -23   9  -1    2.63    2.27
  22  -8  -5   -0.95    2.04
  22  -8  -4    2.51    2.28
 -22   8   4    4.85    2.07
  22  -8  -3    1.87    2.52
 -22   8   3   -0.27    1.70
  22  -8  -2    0.08    2.37
 -22   8   2    0.84    0.58
 -22   8   2    0.32    1.98
  22  -8  -1    3.28    2.49
 -22   8   1    3.04    2.15
 -22   8   1    1.14    2.17
  22  -8   0    1.85    2.04
 -22   8   0   -0.92    1.81
 -22   8   0   -0.38    2.16
  22  -8   1    1.76    2.27
 -22   8  -1   -0.78    2.18
  22  -8   2    1.26    0.83
 -22   8  -2    1.14    2.38
 -22   8  -3    1.09    2.41
 -22   8  -4    6.78    2.41
  21  -7  -6   -2.06    1.86
  21  -7  -5    5.02    2.66
  21  -7  -4    1.01    2.13
  21  -7  -3    6.01    2.36
 -21   7   3    5.91    2.03
  21  -7  -2   -0.43    1.89
 -21   7   2    0.48    2.09
 -21   7   2    0.64    1.61
  21  -7  -1    3.11    2.13
 -21   7   1    4.97    2.37
 -21   7   1    1.84    1.67
  21  -7   0    0.50    2.22
 -21   7   0    0.12    1.76
 -21   7   0    0.21    1.90
  21  -7   1    3.76    2.43
 -21   7  -1    0.15    2.18
  21  -7   2    0.29    2.15
 -21   7  -2    1.79    2.36
  21  -7   3    6.54    2.06
 -21   7  -3    1.03    2.00
 -21   7  -4    0.49    2.36
 -21   7  -5   -0.43    2.37
 -21   7  -6    3.61    2.66
  20  -6  -7   -0.34    2.11
  20  -6  -6    0.67    2.13
  20  -6  -5    0.75    2.12
  20  -6  -4    5.98    2.40
  20  -6  -3    6.36    2.69
  20  -6  -2    5.36    2.24
 -20   6   2    4.68    2.36
 -20   6   2    7.15    2.23
  20  -6  -1    1.56    1.95
 -20   6   1    3.99    2.30
 -20   6   1    1.48    1.83
  20  -6   0   -3.54    2.04
 -20   6   0   -1.02    1.79
 -20   6   0    1.34    1.77
  20  -6   1    3.45    2.45
 -20   6  -1    2.95    1.73
 -20   6  -1    2.51    2.18
  20  -6   2    5.44    2.43
 -20   6  -2    4.97    2.17
  20  -6   3    3.20    1.94
 -20   6  -3    4.69    2.13
  20  -6   4    3.18    2.24
 -20   6  -4    6.01    2.30
 -20   6  -5   -1.65    1.93
 -20   6  -6    0.73    2.15
 -20   6  -7   -0.12    2.39
  19  -5  -8    2.22    2.23
  19  -5  -7    2.91    2.25
  19  -5  -6   -1.28    1.92
  19  -5  -5    4.96    2.34
  19  -5  -4   14.42    2.73
  19  -5  -3    4.91    2.26
  19  -5  -2    0.49    1.93
 -19   5   2    4.79    2.31
 -19   5   2    3.14    1.66
  19  -5  -1    7.51    2.54
 -19   5   1    7.49    2.35
 -19   5   1    4.13    1.63
  19  -5   0   -0.51    2.19
 -19   5   0    4.24    1.73
 -19   5   0    1.82    2.20
  19  -5   1    8.21    2.30
 -19   5  -1    7.17    2.45
 -19   5  -1    8.80    1.89
  19  -5   2    0.31    2.22
 -19   5  -2    1.25    2.24
  19  -5   3    4.60    2.33
 -19   5  -3    3.22    2.10
  19  -5   4    1.56    1.07
 -19   5  -4   14.75    2.61
  19  -5   5    8.24    2.33
 -19   5  -5    7.85    2.40
 -19   5  -6   -1.03    1.99
 -19   5  -7    1.29    2.16
 -19   5  -8   -1.21    2.06
  18  -4  -9    8.35    3.01
  18  -4  -8    2.37    2.25
  18  -4  -7    1.04    2.13
  18  -4  -6    8.39    2.45
  18  -4  -5    6.08    2.24
  18  -4  -4    3.22    2.14
  18  -4  -3   18.51    2.81
  18  -4  -2    2.12    1.94
 -18   4   2    2.84    2.21
  18  -4  -1    1.67    1.87
 -18   4   1    3.58    1.86
 -18   4   1    1.07    1.35
  18  -4   0   12.35    2.45
 -18   4   0   15.84    2.69
 -18   4   0    9.48    1.78
  18  -4   1    2.57    2.00
 -18   4  -1    0.55    1.43
 -18   4  -1    1.52    1.79
  18  -4   2    1.59    2.19
 -18   4  -2    1.64    1.83
  18  -4   3   18.52    3.00
 -18   4  -3   15.99    2.85
  18  -4   4   -1.68    1.90
 -18   4  -4    1.69    2.25
  18  -4   5    1.50    0.73
 -18   4  -5    6.14    2.58
  18  -4   6    6.68    2.27
 -18   4  -6    4.18    2.24
 -18   4  -7    2.66    2.16
 -18   4  -8   -0.49    2.05
 -18   4  -9    9.23    2.88
  17  -3 -10    4.50    2.92
  17  -3  -9    0.92    2.20
  17  -3  -8    1.18    2.08
  17  -3  -7    9.81    2.78
  17  -3  -6    3.70    2.19
  17  -3  -5    1.78    2.05
  17  -3  -4    2.88    2.09
  17  -3  -3    7.39    2.32
  17  -3  -2   15.20    2.81
  17  -3  -1    4.44    2.04
 -17   3   1    3.64    2.16
  17  -3   0   -2.26    1.66
 -17   3   0   -2.56    1.91
  17  -3   1    3.10    1.91
 -17   3  -1    5.53    1.57
 -17   3  -1    2.37    1.82
  17  -3   2   12.92    2.72
 -17   3  -2   15.16    2.49
  17  -3   3    1.62    1.81
 -17   3  -3    2.48    1.96
  17  -3   4    0.35    2.09
 -17   3  -4    0.47    1.86
  17  -3   5   -0.72    1.87
 -17   3  -5    2.49    2.03
  17  -3   6    1.78    0.92
 -17   3  -6    0.74    2.36
  17  -3   7   12.74    2.58
 -17   3  -7    7.52    2.40
  17  -3   8   -1.76    1.82
 -17   3  -8    1.37    2.05
 -17   3  -9    2.14    2.14
 -17   3 -10    2.40    2.60
  16  -2 -11   -1.12    2.70
  16  -2 -10   -1.30    2.16
  16  -2  -9    3.17    2.21
  16  -2  -8    4.27    2.28
  16  -2  -7   -0.39    2.00
  16  -2  -6    1.90    2.00
  16  -2  -5    0.39    1.91
  16  -2  -4    5.82    2.17
  16  -2  -3    0.77    1.92
  16  -2  -2   -0.79    1.85
  16  -2  -1    1.59    2.16
 -16   2   1    2.69    1.86
  16  -2   0   17.37    2.61
 -16   2   0   15.05    2.44
  16  -2   1    1.53    1.88
 -16   2  -1    1.64    2.03
  16  -2   2    0.28    2.07
 -16   2  -2    0.74    1.78
  16  -2   3   -2.99    1.86
 -16   2  -3    2.36    1.94
  16  -2   4    0.50    1.96
 -16   2  -4    1.11    1.80
  16  -2   5    3.09    2.03
 -16   2  -5    1.15    1.89
  16  -2   6    0.98    1.96
 -16   2  -6    4.01    2.09
  16  -2   7    3.00    1.54
 -16   2  -7    1.91    2.06
  16  -2   8    7.52    2.09
 -16   2  -8    5.51    2.28
  16  -2   9    2.00    2.00
 -16   2  -9    0.95    2.05
 -16   2 -10    1.58    2.10
 -16   2 -11   -1.71    1.98
  15  -1 -11    0.49    2.26
  15  -1 -10    0.66    2.27
  15  -1  -9    3.24    2.27
  15  -1  -8    7.26    2.39
  15  -1  -7    7.88    2.27
  15  -1  -6    1.43    1.91
  15  -1  -5    4.95    2.17
  15  -1  -4    4.33    2.49
  15  -1  -3   -1.47    1.83
  15  -1  -2    0.68    1.86
  15  -1  -1   38.38    3.50
 -15   1   1   34.30    3.25
  15  -1   0   31.96    3.33
 -15   1   0   39.71    3.35
  15  -1   1   34.33    3.37
 -15   1  -1   35.48    3.42
  15  -1   2    1.13    2.11
 -15   1  -2   -0.53    1.78
  15  -1   3   -0.14    1.69
 -15   1  -3    2.04    1.83
  15  -1   4    3.66    2.13
 -15   1  -4    6.46    2.38
  15  -1   5    4.93    2.14
 -15   1  -5    0.06    1.75
  15  -1   6    0.65    1.89
 -15   1  -6    2.98    2.01
  15  -1   7   10.13    2.46
 -15   1  -7   11.74    2.44
  15  -1   8    7.03    2.24
 -15   1  -8    7.08    2.34
  15  -1   9    1.76    0.76
 -15   1  -9    3.15    2.23
  15  -1  10    4.23    1.96
 -15   1 -10    0.92    2.09
 -15   1 -11   -1.68    1.98
  14   0 -12   -0.33    2.35
  14   0 -11    0.78    2.25
  14   0 -10    1.05    2.09
  14   0  -9    7.93    2.38
  14   0  -8    2.36    2.13
  14   0  -7    9.24    2.31
  14   0  -6    4.29    2.12
  14   0  -5   13.35    2.53
  14   0  -4    1.07    2.03
  14   0  -3   -1.23    1.80
  14   0  -2    5.46    2.09
  14   0  -1   62.88    4.23
 -14   0   1   68.23    4.46
  14   0   0   25.25    3.00
 -14   0   0   21.15    2.63
  14   0   1   66.30    4.37
 -14   0  -1   50.92    3.79
  14   0   2    6.06    2.11
 -14   0  -2    8.16    2.04
  14   0   3    0.61    2.06
 -14   0  -3    1.19    1.88
  14   0   4   -2.23    1.59
 -14   0  -4    0.82    1.82
  14   0   5   10.35    2.19
 -14   0  -5   12.39    2.33
  14   0   6    2.11    1.78
 -14   0  -6    4.51    2.08
  14   0   7    8.84    2.13
 -14   0  -7    8.72    2.27
  14   0   8    4.53    2.13
 -14   0  -8    1.72    2.07
  14   0   9   12.25    2.67
 -14   0  -9    3.86    2.18
  14   0  10    2.04    1.94
 -14   0 -10    0.64    1.98
  14   0  11    1.77    0.74
 -14   0 -11    0.80    2.13
  13   1 -12    2.60    2.41
  13   1 -11   -1.42    2.38
  13   1 -10    4.04    2.28
  13   1  -9    1.73    2.07
  13   1  -8    7.33    2.20
  13   1  -7    1.04    2.16
  13   1  -6   43.53    3.80
  13   1  -5   -1.78    1.87
  13   1  -4    2.23    2.43
  13   1  -3    1.31    1.90
  13   1  -2   23.00    2.82
  13   1  -1    3.42    2.00
  13   1   0   54.15    3.86
 -13  -1   0   54.24    3.69
  13   1   1    1.33    1.81
 -13  -1  -1   -0.81    1.63
  13   1   2   25.62    2.92
 -13  -1  -2   25.54    2.77
  13   1   3   -0.51    2.06
 -13  -1  -3    0.74    1.84
  13   1   4    1.06    1.69
 -13  -1  -4    0.58    2.09
  13   1   5    0.06    1.60
 -13  -1  -5    1.37    1.83
  13   1   6   38.33    3.67
 -13  -1  -6   37.39    3.36
  13   1   7    0.67    1.71
 -13  -1  -7    1.84    1.90
  13   1   8    6.75    2.28
 -13  -1  -8    5.54    2.15
  13   1   9   -0.66    1.57
 -13  -1  -9   -1.01    1.85
  13   1  10    2.14    2.12
 -13  -1 -10    4.19    2.16
  13   1  11    1.76    1.78
 -13  -1 -11    1.96    2.48
  13   1  12    5.00    2.30
 -13  -1 -12    1.87    2.22
  12   2 -12   -0.36    2.13
  12   2 -11    2.62    2.23
  12   2 -10    2.12    2.13
  12   2  -9    0.40    1.87
  12   2  -8    2.35    1.94
  12   2  -7   23.29    2.95
  12   2  -6    3.52    2.10
  12   2  -5    2.01    2.10
  12   2  -4    2.03    2.02
  12   2  -3    0.91    1.88
  12   2  -2   -1.93    1.66
  12   2  -1   22.25    2.97
  12   2   0    3.05    1.90
 -12  -2   0    4.78    1.86
  12   2   1   15.65    2.47
 -12  -2  -1   20.63    2.70
  12   2   2   -1.07    1.67
 -12  -2  -2    0.92    1.68
  12   2   3   -3.20    1.58
 -12  -2  -3    2.02    1.75
  12   2   4    4.39    1.87
 -12  -2  -4    3.61    1.91
  12   2   5    3.41    1.89
 -12  -2  -5    2.29    1.91
  12   2   6   -0.48    1.84
 -12  -2  -6   -2.40    1.62
  12   2   7   21.22    2.84
 -12  -2  -7   21.29    2.94
  12   2   8    0.69    1.70
 -12  -2  -8   -1.38    1.73
  12   2   9   -0.18    1.62
 -12  -2  -9   -0.54    2.24
  12   2  10    3.62    2.20
 -12  -2 -10    1.00    2.00
  12   2  11    1.97    2.12
 -12  -2 -11   -0.27    2.03
  12   2  12    4.24    2.34
 -12  -2 -12    1.93    2.49
  11   3 -12    1.56    2.19
  11   3 -11    5.58    2.33
  11   3 -10   -0.70    2.28
  11   3  -9   12.96    2.47
  11   3  -8    7.76    2.21
  11   3  -7    0.08    1.94
  11   3  -6    7.85    2.28
  11   3  -5   11.09    2.36
  11   3  -4    1.83    1.89
  11   3  -3   19.20    2.58
  11   3  -2   -0.59    1.69
  11   3  -1    2.32    1.86
  11   3   0   47.62    3.51
 -11  -3   0   47.48    3.41
  11   3   1    1.67    2.06
 -11  -3  -1    1.86    1.68
  11   3   2    0.89    2.00
 -11  -3  -2    0.22    1.67
  11   3   3   19.04    2.85
 -11  -3  -3   17.41    2.32
  11   3   4    3.59    1.87
 -11  -3  -4    4.05    1.88
  11   3   5   10.32    2.26
 -11  -3  -5   12.78    2.34
  11   3   6    5.54    2.24
 -11  -3  -6    8.14    2.08
  11   3   7    3.23    1.82
 -11  -3  -7    0.92    1.83
  11   3   8    9.76    2.50
 -11  -3  -8    8.23    2.15
  11   3   9   11.32    2.65
 -11  -3  -9    8.45    2.30
  11   3  10   -0.26    1.99
 -11  -3 -10   -2.35    1.81
  11   3  11    9.17    2.41
 -11  -3 -11    6.56    2.32
  11   3  12    2.12    2.11
 -11  -3 -12   -0.30    2.40
  10   4 -13    4.95    2.43
  10   4 -12    2.19    2.14
  10   4 -11    6.20    2.25
  10   4 -10    6.44    2.17
  10   4  -9   11.40    2.36
  10   4  -8    2.74    1.97
  10   4  -7    9.42    2.28
  10   4  -6   -0.11    1.90
  10   4  -5   25.54    2.91
  10   4  -4   40.01    3.36
  10   4  -3   31.20    2.98
  10   4  -2   12.05    2.25
  10   4  -1   51.53    3.59
  10   4   0    1.72    1.66
  10   4   1   50.10    3.54
 -10  -4  -1   51.48    3.44
  10   4   2   11.96    2.21
 -10  -4  -2   11.95    2.10
  10   4   3   30.66    2.91
 -10  -4  -3   26.80    2.65
  10   4   4   42.69    3.39
 -10  -4  -4   44.08    3.23
  10   4   5   23.03    2.87
 -10  -4  -5   28.29    2.82
  10   4   6    0.82    1.72
 -10  -4  -6   -2.26    1.71
  10   4   7   10.46    2.31
 -10  -4  -7   13.33    2.29
  10   4   8    0.18    1.87
 -10  -4  -8    1.03    1.81
  10   4   9   13.62    2.56
 -10  -4  -9   18.10    2.85
  10   4  10   12.10    2.47
 -10  -4 -10    7.51    2.23
  10   4  11    6.47    2.50
 -10  -4 -11    5.89    2.47
  10   4  12    3.05    2.21
 -10  -4 -12    0.93    2.08
  10   4  13    2.49    2.34
 -10  -4 -13    3.02    2.19
   9   5 -13    2.00    2.15
   9   5 -12    6.36    2.24
   9   5 -11    3.98    2.05
   9   5 -10   17.35    2.67
   9   5  -9    0.86    1.87
   9   5  -8   10.37    2.33
   9   5  -7   12.46    2.46
   9   5  -6   22.60    2.87
   9   5  -5    3.10    1.93
   9   5  -4   51.04    3.59
   9   5  -3   33.73    3.28
   9   5  -2   67.20    4.03
   9   5  -1    8.37    2.04
   9   5   0   14.52    2.19
   9   5   1   11.07    2.25
  -9  -5  -1   10.73    2.03
   9   5   2   55.77    2.60
   9   5   2   68.18    3.91
  -9  -5  -2   64.03    3.68
   9   5   3   27.60    2.89
  -9  -5  -3   37.62    2.91
   9   5   4   48.49    3.50
  -9  -5  -4   46.87    3.26
   9   5   5    1.46    1.75
  -9  -5  -5    3.86    2.11
   9   5   6   21.33    2.84
  -9  -5  -6   25.92    2.68
   9   5   7   10.20    2.27
  -9  -5  -7   12.78    2.23
   9   5   8    7.17    2.28
  -9  -5  -8    8.01    2.29
   9   5   9    0.71    1.95
  -9  -5  -9    4.01    1.91
   9   5  10   19.84    3.08
  -9  -5 -10   13.75    2.48
   9   5  11    0.49    1.87
  -9  -5 -11    1.44    2.22
   9   5  12    7.25    2.33
  -9  -5 -12    5.19    2.20
   9   5  13    2.89    2.11
  -9  -5 -13    4.30    2.49
   8   6 -13    0.61    1.98
   8   6 -12    6.83    2.54
   8   6 -11    8.92    2.63
   8   6 -10    1.95    1.90
   8   6  -9    7.79    2.15
   8   6  -8    5.75    2.38
   8   6  -7    6.73    2.11
   8   6  -6    5.47    2.00
   8   6  -5   29.83    2.91
   8   6  -4    1.90    1.76
   8   6  -3  100.67    5.09
   8   6  -2    1.72    1.95
   8   6  -1   22.61    2.55
   8   6   0   68.91    3.18
   8   6   0   68.11    3.97
   8   6   1   24.58    2.57
   8   6   1   20.65    1.63
   8   6   2   -1.01    0.78
   8   6   2    3.13    1.63
  -8  -6  -2    3.68    1.71
   8   6   3   88.01    4.73
  -8  -6  -3   93.51    4.60
   8   6   4    2.38    1.66
  -8  -6  -4    5.43    1.76
   8   6   5   29.20    3.03
  -8  -6  -5   27.69    2.68
   8   6   6    1.40    1.78
  -8  -6  -6    7.13    1.98
   8   6   7    5.68    2.03
  -8  -6  -7    5.83    1.95
   8   6   8    4.88    2.00
  -8  -6  -8    8.30    2.27
   8   6   9    6.12    2.39
  -8  -6  -9    6.13    2.25
   8   6  10    2.72    1.98
  -8  -6 -10    0.77    2.10
   8   6  11    8.47    2.46
  -8  -6 -11   10.22    2.27
   8   6  12    5.06    2.17
  -8  -6 -12   -1.93    1.73
   8   6  13    4.64    2.53
  -8  -6 -13   -3.12    2.09
   7   7 -13    2.54    2.37
   7   7 -12   -0.45    2.22
   7   7 -11    2.35    2.26
   7   7 -10    4.87    2.05
   7   7  -9    2.31    1.90
   7   7  -8   -1.07    1.64
   7   7  -7    6.43    1.98
   7   7  -6    0.73    1.77
   7   7  -5    6.31    2.21
   7   7  -4   52.71    3.54
   7   7  -3   18.93    2.43
   7   7  -2    7.04    1.89
   7   7  -2    4.24    1.52
   7   7  -1   22.40    2.52
   7   7  -1   26.88    2.12
   7   7   0   29.69    2.08
   7   7   0   31.65    2.86
   7   7   1   25.63    2.60
   7   7   1   21.69    1.73
   7   7   2    8.25    1.13
   7   7   2    6.32    2.09
  -7  -7  -2    3.86    1.70
   7   7   3   17.05    2.40
  -7  -7  -3   20.91    2.35
   7   7   4   49.68    3.77
  -7  -7  -4   51.97    3.35
   7   7   5    2.84    1.82
  -7  -7  -5    2.04    1.61
   7   7   6    0.03    1.71
  -7  -7  -6    1.32    1.62
   7   7   7    8.24    2.12
  -7  -7  -7   10.28    2.25
   7   7   8    0.97    1.68
  -7  -7  -8    0.72    1.62
   7   7   9    3.29    1.94
  -7  -7  -9    0.34    1.60
   7   7  10    3.03    2.00
  -7  -7 -10    4.32    2.13
   7   7  11    4.52    2.41
  -7  -7 -11    4.79    1.95
   7   7  12    1.14    1.89
  -7  -7 -12   -1.04    1.72
   7   7  13    1.25    2.40
  -7  -7 -13   -3.16    2.05
   6   8 -13   -0.42    2.23
   6   8 -13   -1.23    2.18
   6   8 -12    3.41    2.30
   6   8 -12    3.00    2.16
   6   8 -11    9.90    2.49
   6   8 -11    9.38    2.38
   6   8 -10   -0.85    1.80
   6   8 -10    0.89    2.14
   6   8  -9    7.36    2.04
   6   8  -8    7.51    2.21
   6   8  -7    8.46    2.05
   6   8  -6    6.54    1.90
   6   8  -6    2.25    1.73
   6   8  -5   32.89    2.90
   6   8  -5   31.01    2.93
   6   8  -4    3.54    1.79
   6   8  -4    3.72    1.61
   6   8  -3   92.89    4.60
   6   8  -3   92.35    4.70
   6   8  -2    1.87    1.01
   6   8  -2   -1.32    1.50
   6   8  -1   24.22    2.13
   6   8  -1   24.28    2.51
   6   8   0   61.57    3.13
   6   8   0   69.88    3.86
   6   8   1   17.06    2.25
   6   8   1   22.35    1.80
   6   8   2    2.11    1.01
   6   8   2    4.57    1.70
   6   8   3   89.36    4.68
  -6  -8  -3   91.35    4.48
   6   8   4   -0.13    1.83
  -6  -8  -4    1.86    1.53
   6   8   5   28.99    3.13
  -6  -8  -5   26.68    2.59
   6   8   6    3.96    1.89
  -6  -8  -6    5.10    1.98
   6   8   7    6.99    2.10
  -6  -8  -7    6.11    1.78
   6   8   8    3.46    1.88
  -6  -8  -8    5.43    1.77
   6   8   9    8.33    2.16
  -6  -8  -9    5.51    1.85
   6   8  10    0.03    1.75
  -6  -8 -10   -1.84    1.86
   6   8  11    9.05    2.48
  -6  -8 -11    8.73    2.35
   6   8  12    2.55    2.37
  -6  -8 -12    1.39    2.08
   6   8  13    1.41    2.26
  -6  -8 -13    0.91    2.08
   5   9 -13    2.51    2.37
   5   9 -12    3.79    2.28
   5   9 -12    2.44    2.17
   5   9 -11    0.96    2.09
   5   9 -11    2.69    2.17
   5   9 -10   22.31    2.90
   5   9 -10   17.00    2.84
   5   9  -9    2.25    1.94
   5   9  -9    1.65    1.96
   5   9  -8   10.64    2.28
   5   9  -8    5.92    2.09
   5   9  -7    8.31    2.11
   5   9  -7   12.65    2.36
   5   9  -6   25.88    2.72
   5   9  -6   21.36    2.61
   5   9  -5    2.23    2.01
   5   9  -5    5.10    1.82
   5   9  -4   57.47    3.58
   5   9  -4   59.08    3.77
   5   9  -3   32.46    2.66
   5   9  -3   34.55    3.08
   5   9  -2   66.39    3.80
   5   9  -1   14.13    2.13
   5   9  -1   13.13    1.77
   5   9   0   12.27    1.69
   5   9   0   14.28    2.08
   5   9   1   10.36    1.50
   5   9   1    8.48    1.91
   5   9   2   61.90    3.03
   5   9   2   63.55    3.75
   5   9   3   28.84    2.75
   5   9   3   26.23    1.98
   5   9   4   50.09    3.57
  -5  -9  -4   58.08    3.59
   5   9   5    3.92    2.07
  -5  -9  -5    3.48    1.84
   5   9   6   19.00    2.62
  -5  -9  -6   25.02    2.46
   5   9   7   13.34    2.40
  -5  -9  -7    8.25    1.81
   5   9   8   10.19    2.25
  -5  -9  -8    7.86    1.78
   5   9   9    5.03    2.22
  -5  -9  -9    4.65    2.01
   5   9  10   12.35    2.54
  -5  -9 -10   16.17    2.46
   5   9  11   -0.68    1.79
  -5  -9 -11    5.23    2.12
   5   9  12    5.83    2.29
  -5  -9 -12    5.43    2.20
   5   9  13    3.81    2.28
   4  10 -13    2.96    2.30
   4  10 -12    5.56    2.39
   4  10 -11    2.41    1.99
   4  10 -11    4.23    2.32
   4  10 -10    8.01    2.40
   4  10 -10   10.67    2.34
   4  10  -9   16.71    2.55
   4  10  -9   15.35    2.69
   4  10  -8   -1.01    1.79
   4  10  -8    1.47    1.85
   4  10  -7    9.50    2.25
   4  10  -7   14.14    2.21
   4  10  -6    1.12    2.10
   4  10  -6    1.88    1.65
   4  10  -5   28.52    2.81
   4  10  -5   27.45    2.72
   4  10  -4   46.83    3.17
   4  10  -4   42.99    3.19
   4  10  -3   33.65    2.85
   4  10  -3   35.47    2.95
   4  10  -2   13.48    2.07
   4  10  -2    8.24    1.55
   4  10  -1   51.16    3.50
   4  10  -1   48.92    2.85
   4  10   0   -0.89    1.48
   4  10   0   -0.84    1.18
   4  10   1   48.13    3.25
   4  10   1   49.87    2.75
   4  10   2   15.45    2.16
   4  10   2   13.21    1.74
   4  10   3   27.87    2.16
   4  10   3   25.47    2.64
   4  10   4   42.60    3.29
   4  10   5   23.36    2.73
  -4 -10  -5   26.25    2.62
   4  10   6    0.94    1.71
  -4 -10  -6    0.68    1.69
   4  10   7   10.75    2.23
  -4 -10  -7   12.76    2.13
   4  10   8    1.25    1.73
  -4 -10  -8   -0.43    1.61
   4  10   9   11.50    2.41
  -4 -10  -9   12.75    2.12
   4  10  10   12.36    2.53
  -4 -10 -10   11.37    2.20
   4  10  11    3.08    2.12
  -4 -10 -11    6.13    2.08
   4  10  12    1.28    1.89
   4  10  13    1.17    2.02
   3  11 -12   -0.28    2.10
   3  11 -11    7.91    2.55
   3  11 -10   -2.51    1.87
   3  11 -10    0.78    1.83
   3  11  -9    9.26    2.47
   3  11  -9   14.33    2.38
   3  11  -8    7.74    2.05
   3  11  -8    8.87    2.32
   3  11  -7    1.35    2.21
   3  11  -7    2.56    1.82
   3  11  -6    4.75    1.98
   3  11  -6    4.22    1.98
   3  11  -5   12.73    2.25
   3  11  -5   12.61    2.24
   3  11  -4    2.32    1.62
   3  11  -4    2.35    1.96
   3  11  -3   18.40    2.27
   3  11  -3   22.28    2.58
   3  11  -2    0.63    1.74
   3  11  -2    0.16    1.36
   3  11  -1    3.60    1.48
   3  11  -1    3.69    1.62
   3  11   0   50.27    2.97
   3  11   0   43.57    3.14
   3  11   1    2.27    1.45
   3  11   1    1.90    1.79
   3  11   2   -0.47    1.35
   3  11   2   -0.99    1.46
   3  11   3   16.11    2.26
   3  11   3   15.89    1.89
   3  11   4    0.11    1.58
   3  11   5   10.14    2.18
   3  11   6    5.37    2.13
  -3 -11  -6    7.72    1.88
   3  11   7    4.40    1.84
  -3 -11  -7    4.14    1.75
   3  11   8    9.48    2.26
  -3 -11  -8    7.67    1.89
   3  11   9   11.37    2.42
  -3 -11  -9    9.02    1.98
   3  11  10    1.46    2.09
  -3 -11 -10    3.55    1.76
   3  11  11    6.15    2.26
   3  11  12    2.68    2.51
   2  12 -12    1.16    2.28
   2  12 -11    3.69    2.26
   2  12 -10    1.81    2.16
   2  12  -9   -1.01    1.70
   2  12  -9   -0.56    1.96
   2  12  -8    2.02    1.75
   2  12  -8   -0.98    1.87
   2  12  -7   24.10    2.63
   2  12  -7   22.64    2.89
   2  12  -6   -0.73    1.61
   2  12  -6   -2.86    1.65
   2  12  -5    3.31    1.84
   2  12  -5    1.30    1.52
   2  12  -4    3.27    1.80
   2  12  -4    4.52    1.86
   2  12  -3    1.51    1.50
   2  12  -3    2.72    1.67
   2  12  -2   -3.09    1.59
   2  12  -2   -1.67    1.57
   2  12  -1   17.76    2.39
   2  12   0    2.38    1.54
   2  12   0    1.90    1.55
   2  12   1   21.14    2.18
   2  12   1   17.74    2.27
   2  12   2    0.67    1.49
   2  12   2   -1.11    1.38
   2  12   3    1.56    1.55
   2  12   3    0.68    1.65
   2  12   4    1.89    1.49
   2  12   4    3.19    1.72
   2  12   5    3.78    1.86
   2  12   6   -0.67    1.93
   2  12   7   22.23    2.99
  -2 -12  -7   26.11    2.50
   2  12   8   -1.54    1.53
  -2 -12  -8    1.34    1.54
   2  12   9    2.12    1.83
  -2 -12  -9   -1.45    1.63
   2  12  10    0.32    1.84
   2  12  11   -0.94    2.20
   2  12  12   -1.95    2.08
   1  13 -12    2.54    2.41
   1  13 -11   -0.66    2.11
   1  13 -10    3.04    2.28
   1  13  -9   -1.11    1.93
   1  13  -8    5.52    2.27
   1  13  -8    8.01    1.92
   1  13  -7    0.43    1.87
   1  13  -7   -1.72    1.52
   1  13  -6   40.17    3.07
   1  13  -6   38.69    3.45
   1  13  -5    1.12    1.82
   1  13  -5    2.50    1.65
   1  13  -4   -1.71    1.56
   1  13  -4    0.26    1.75
   1  13  -3   -0.74    1.54
   1  13  -3    1.05    1.69
   1  13  -2   26.57    2.66
   1  13  -2   29.10    2.70
   1  13  -1   -1.86    1.34
   1  13  -1   -0.12    1.36
   1  13   0   58.29    3.68
   1  13   0   50.60    3.13
   1  13   1   -2.73    1.49
   1  13   1    0.66    1.51
   1  13   2   24.57    2.76
   1  13   2   24.21    2.52
   1  13   3   -0.06    1.50
   1  13   3    0.22    1.57
   1  13   4    2.02    1.71
   1  13   4   -0.51    1.43
   1  13   5    2.26    1.77
   1  13   6   33.12    3.20
   1  13   7   -0.19    1.60
   1  13   8    3.06    2.09
   1  13   9    0.66    1.77
   1  13  10    4.81    2.12
   1  13  11    1.29    1.95
   1  13  12    4.03    2.57
   0  14 -11    3.53    2.37
   0  14 -10    3.00    2.39
   0  14  -9    4.95    2.31
   0  14  -8    2.80    2.20
   0  14  -7   16.11    2.21
   0  14  -7   16.55    2.72
   0  14  -6    5.00    2.45
   0  14  -6    7.14    1.81
   0  14  -5   13.76    2.03
   0  14  -5   14.47    2.41
   0  14  -4   -1.62    1.66
   0  14  -4    0.46    1.48
   0  14  -3   -1.65    1.30
   0  14  -3   -0.61    1.62
   0  14  -2    9.27    1.97
   0  14  -2    6.21    1.86
   0  14  -1   55.95    3.59
   0  14  -1   50.16    3.36
   0  14   0   20.13    2.56
   0  14   1   55.32    3.72
   0  14   1   64.34    3.97
   0  14   2    7.29    2.12
   0  14   2    6.49    1.94
   0  14   3    0.14    1.58
   0  14   3   -1.09    1.83
   0  14   4    1.94    1.55
   0  14   4   -2.64    1.47
   0  14   5   12.55    2.44
   0  14   6    1.27    1.72
   0  14   7   11.52    2.32
   0  14   8    2.68    1.86
   0  14   9   10.84    2.47
   0  14  10    1.41    1.84
   0  14  11    1.88    1.94
  -1  15 -11   -1.42    2.20
  -1  15 -10   -1.63    2.21
  -1  15  -9    6.48    2.54
  -1  15  -8    6.48    2.48
  -1  15  -7    8.27    2.40
  -1  15  -6    1.52    1.56
  -1  15  -6    1.06    1.85
  -1  15  -5    2.93    1.94
  -1  15  -5    2.04    1.49
  -1  15  -4    2.81    1.82
  -1  15  -4    3.84    1.61
  -1  15  -3    4.94    1.86
  -1  15  -3    3.22    1.60
  -1  15  -2    0.54    1.91
  -1  15  -2    2.63    1.72
  -1  15  -1   34.24    2.94
  -1  15  -1   32.28    2.90
  -1  15   0   35.55    2.98
  -1  15   0   34.45    2.99
  -1  15   1   17.65    2.06
  -1  15   2   -0.59    1.55
  -1  15   2   -0.87    1.77
  -1  15   3    2.12    1.76
  -1  15   3    0.72    1.57
  -1  15   4    3.11    1.73
  -1  15   4    3.63    1.71
  -1  15   5    3.70    1.76
  -1  15   6    1.65    1.72
  -1  15   7   10.10    2.23
  -1  15   8    7.49    2.52
  -1  15   9    4.39    2.09
  -1  15  10    1.16    2.33
  -1  15  11    0.47    1.88
  -2  16 -11    2.65    2.56
  -2  16 -10   -0.51    2.31
  -2  16  -9    0.83    2.24
  -2  16  -8    6.20    2.83
  -2  16  -7    0.01    2.09
  -2  16  -6   -0.62    1.96
  -2  16  -5    0.39    1.83
  -2  16  -4    0.90    1.79
  -2  16  -4    2.07    1.63
  -2  16  -3    0.00    1.65
  -2  16  -3    4.44    1.90
  -2  16  -2    2.39    1.63
  -2  16  -2   -0.47    1.87
  -2  16  -1    4.05    1.78
  -2  16  -1    2.52    1.77
  -2  16   0   16.41    2.37
  -2  16   0   16.22    2.32
  -2  16   1    0.96    1.80
  -2  16   1   -0.03    1.83
  -2  16   2    0.63    1.53
  -2  16   2    5.63    2.10
  -2  16   3    4.09    1.76
  -2  16   3    0.23    1.76
  -2  16   4    6.40    2.12
  -2  16   4    2.64    1.78
  -2  16   5    1.63    1.65
  -2  16   5    0.35    1.57
  -2  16   6    4.33    2.12
  -2  16   7    5.21    2.03
  -2  16   8    4.08    2.12
  -2  16   9    0.14    1.81
  -2  16  10    2.99    2.39
  -2  16  11   -1.55    2.22
  -3  17 -10    2.66    2.52
  -3  17  -9   -0.36    2.20
  -3  17  -8    1.98    2.31
  -3  17  -7    5.00    2.33
  -3  17  -6    4.52    2.13
  -3  17  -5    3.37    2.03
  -3  17  -4    1.94    1.85
  -3  17  -3    6.55    2.05
  -3  17  -3    4.32    1.63
  -3  17  -2   14.28    2.16
  -3  17  -2   13.17    2.32
  -3  17  -1    6.07    1.90
  -3  17  -1    4.00    1.90
  -3  17   0    1.02    1.71
  -3  17   0   -1.19    1.55
  -3  17   1    4.50    1.89
  -3  17   1    5.26    2.23
  -3  17   2    3.25    1.40
  -3  17   2   16.32    2.43
  -3  17   3    1.29    2.02
  -3  17   3    6.72    1.88
  -3  17   4   -0.11    1.56
  -3  17   4    1.71    1.84
  -3  17   5    4.79    1.94
  -3  17   5    2.80    1.78
  -3  17   6    3.65    1.89
  -3  17   7    3.82    1.97
  -3  17   8    2.02    1.96
  -3  17   9   -1.15    1.82
  -3  17  10    9.18    2.74
  -4  18  -9    9.26    2.76
  -4  18  -8    2.56    2.32
  -4  18  -7    0.16    2.16
  -4  18  -6    5.73    2.25
  -4  18  -5    5.12    2.25
  -4  18  -4    2.05    2.23
  -4  18  -3   16.98    2.57
  -4  18  -2    0.74    1.66
  -4  18  -2    2.69    1.92
  -4  18  -1   -0.71    2.06
  -4  18  -1    3.17    1.73
  -4  18   0   12.53    2.38
  -4  18   0   11.04    2.13
  -4  18   1    5.39    2.35
  -4  18   1    2.43    1.81
  -4  18   2    1.88    1.60
  -4  18   2    1.63    2.15
  -4  18   3   29.17    3.11
  -4  18   4   -0.97    1.89
  -4  18   4    0.82    1.97
  -4  18   5    9.10    2.44
  -4  18   5    5.71    2.03
  -4  18   6    9.17    2.51
  -4  18   7    0.58    1.83
  -4  18   8    1.38    1.97
  -4  18   9    7.67    2.39
  -5  19  -8    0.29    2.12
  -5  19  -7    3.32    2.36
  -5  19  -6    1.02    2.14
  -5  19  -5    7.93    2.41
  -5  19  -4   12.06    2.48
  -5  19  -3    4.10    2.15
  -5  19  -2    2.86    2.03
  -5  19  -1    8.28    2.35
  -5  19  -1    5.24    1.78
  -5  19   0    4.06    1.99
  -5  19   0    0.57    1.66
  -5  19   1   10.40    2.38
  -5  19   1    9.33    2.16
  -5  19   2    4.54    2.30
  -5  19   2    2.79    1.96
  -5  19   3    4.54    2.06
  -5  19   3    6.86    2.38
  -5  19   4   10.80    2.33
  -5  19   5    7.99    2.35
  -5  19   5    7.49    2.18
  -5  19   6    1.49    1.89
  -5  19   7    3.30    1.99
  -5  19   8    0.52    2.29
  -6  20  -7   -2.08    2.01
  -6  20  -6    0.65    2.19
  -6  20  -5    2.77    2.56
  -6  20  -4    6.89    2.38
  -6  20  -3    5.68    2.31
  -6  20  -2    1.17    2.06
  -6  20  -1   -0.64    1.85
  -6  20   0    0.82    1.98
  -6  20   0    1.04    1.67
  -6  20   1    2.34    1.87
  -6  20   1    0.01    1.88
  -6  20   2    1.84    1.71
  -6  20   2    6.19    2.20
  -6  20   3    7.03    2.28
  -6  20   3    5.55    2.48
  -6  20   4    6.39    2.39
  -6  20   4    9.26    2.64
  -6  20   5   -0.22    1.77
  -6  20   5    2.63    0.90
  -6  20   6    2.75    2.03
  -6  20   7   -0.17    2.18
  -7  21  -6   -2.29    2.01
  -7  21  -5    1.05    2.26
  -7  21  -4    2.26    2.27
  -7  21  -3    5.03    2.29
  -7  21  -2   -2.17    1.94
  -7  21  -1    0.12    1.96
  -7  21   0   -2.87    1.80
  -7  21   1    0.89    1.76
  -7  21   1   -1.00    1.90
  -7  21   2    2.45    2.39
  -7  21   2    1.08    1.89
  -7  21   3   10.06    2.66
  -7  21   3   11.32    2.45
  -7  21   4    1.79    1.91
  -7  21   4    0.31    2.06
  -7  21   5    2.44    1.99
  -7  21   5    0.17    1.78
  -7  21   6   -1.00    2.17
  -8  22  -5   -2.93    2.06
  -8  22  -4    4.86    2.50
  -8  22  -3    4.44    2.81
  -8  22  -2    2.54    2.16
  -8  22  -1    0.06    2.41
  -8  22   0   -2.99    2.29
  -8  22   1    5.45    2.30
  -8  22   2   -2.19    1.95
  -8  22   3    0.18    1.98
  -8  22   3    5.49    2.64
  -8  22   4    6.72    2.70
  -8  22   4    4.93    2.35
  -9  23  -2    2.18    2.28
  -9  23  -1    5.35    2.41
  -9  23   0    2.67    2.24
  -9  23   1    4.11    2.29
  23  -8   0    4.13    2.43
  22  -7  -4   -1.73    2.43
  22  -7  -3    1.91    2.59
  22  -7  -2   -2.68    2.20
 -22   7   2   -0.83    1.61
  22  -7  -1   -1.25    2.22
 -22   7   1   -2.54    1.72
 -22   7   1    1.77    2.29
  22  -7   0    4.83    2.49
 -22   7   0    0.66    2.01
  22  -7   1    1.14    1.95
 -22   7  -1    2.35    2.35
  22  -7   2   -3.75    2.04
 -22   7  -2    0.88    2.01
 -22   7  -3   -0.53    2.05
 -22   7  -4   -3.71    2.31
  21  -6  -6    1.07    2.26
  21  -6  -5    0.58    2.17
  21  -6  -4   -1.31    2.13
  21  -6  -3    1.39    2.59
  21  -6  -2   -2.42    2.27
  21  -6  -1    1.44    2.36
 -21   6   1   -0.45    1.81
 -21   6   1    2.36    2.30
  21  -6   0    5.90    2.59
 -21   6   0    6.10    2.21
  21  -6   1    0.31    1.87
 -21   6  -1   -1.32    2.16
  21  -6   2    1.32    2.21
 -21   6  -2   -0.36    1.87
  21  -6   3    1.85    2.21
 -21   6  -3    0.54    2.34
  21  -6   4    3.52    1.78
 -21   6  -4    3.47    2.24
 -21   6  -5   -0.57    2.40
 -21   6  -6    0.02    2.14
  20  -5  -7   -3.79    1.88
  20  -5  -6    4.60    2.37
  20  -5  -5    2.67    2.28
  20  -5  -4   -2.61    1.99
  20  -5  -3    7.40    2.85
  20  -5  -2   -2.98    2.19
  20  -5  -1    0.59    2.35
 -20   5   1   -1.00    2.12
  20  -5   0    3.59    2.05
 -20   5   0    6.78    2.46
 -20   5   0    5.32    1.87
  20  -5   1    1.06    2.23
 -20   5  -1   -0.02    2.18
  20  -5   2   -0.36    2.15
 -20   5  -2    0.20    1.89
  20  -5   3   12.40    2.79
 -20   5  -3   12.24    2.87
  20  -5   4   -1.55    1.97
 -20   5  -4    1.08    2.10
  20  -5   5    3.83    1.95
 -20   5  -5   -1.24    2.00
 -20   5  -6    1.81    2.17
 -20   5  -7    0.47    2.57
  19  -4  -8    5.35    2.48
  19  -4  -7    2.43    2.32
  19  -4  -6    2.87    2.27
  19  -4  -5    1.17    2.07
  19  -4  -4   15.33    2.94
  19  -4  -3    8.05    2.50
  19  -4  -2    2.15    2.01
  19  -4  -1    3.26    2.06
 -19   4   1    2.98    2.32
  19  -4   0    3.77    2.38
 -19   4   0    6.47    2.14
  19  -4   1    6.68    2.24
 -19   4  -1    6.18    2.14
  19  -4   2    1.76    2.00
 -19   4  -2    4.12    2.13
  19  -4   3    4.03    2.44
 -19   4  -3    0.14    2.06
  19  -4   4   10.76    2.70
 -19   4  -4   12.55    2.96
  19  -4   5    0.31    1.76
 -19   4  -5   -0.89    2.32
  19  -4   6    1.88    1.88
 -19   4  -6    0.70    2.12
 -19   4  -7   -2.16    2.41
 -19   4  -8    0.40    2.23
  18  -3  -9   -2.36    2.04
  18  -3  -8   -0.13    2.41
  18  -3  -7    2.84    2.29
  18  -3  -6    3.72    2.67
  18  -3  -5    0.83    2.12
  18  -3  -4    9.44    2.49
  18  -3  -3    2.01    2.45
  18  -3  -2    1.65    2.02
  18  -3  -1    3.86    2.06
 -18   3   1   -0.21    2.05
  18  -3   0    2.73    2.37
 -18   3   0    3.40    1.99
  18  -3   1    6.84    2.21
 -18   3  -1    3.82    2.01
  18  -3   2    5.31    2.18
 -18   3  -2    3.82    2.03
  18  -3   3    2.95    2.25
 -18   3  -3    2.61    2.01
  18  -3   4    6.13    2.43
 -18   3  -4    7.43    2.29
  18  -3   5    4.48    2.25
 -18   3  -5    4.24    2.18
  18  -3   6    1.58    1.79
 -18   3  -6    2.62    2.47
  18  -3   7    3.30    1.78
 -18   3  -7    1.41    2.16
 -18   3  -8    2.11    2.57
 -18   3  -9    1.88    2.27
  17  -2 -10   -0.11    2.23
  17  -2  -9    0.56    2.09
  17  -2  -8    0.73    2.07
  17  -2  -7    4.05    2.22
  17  -2  -6   15.64    2.88
  17  -2  -5   -2.85    2.24
  17  -2  -4    1.69    2.08
  17  -2  -3    6.42    2.51
  17  -2  -2    1.90    2.03
  17  -2  -1   -0.64    1.83
 -17   2   1   -2.05    1.97
  17  -2   0    1.64    1.92
 -17   2   0    2.18    1.83
  17  -2   1    1.26    2.17
 -17   2  -1   -0.86    1.72
  17  -2   2    4.99    2.36
 -17   2  -2    1.76    1.84
  17  -2   3    4.03    2.29
 -17   2  -3    4.60    2.05
  17  -2   4    6.42    2.40
 -17   2  -4    4.27    2.12
  17  -2   5    1.73    2.12
 -17   2  -5    0.23    1.92
  17  -2   6    9.95    2.60
 -17   2  -6    8.16    2.44
  17  -2   7    5.17    2.27
 -17   2  -7    2.98    2.14
  17  -2   8    2.13    0.87
 -17   2  -8   -1.17    2.03
 -17   2  -9    0.56    2.24
 -17   2 -10   -1.63    2.08
  16  -1 -10    0.75    2.23
  16  -1  -9    0.27    2.14
  16  -1  -8    6.46    2.34
  16  -1  -7   10.69    2.67
  16  -1  -6   -2.42    1.83
  16  -1  -5   -0.24    2.10
  16  -1  -4   -2.13    1.79
  16  -1  -3    0.65    1.88
  16  -1  -2    2.88    2.28
  16  -1  -1   12.08    2.51
 -16   1   1   12.98    2.58
  16  -1   0    6.14    2.22
 -16   1   0    5.22    2.04
  16  -1   1   11.72    2.42
 -16   1  -1   10.50    2.32
  16  -1   2   -0.82    2.05
 -16   1  -2    1.61    2.08
  16  -1   3    0.34    1.68
 -16   1  -3    0.75    1.85
  16  -1   4   -1.82    1.66
 -16   1  -4   -2.25    1.71
  16  -1   5   -1.23    1.81
 -16   1  -5    2.40    2.01
  16  -1   6   -1.39    1.61
 -16   1  -6   -3.39    1.69
  16  -1   7   11.86    2.64
 -16   1  -7   13.74    2.74
  16  -1   8    5.65    2.32
 -16   1  -8    7.03    2.34
  16  -1   9    2.35    1.59
 -16   1  -9   -0.83    2.04
 -16   1 -10   -4.46    1.96
  15   0 -11    1.74    2.36
  15   0 -10   -3.31    1.99
  15   0  -9    3.39    2.23
  15   0  -8   20.33    3.11
  15   0  -7   -1.91    2.21
  15   0  -6    1.43    2.36
  15   0  -5    2.23    2.07
  15   0  -4    6.41    2.23
  15   0  -3    0.56    1.84
  15   0  -2    5.37    2.10
  15   0  -1   -1.05    1.84
 -15   0   1    3.83    2.29
  15   0   0  108.46    5.64
 -15   0   0  102.13    5.38
  15   0   1   -3.84    2.03
 -15   0  -1    2.87    1.86
  15   0   2    5.59    2.05
 -15   0  -2    3.16    2.14
  15   0   3   -1.46    2.03
 -15   0  -3    0.07    1.79
  15   0   4    2.12    2.18
 -15   0  -4    8.08    2.20
  15   0   5    2.91    2.14
 -15   0  -5    1.55    1.87
  15   0   6   -0.04    1.59
 -15   0  -6    1.59    2.26
  15   0   7    1.31    2.08
 -15   0  -7    0.37    2.33
  15   0   8   20.78    3.21
 -15   0  -8   19.13    2.96
  15   0   9    0.20    1.94
 -15   0  -9   -0.29    2.04
  15   0  10    0.50    2.05
 -15   0 -10   -1.13    2.02
 -15   0 -11   -3.28    1.98
  14   1 -11    0.71    2.17
  14   1 -10    0.80    2.09
  14   1  -9    2.39    2.50
  14   1  -8   11.92    2.84
  14   1  -7    7.58    2.33
  14   1  -6    5.71    2.24
  14   1  -5   -0.44    1.91
  14   1  -4    3.29    2.04
  14   1  -3    0.74    1.90
  14   1  -2    1.27    1.96
  14   1  -1   36.34    3.45
  14   1   0   36.32    3.52
 -14  -1   0   38.26    3.61
  14   1   1   24.51    3.02
 -14  -1  -1   32.86    3.16
  14   1   2   -0.96    1.84
 -14  -1  -2    0.26    1.72
  14   1   3   -0.14    1.75
 -14  -1  -3    0.07    1.75
  14   1   4    3.19    1.91
 -14  -1  -4    3.40    1.97
  14   1   5   -0.27    1.67
 -14  -1  -5    0.77    1.88
  14   1   6    1.48    1.70
 -14  -1  -6    2.56    1.99
  14   1   7    9.53    2.54
 -14  -1  -7   11.85    2.38
  14   1   8    7.23    2.44
 -14  -1  -8    7.87    2.67
  14   1   9    3.50    2.21
 -14  -1  -9    3.38    2.54
  14   1  10    2.64    2.22
 -14  -1 -10   -1.16    2.00
  14   1  11   -0.73    1.95
 -14  -1 -11   -2.28    2.02
  13   2 -11   -1.28    2.09
  13   2 -10    0.50    2.03
  13   2  -9   -0.02    1.99
  13   2  -8   -0.72    2.33
  13   2  -7    9.58    2.46
  13   2  -6   14.46    2.71
  13   2  -5    2.81    2.02
  13   2  -4    8.37    2.31
  13   2  -3    2.40    1.88
  13   2  -2    7.58    2.25
  13   2  -1   17.86    2.77
  13   2   0    1.48    1.85
 -13  -2   0   -0.94    1.65
  13   2   1   16.85    2.68
 -13  -2  -1   19.49    2.62
  13   2   2    8.57    2.34
 -13  -2  -2   13.76    2.33
  13   2   3    0.18    1.80
 -13  -2  -3    4.86    1.95
  13   2   4    4.30    2.00
 -13  -2  -4    6.63    2.06
  13   2   5    1.02    1.79
 -13  -2  -5    2.11    1.85
  13   2   6   13.38    2.50
 -13  -2  -6   14.96    2.49
  13   2   7    9.81    2.32
 -13  -2  -7   11.37    2.42
  13   2   8   -1.90    1.88
 -13  -2  -8    0.97    1.97
  13   2   9    4.58    2.37
 -13  -2  -9    1.74    2.10
  13   2  10    2.03    1.81
 -13  -2 -10    1.35    2.10
  13   2  11    2.75    2.17
 -13  -2 -11   -1.13    1.98
  12   3 -12    1.01    2.18
  12   3 -11    1.29    2.09
  12   3 -10    2.02    2.12
  12   3  -9    1.85    2.46
  12   3  -8    0.44    1.97
  12   3  -7    0.53    2.28
  12   3  -6    9.40    2.46
  12   3  -5    7.62    2.23
  12   3  -4   19.43    2.76
  12   3  -3    3.81    1.96
  12   3  -2    2.70    2.30
  12   3  -1    2.95    2.05
  12   3   0    5.34    2.07
 -12  -3   0    5.13    1.99
  12   3   1    3.51    2.34
 -12  -3  -1    2.91    1.82
  12   3   2    2.13    1.88
 -12  -3  -2    3.52    2.27
  12   3   3    4.71    2.02
 -12  -3  -3    4.16    1.91
  12   3   4   21.08    2.78
 -12  -3  -4   17.93    2.51
  12   3   5    6.59    2.08
 -12  -3  -5    8.11    2.16
  12   3   6   11.26    2.52
 -12  -3  -6    7.38    2.15
  12   3   7   -2.04    1.83
 -12  -3  -7   -3.75    1.99
  12   3   8    0.19    1.74
 -12  -3  -8    4.50    2.29
  12   3   9   -2.52    1.88
 -12  -3  -9    7.98    2.52
  12   3  10    3.10    1.98
 -12  -3 -10    2.95    2.09
  12   3  11    1.60    1.89
 -12  -3 -11   -0.48    2.32
  12   3  12   -2.35    1.98
 -12  -3 -12   -1.95    2.04
  11   4 -12    2.85    2.60
  11   4 -11    1.13    2.04
  11   4 -10    4.48    2.54
  11   4  -9    1.55    2.00
  11   4  -8   10.44    2.76
  11   4  -7    4.22    2.11
  11   4  -6   -0.48    1.82
  11   4  -5    0.56    1.86
  11   4  -4   49.49    3.71
  11   4  -3   15.43    2.57
  11   4  -2    2.09    1.95
  11   4  -1    4.79    2.02
  11   4   0   33.61    3.16
  11   4   1    5.80    2.03
 -11  -4  -1    7.33    2.03
  11   4   2   -1.05    2.07
 -11  -4  -2   -1.35    1.69
  11   4   3    9.36    2.17
 -11  -4  -3   13.54    2.32
  11   4   4   42.05    3.79
 -11  -4  -4   42.93    3.30
  11   4   5   -2.14    1.60
 -11  -4  -5   -2.32    1.66
  11   4   6    0.52    1.67
 -11  -4  -6    1.29    1.82
  11   4   7    1.79    2.06
 -11  -4  -7    4.00    1.92
  11   4   8    6.17    2.11
 -11  -4  -8    5.05    2.06
  11   4   9    6.54    2.19
 -11  -4  -9    5.05    2.14
  11   4  10    7.96    2.34
 -11  -4 -10    3.67    2.13
  11   4  11    1.29    2.34
 -11  -4 -11    1.96    2.10
  11   4  12    3.89    2.20
 -11  -4 -12    5.13    2.69
  10   5 -12    0.70    2.05
  10   5 -11    7.69    2.44
  10   5 -10   -2.57    1.83
  10   5  -9   11.20    2.54
  10   5  -8    0.13    2.28
  10   5  -7    1.60    1.90
  10   5  -6   12.53    2.69
  10   5  -5   13.64    2.45
  10   5  -4    3.42    1.96
  10   5  -3   44.99    3.55
  10   5  -2    0.01    1.80
  10   5  -1    9.58    2.18
  10   5   0   45.45    3.46
  10   5   1    9.21    2.13
 -10  -5  -1    7.37    1.99
  10   5   2   -0.75    1.69
 -10  -5  -2    1.65    1.78
  10   5   3   50.27    3.62
 -10  -5  -3   49.18    3.51
  10   5   4   -0.40    1.70
 -10  -5  -4    0.60    1.75
  10   5   5   12.42    2.40
 -10  -5  -5   16.73    2.36
  10   5   6    7.29    2.09
 -10  -5  -6    5.33    1.94
  10   5   7    4.54    2.20
 -10  -5  -7    2.52    2.13
  10   5   8    3.43    2.16
 -10  -5  -8    4.04    2.27
  10   5   9   18.54    3.10
 -10  -5  -9   10.70    2.38
  10   5  10    1.46    1.85
 -10  -5 -10    0.67    1.90
  10   5  11    5.32    2.54
 -10  -5 -11    7.66    2.26
  10   5  12   -1.16    2.14
 -10  -5 -12    0.79    2.01
   9   6 -12   -1.36    2.36
   9   6 -11    5.39    2.23
   9   6 -10    7.79    2.68
   9   6  -9    6.36    2.62
   9   6  -8    3.68    2.04
   9   6  -7    6.81    2.47
   9   6  -6    1.25    2.14
   9   6  -5   11.92    2.32
   9   6  -4   12.89    2.38
   9   6  -3   15.32    2.55
   9   6  -2   29.82    2.93
   9   6  -1   22.31    2.65
   9   6   0   34.83    3.12
   9   6   0   36.19    2.24
   9   6   1   18.88    2.54
   9   6   1   18.87    1.62
   9   6   2   27.50    2.89
  -9  -6  -2   33.41    3.10
   9   6   3   12.51    2.28
  -9  -6  -3   10.77    2.09
   9   6   4   11.30    2.53
  -9  -6  -4   12.44    2.20
   9   6   5    8.73    2.18
  -9  -6  -5    9.66    2.08
   9   6   6    2.86    1.83
  -9  -6  -6   -0.60    1.68
   9   6   7    7.96    2.17
  -9  -6  -7    8.20    2.04
   9   6   8    3.72    1.90
  -9  -6  -8   -0.42    1.71
   9   6   9    3.12    1.86
  -9  -6  -9    2.04    2.18
   9   6  10   10.93    2.71
  -9  -6 -10   12.75    2.65
   9   6  11    3.43    2.35
  -9  -6 -11    2.29    1.94
   9   6  12    2.62    2.40
  -9  -6 -12    2.65    2.03
   8   7 -12   -3.20    1.75
   8   7 -11    0.41    1.93
   8   7 -10    5.33    2.56
   8   7  -9    0.30    2.21
   8   7  -8    2.33    2.22
   8   7  -7    3.68    1.86
   8   7  -6    3.18    1.86
   8   7  -5    1.89    1.93
   8   7  -4   16.17    2.51
   8   7  -3   16.68    2.47
   8   7  -2    3.25    1.47
   8   7  -2    2.18    1.81
   8   7  -1   19.47    1.99
   8   7  -1   18.18    2.52
   8   7   0    1.09    1.62
   8   7   0    2.12    1.15
   8   7   1   24.22    1.87
   8   7   1   18.12    2.45
   8   7   2    2.83    1.71
   8   7   3   21.15    2.66
  -8  -7  -3   20.38    2.49
   8   7   4   15.84    2.45
  -8  -7  -4   17.24    2.36
   8   7   5    4.57    1.94
  -8  -7  -5    1.34    2.04
   8   7   6    1.78    1.76
  -8  -7  -6    2.62    1.68
   8   7   7    0.49    1.99
  -8  -7  -7    2.25    1.96
   8   7   8    2.49    1.88
  -8  -7  -8    0.78    1.73
   8   7   9   -0.63    1.79
  -8  -7  -9    1.60    2.04
   8   7  10    0.74    1.86
  -8  -7 -10    3.25    1.90
   8   7  11   -0.80    1.71
  -8  -7 -11   -1.99    2.03
   8   7  12    1.82    2.24
  -8  -7 -12    0.62    2.23
   7   8 -12    0.65    2.07
   7   8 -12    0.98    1.94
   7   8 -11   -1.65    1.80
   7   8 -11    1.41    2.24
   7   8 -10    4.11    2.05
   7   8  -9    1.69    1.83
   7   8  -8    0.96    1.72
   7   8  -7   -1.13    1.63
   7   8  -6    3.50    1.89
   7   8  -5    1.29    1.63
   7   8  -5    2.03    1.83
   7   8  -4   19.59    2.32
   7   8  -4   19.80    2.80
   7   8  -3   16.14    2.68
   7   8  -3   20.06    2.37
   7   8  -2    6.60    1.69
   7   8  -2    5.76    1.96
   7   8  -1   22.33    2.57
   7   8  -1   22.41    2.10
   7   8   0    0.89    1.26
   7   8   0    2.95    1.80
   7   8   1   16.44    2.29
   7   8   1   17.92    1.69
   7   8   2    3.11    1.76
   7   8   2    1.46    1.19
   7   8   3   19.65    2.54
  -7  -8  -3   17.63    2.28
   7   8   4   17.73    2.49
  -7  -8  -4   17.77    2.30
   7   8   5    4.70    1.92
  -7  -8  -5    2.70    1.96
   7   8   6    3.21    1.92
  -7  -8  -6    3.40    1.68
   7   8   7    3.22    1.80
  -7  -8  -7   -0.44    1.74
   7   8   8    0.93    2.03
  -7  -8  -8    3.97    1.80
   7   8   9    0.03    1.76
  -7  -8  -9   -0.16    1.68
   7   8  10    5.83    2.17
  -7  -8 -10    1.85    2.14
   7   8  11    0.34    2.14
  -7  -8 -11   -2.85    1.61
   7   8  12   -0.63    1.80
  -7  -8 -12    0.25    2.13
   6   9 -12    2.18    2.23
   6   9 -12    0.96    2.23
   6   9 -11    1.11    1.90
   6   9 -11    2.31    2.23
   6   9 -10    9.54    2.22
   6   9 -10    9.06    2.53
   6   9  -9    7.13    2.32
   6   9  -9    4.36    2.15
   6   9  -8    1.62    1.83
   6   9  -8   -0.10    1.97
   6   9  -7    6.73    2.06
   6   9  -7    3.96    2.14
   6   9  -6   -0.56    1.99
   6   9  -6    0.23    1.65
   6   9  -5    8.60    2.28
   6   9  -5   10.32    2.16
   6   9  -4   14.95    2.56
   6   9  -4   15.77    2.43
   6   9  -3   11.38    2.36
   6   9  -3    8.74    1.75
   6   9  -2   26.66    2.45
   6   9  -2   24.91    2.65
   6   9  -1   16.63    2.44
   6   9  -1   20.53    2.11
   6   9   0   33.50    2.34
   6   9   0   31.39    3.08
   6   9   1   15.89    2.33
   6   9   1   18.48    1.80
   6   9   2   29.44    3.00
   6   9   2   27.52    1.97
   6   9   3    9.12    2.08
   6   9   4   15.84    2.40
  -6  -9  -4   15.85    2.23
   6   9   5    7.95    2.10
  -6  -9  -5   10.49    2.23
   6   9   6    1.13    1.67
  -6  -9  -6    2.30    1.88
   6   9   7    5.12    2.04
  -6  -9  -7    8.00    1.86
   6   9   8    4.31    2.00
  -6  -9  -8    2.93    1.63
   6   9   9    5.52    2.15
  -6  -9  -9    2.72    1.74
   6   9  10    8.27    2.44
  -6  -9 -10   10.06    2.39
   6   9  11    2.53    2.04
  -6  -9 -11    3.48    2.17
   6   9  12    2.43    2.39
  -6  -9 -12   -1.01    1.97
   5  10 -12   -1.59    1.98
   5  10 -11   11.81    2.60
   5  10 -11    9.33    2.61
   5  10 -10    2.36    2.12
   5  10 -10    1.04    2.01
   5  10  -9   17.24    2.79
   5  10  -9   13.71    2.52
   5  10  -8    5.30    2.20
   5  10  -8    2.71    1.96
   5  10  -7    1.08    1.92
   5  10  -7    1.04    1.76
   5  10  -6    8.72    2.02
   5  10  -6    9.75    2.40
   5  10  -5   15.18    2.31
   5  10  -5   17.67    2.37
   5  10  -4   -1.25    1.54
   5  10  -4    3.07    1.74
   5  10  -3   47.63    3.40
   5  10  -3   50.00    3.49
   5  10  -2    0.32    1.62
   5  10  -2    1.04    0.69
   5  10  -1    8.67    1.76
   5  10  -1    9.53    2.23
   5  10   0   42.39    3.14
   5  10   0   41.72    2.71
   5  10   1   13.09    1.70
   5  10   1    9.26    2.06
   5  10   2   -0.94    1.14
   5  10   2   -1.90    1.44
   5  10   3   52.31    3.83
   5  10   4    1.86    1.79
   5  10   5   16.01    2.44
  -5 -10  -5   15.67    2.14
   5  10   6    5.69    1.94
  -5 -10  -6    4.41    1.90
   5  10   7    1.62    1.73
  -5 -10  -7    0.93    1.50
   5  10   8    2.90    1.85
  -5 -10  -8    2.20    1.62
   5  10   9   15.58    2.71
  -5 -10  -9   11.89    2.22
   5  10  10    3.73    2.09
  -5 -10 -10   -2.01    1.69
   5  10  11    7.05    2.34
  -5 -10 -11    7.76    2.22
   5  10  12    1.91    2.05
   4  11 -12    4.10    2.48
   4  11 -11    4.03    2.32
   4  11 -10    2.66    2.15
   4  11 -10    6.72    2.21
   4  11  -9    1.79    2.00
   4  11  -9    2.70    2.11
   4  11  -8    6.01    2.19
   4  11  -8   10.80    2.31
   4  11  -7    4.12    2.00
   4  11  -7    6.48    2.04
   4  11  -6    1.05    1.63
   4  11  -6    1.50    1.77
   4  11  -5   -1.33    1.45
   4  11  -5    0.16    1.65
   4  11  -4   47.73    3.39
   4  11  -4   49.26    3.46
   4  11  -3   10.40    2.08
   4  11  -3   15.28    2.13
   4  11  -2    1.23    1.89
   4  11  -2   -0.71    0.94
   4  11  -1    6.48    2.05
   4  11  -1    4.65    1.64
   4  11   0   30.51    2.53
   4  11   0   34.09    2.92
   4  11   1    5.54    1.59
   4  11   1    3.48    1.74
   4  11   2   -1.43    1.51
   4  11   2    0.75    1.36
   4  11   3    9.26    2.08
   4  11   4   40.27    3.45
   4  11   5    1.74    1.71
   4  11   6    2.91    1.85
  -4 -11  -6   -0.18    1.66
   4  11   7    2.58    1.82
  -4 -11  -7    4.69    1.85
   4  11   8   12.37    2.42
  -4 -11  -8    6.87    1.99
   4  11   9   -1.82    1.63
  -4 -11  -9    4.99    1.91
   4  11  10    8.35    2.61
  -4 -11 -10    4.57    1.98
   4  11  11    3.48    2.13
   4  11  12    2.47    2.13
   3  12 -12   -2.01    2.13
   3  12 -11    0.36    2.18
   3  12 -10    2.48    2.20
   3  12  -9   -2.05    1.92
   3  12  -9    1.55    2.11
   3  12  -8    0.58    1.80
   3  12  -8    1.69    2.03
   3  12  -7   -0.71    1.80
   3  12  -7    4.22    1.98
   3  12  -6   12.43    2.26
   3  12  -6   10.07    2.26
   3  12  -5   10.35    2.15
   3  12  -5    6.52    1.98
   3  12  -4   23.80    2.86
   3  12  -4   22.71    2.69
   3  12  -3    4.88    1.71
   3  12  -3   -0.30    1.84
   3  12  -2    3.06    1.63
   3  12  -2    4.17    1.63
   3  12  -1    2.72    1.43
   3  12  -1    1.04    1.88
   3  12   0    4.40    1.55
   3  12   0    4.60    1.76
   3  12   1    2.36    1.64
   3  12   1    4.82    1.59
   3  12   2    2.65    1.96
   3  12   2    4.44    1.67
   3  12   3    5.53    1.92
   3  12   4   17.40    2.45
   3  12   5    3.77    1.85
   3  12   6    7.19    1.99
   3  12   7    0.45    1.66
  -3 -12  -7    0.43    1.60
   3  12   8   -1.81    1.60
  -3 -12  -8    1.11    1.64
   3  12   9    1.85    2.20
  -3 -12  -9    6.09    1.87
   3  12  10    2.20    1.97
   3  12  11    0.23    2.24
   3  12  12   -1.14    1.94
   2  13 -11    4.99    2.39
   2  13 -10    5.27    2.41
   2  13  -9   -1.03    2.04
   2  13  -8    2.42    2.09
   2  13  -8    0.63    1.76
   2  13  -7   14.15    2.86
   2  13  -7   13.94    2.32
   2  13  -6   15.34    2.53
   2  13  -6   15.59    2.30
   2  13  -5   -1.45    1.66
   2  13  -5    3.38    1.59
   2  13  -4    8.96    2.05
   2  13  -4   10.94    2.13
   2  13  -3    1.00    1.76
   2  13  -3    3.24    2.00
   2  13  -2   11.12    1.96
   2  13  -2    7.96    2.08
   2  13  -1   17.10    2.29
   2  13   0    1.29    1.83
   2  13   0    2.69    1.65
   2  13   1   21.00    2.27
   2  13   1   16.91    2.36
   2  13   2   10.51    2.08
   2  13   2   13.47    2.04
   2  13   3    2.73    1.70
   2  13   3   -0.56    1.56
   2  13   4    5.39    1.93
   2  13   5    1.35    1.69
   2  13   6   14.09    2.39
   2  13   7   14.64    2.50
   2  13   8    1.75    1.77
   2  13   9    3.03    2.21
   2  13  10    2.19    1.96
   2  13  11   -0.64    1.81
   1  14 -11   -0.03    2.14
   1  14 -10   -2.47    2.03
   1  14  -9    6.96    2.46
   1  14  -8    6.10    2.36
   1  14  -7   13.64    2.29
   1  14  -7   10.73    2.53
   1  14  -6    0.21    1.65
   1  14  -6    3.36    1.99
   1  14  -5    3.59    1.90
   1  14  -5    2.49    1.68
   1  14  -4    2.52    1.75
   1  14  -4    5.20    1.91
   1  14  -3    1.10    1.44
   1  14  -3    2.82    2.01
   1  14  -2   -0.85    1.36
   1  14  -2    1.45    1.54
   1  14  -1   29.45    2.87
   1  14  -1   33.49    2.89
   1  14   0   34.20    2.95
   1  14   0   36.63    3.10
   1  14   1   35.34    3.12
   1  14   1   41.01    3.11
   1  14   2   -1.44    1.54
   1  14   2   -0.98    1.51
   1  14   3   -0.54    1.79
   1  14   3    1.98    1.76
   1  14   4    1.82    1.71
   1  14   5    3.72    1.83
   1  14   6    3.20    1.84
   1  14   7    8.96    2.22
   1  14   8    7.66    2.49
   1  14   9    8.11    2.53
   1  14  10    0.04    1.92
   1  14  11   -3.05    1.74
   0  15 -11   -4.27    2.05
   0  15 -10    1.04    2.26
   0  15  -9    0.17    2.18
   0  15  -8   23.00    3.28
   0  15  -7    1.03    2.15
   0  15  -6    2.13    1.66
   0  15  -6    0.36    1.93
   0  15  -5   -0.35    1.74
   0  15  -5    0.59    1.62
   0  15  -4    6.22    1.82
   0  15  -4    3.34    1.91
   0  15  -3    2.15    1.67
   0  15  -3    3.00    1.69
   0  15  -2    2.30    1.92
   0  15  -2    3.57    1.77
   0  15  -1   -0.92    1.45
   0  15  -1    2.08    1.56
   0  15   0   99.47    5.14
   0  15   1   -1.90    1.49
   0  15   1    0.86    1.52
   0  15   2    2.09    1.74
   0  15   2    1.92    1.88
   0  15   3    1.56    1.62
   0  15   3   -1.60    1.51
   0  15   4    5.73    1.94
   0  15   5    0.09    1.58
   0  15   6    0.67    1.63
   0  15   7   -1.40    1.67
   0  15   8   20.78    2.91
   0  15   9    0.56    2.19
   0  15  10    2.23    1.86
   0  15  11   -1.15    1.94
  -1  16 -10    2.05    2.46
  -1  16  -9   -0.59    2.29
  -1  16  -8    2.66    2.24
  -1  16  -7   11.28    2.68
  -1  16  -6   -0.64    1.93
  -1  16  -5   -1.01    1.78
  -1  16  -5   -0.99    1.47
  -1  16  -4    1.86    1.59
  -1  16  -4    0.22    1.73
  -1  16  -3    1.11    1.59
  -1  16  -3    0.53    1.66
  -1  16  -2    1.60    1.71
  -1  16  -2    1.93    1.72
  -1  16  -1    9.83    2.30
  -1  16  -1   15.11    2.31
  -1  16   0    5.74    1.83
  -1  16   1   10.55    2.27
  -1  16   1   16.88    2.36
  -1  16   2   -1.25    1.76
  -1  16   2    0.75    1.82
  -1  16   3   -0.07    1.71
  -1  16   3    3.49    2.02
  -1  16   4    0.94    1.59
  -1  16   5    0.42    1.64
  -1  16   6   -0.98    1.96
  -1  16   7   10.71    2.41
  -1  16   8    7.05    2.54
  -1  16   9    1.41    1.89
  -1  16  10   -1.73    1.72
  -2  17 -10   -1.86    2.39
  -2  17  -9   -0.84    2.24
  -2  17  -8   -0.49    2.13
  -2  17  -7    2.59    2.34
  -2  17  -6   11.23    2.59
  -2  17  -5   -0.41    1.88
  -2  17  -4    3.96    1.70
  -2  17  -4    3.20    1.96
  -2  17  -3    2.63    1.89
  -2  17  -3    3.87    1.88
  -2  17  -2    2.08    1.75
  -2  17  -2   -0.67    1.58
  -2  17  -1    0.20    1.42
  -2  17  -1   -1.25    1.60
  -2  17   0    1.73    1.78
  -2  17   0    2.45    2.05
  -2  17   1   -0.04    1.52
  -2  17   1    0.41    1.49
  -2  17   2    1.48    1.85
  -2  17   2   -2.17    1.56
  -2  17   3    2.16    1.72
  -2  17   3    2.01    1.90
  -2  17   4    6.72    2.20
  -2  17   4    1.28    1.84
  -2  17   5   -0.15    2.03
  -2  17   6    4.16    1.96
  -2  17   7    3.77    1.99
  -2  17   8    1.66    1.90
  -2  17   9    4.81    2.19
  -2  17  10    0.56    2.04
  -3  18  -9   -0.75    2.28
  -3  18  -8    1.22    2.28
  -3  18  -7    0.47    2.06
  -3  18  -6    1.86    2.20
  -3  18  -5   10.10    2.77
  -3  18  -4    7.72    2.67
  -3  18  -3    1.03    1.77
  -3  18  -3    0.10    1.82
  -3  18  -2    3.51    1.97
  -3  18  -2    5.02    1.77
  -3  18  -1    1.32    1.71
  -3  18  -1   -0.03    2.05
  -3  18   0   -0.19    1.72
  -3  18   0    4.09    1.88
  -3  18   1    3.98    2.21
  -3  18   1    4.26    1.96
  -3  18   2   14.90    2.62
  -3  18   3    1.94    2.03
  -3  18   3    0.52    1.94
  -3  18   4   10.56    2.49
  -3  18   4    9.56    2.40
  -3  18   5    3.25    2.18
  -3  18   6    2.47    1.93
  -3  18   7    0.92    1.94
  -3  18   8    1.23    1.97
  -3  18   9    3.71    2.48
  -4  19  -8    5.84    2.56
  -4  19  -7   -1.16    2.12
  -4  19  -6    0.16    2.12
  -4  19  -5    2.78    2.10
  -4  19  -4    9.79    2.45
  -4  19  -3    6.15    2.28
  -4  19  -2    3.13    2.03
  -4  19  -1    3.86    2.05
  -4  19  -1    5.71    1.89
  -4  19   0    2.67    1.85
  -4  19   0    3.11    1.96
  -4  19   1    4.94    2.11
  -4  19   1    4.60    2.03
  -4  19   2    6.42    1.95
  -4  19   2    5.89    2.05
  -4  19   3    2.37    1.09
  -4  19   3    6.71    2.31
  -4  19   4   12.41    2.38
  -4  19   4   14.44    2.75
  -4  19   5   -1.32    2.03
  -4  19   6    2.04    1.88
  -4  19   7    3.15    2.05
  -4  19   8    6.89    2.62
  -5  20  -7   -4.15    2.08
  -5  20  -6    2.32    2.22
  -5  20  -5    1.98    2.08
  -5  20  -4   -1.27    2.40
  -5  20  -3    9.97    2.47
  -5  20  -2    2.74    2.12
  -5  20  -1   -1.83    1.87
  -5  20   0    5.66    1.98
  -5  20   0    2.07    2.06
  -5  20   1   -1.98    1.75
  -5  20   1   -0.27    2.32
  -5  20   2    0.48    1.95
  -5  20   2   -0.76    2.14
  -5  20   3    9.93    2.66
  -5  20   4   -0.61    1.15
  -5  20   4   -0.59    2.02
  -5  20   5    0.14    1.81
  -5  20   6    2.89    2.02
  -5  20   7    2.19    2.35
  -6  21  -6    0.47    2.29
  -6  21  -5   -1.19    2.13
  -6  21  -4    0.89    2.09
  -6  21  -3   -0.96    2.41
  -6  21  -2    3.99    2.55
  -6  21  -1   -3.92    1.78
  -6  21   0    3.57    2.47
  -6  21   1    2.25    2.40
  -6  21   1   -0.67    1.78
  -6  21   2   -1.04    1.84
  -6  21   2    1.90    2.23
  -6  21   3    0.81    2.26
  -6  21   3   -0.45    1.99
  -6  21   4    4.81    2.25
  -6  21   4    1.53    2.20
  -6  21   5    1.37    2.20
  -6  21   6    2.96    2.09
  -7  22  -4    2.77    2.63
  -7  22  -3    3.05    2.30
  -7  22  -2   -2.63    2.27
  -7  22  -1   -2.08    1.94
  -7  22   0    1.67    2.07
  -7  22   1    0.46    2.41
  -7  22   2   -0.95    1.93
  -7  22   2   -0.97    1.86
  -7  22   3    0.90    2.28
  -7  22   3    3.11    2.18
  -7  22   4   -1.81    2.06
  -7  22   4    0.97    1.89
  -8  23   0    1.29    2.13
  22  -6  -3   -0.22    2.13
  22  -6  -2   -0.22    2.04
  22  -6  -1    0.62    2.47
 -22   6   1    2.76    2.36
  22  -6   0    3.18    2.53
 -22   6   0    2.82    2.11
  22  -6   1    3.12    2.49
 -22   6  -1   -0.84    2.36
  22  -6   2    1.03    2.17
 -22   6  -2   -1.78    1.86
  22  -6   3    0.05    2.17
 -22   6  -3    1.95    2.57
  21  -5  -5    0.16    2.30
  21  -5  -4   -1.03    2.10
  21  -5  -3    2.09    2.21
  21  -5  -2    1.27    2.11
  21  -5  -1   -1.36    2.42
 -21   5   1    3.53    2.12
  21  -5   0    0.70    2.43
 -21   5   0    1.67    1.99
  21  -5   1    2.26    2.35
 -21   5  -1   -1.06    1.88
  21  -5   2    2.32    2.01
 -21   5  -2    2.06    2.01
  21  -5   3    2.07    2.33
 -21   5  -3   -1.86    1.87
  21  -5   4    0.45    2.19
 -21   5  -4   -2.83    1.87
 -21   5  -5   -3.41    1.95
  20  -4  -7    0.97    2.25
  20  -4  -6   -1.18    2.10
  20  -4  -5    0.51    2.22
  20  -4  -4    1.63    2.28
  20  -4  -3    2.71    2.16
  20  -4  -2    3.09    2.25
  20  -4  -1    3.52    2.23
 -20   4   1    0.41    2.23
  20  -4   0    5.73    2.28
 -20   4   0    7.05    2.58
  20  -4   1    0.22    1.93
 -20   4  -1    0.27    1.95
  20  -4   2    4.97    2.52
 -20   4  -2    2.51    2.39
  20  -4   3    4.50    2.36
 -20   4  -3    0.66    2.37
  20  -4   4    2.04    2.19
 -20   4  -4   -1.04    2.04
  20  -4   5    3.11    2.24
 -20   4  -5    0.73    2.18
 -20   4  -6   -2.47    1.94
 -20   4  -7   -1.41    2.50
  19  -3  -8    3.62    2.81
  19  -3  -7   -4.80    2.46
  19  -3  -6    2.85    2.26
  19  -3  -5   -0.91    2.53
  19  -3  -4    0.27    2.44
  19  -3  -3    8.79    2.48
  19  -3  -2   -0.15    1.99
  19  -3  -1    0.59    2.32
 -19   3   1    2.29    1.96
  19  -3   0    5.50    2.27
 -19   3   0    5.31    2.19
  19  -3   1    3.43    2.04
 -19   3  -1   -0.45    1.92
  19  -3   2    0.97    2.26
 -19   3  -2    2.44    2.04
  19  -3   3    8.51    2.64
 -19   3  -3    7.78    2.33
  19  -3   4   -1.85    2.10
 -19   3  -4   -0.11    2.36
  19  -3   5   -0.95    1.92
 -19   3  -5   -2.05    1.97
  19  -3   6    1.74    2.15
 -19   3  -6    2.47    2.17
  19  -3   7    2.62    0.83
 -19   3  -7   -1.87    2.46
 -19   3  -8   -2.34    2.52
  18  -2  -8    0.53    2.28
  18  -2  -7   -0.08    2.15
  18  -2  -6    0.65    2.14
  18  -2  -5   -1.87    2.01
  18  -2  -4    0.09    2.12
  18  -2  -3    9.12    2.48
  18  -2  -2   -0.78    1.89
  18  -2  -1    2.44    2.15
 -18   2   1    3.63    2.35
  18  -2   0    0.88    1.95
 -18   2   0   -0.17    2.10
  18  -2   1   -3.23    1.72
 -18   2  -1   -0.32    1.84
  18  -2   2    3.87    2.12
 -18   2  -2    1.94    1.94
  18  -2   3    7.05    2.28
 -18   2  -3    9.37    2.34
  18  -2   4    0.87    2.28
 -18   2  -4   -0.07    1.98
  18  -2   5   -1.76    1.85
 -18   2  -5   -2.45    1.90
  18  -2   6   -1.47    1.97
 -18   2  -6   -1.68    1.95
  18  -2   7    2.75    2.25
 -18   2  -7   -0.95    2.03
  18  -2   8    2.09    0.99
 -18   2  -8    0.90    2.25
  17  -1  -9   -1.12    2.13
  17  -1  -8   -0.14    2.08
  17  -1  -7    3.27    2.32
  17  -1  -6    6.55    2.56
  17  -1  -5    2.22    2.16
  17  -1  -4    8.07    2.38
  17  -1  -3   -0.46    1.96
  17  -1  -2   -1.31    1.75
  17  -1  -1    3.74    2.12
 -17   1   1   -0.92    1.83
  17  -1   0    0.42    2.00
 -17   1   0   -2.19    1.68
  17  -1   1   -1.09    1.79
 -17   1  -1    2.53    1.98
  17  -1   2    0.04    2.21
 -17   1  -2    0.34    1.81
  17  -1   3    1.35    2.23
 -17   1  -3    4.49    2.06
  17  -1   4    6.51    2.27
 -17   1  -4    2.99    2.12
  17  -1   5    1.96    2.23
 -17   1  -5    2.46    2.13
  17  -1   6    6.43    2.49
 -17   1  -6    8.62    2.48
  17  -1   7   -1.25    1.92
 -17   1  -7    2.42    2.14
  17  -1   8    0.22    1.68
 -17   1  -8    0.63    2.08
  17  -1   9    2.21    2.01
 -17   1  -9    1.29    2.18
  16   0 -10   -1.13    2.54
  16   0  -9   -1.53    2.06
  16   0  -8   -2.38    2.03
  16   0  -7   13.52    2.83
  16   0  -6    3.19    2.35
  16   0  -5    2.03    2.45
  16   0  -4    3.46    2.09
  16   0  -3   -0.28    2.22
  16   0  -2   -0.63    1.88
  16   0  -1    4.35    2.14
  16   0   0    5.05    2.39
 -16   0   0    4.57    2.34
  16   0   1    5.93    2.16
 -16   0  -1    7.58    2.20
  16   0   2    0.01    2.17
 -16   0  -2    0.23    1.84
  16   0   3   -0.54    2.11
 -16   0  -3   -1.80    2.07
  16   0   4    4.70    2.04
 -16   0  -4    3.03    2.00
  16   0   5   -1.30    2.00
 -16   0  -5    0.78    1.97
  16   0   6    1.29    2.22
 -16   0  -6   -1.42    1.81
  16   0   7    8.59    2.66
 -16   0  -7    9.06    2.46
  16   0   8   -0.39    1.99
 -16   0  -8    1.50    2.13
  16   0   9   -0.26    2.06
 -16   0  -9    0.54    2.10
  16   0  10   -1.71    2.05
 -16   0 -10   -0.56    2.55
  15   1 -10    0.48    2.17
  15   1  -9   -0.53    2.13
  15   1  -8    5.31    2.30
  15   1  -7   11.41    2.98
  15   1  -6   -1.01    2.06
  15   1  -5    0.06    1.98
  15   1  -4   -0.43    2.19
  15   1  -3    0.21    1.86
  15   1  -2    2.09    1.98
  15   1  -1    8.45    2.36
  15   1   0    6.30    2.14
 -15  -1   0    8.15    2.19
  15   1   1    7.98    2.22
 -15  -1  -1   16.72    2.51
  15   1   2    2.42    2.30
 -15  -1  -2    5.88    2.07
  15   1   3   -0.64    1.79
 -15  -1  -3    0.91    2.09
  15   1   4    0.85    1.75
 -15  -1  -4    0.91    2.12
  15   1   5   -1.35    1.95
 -15  -1  -5    2.50    1.97
  15   1   6   -3.23    1.92
 -15  -1  -6   -1.45    1.86
  15   1   7    8.60    2.30
 -15  -1  -7    8.29    2.62
  15   1   8    5.61    2.14
 -15  -1  -8    7.37    2.36
  15   1   9    0.10    2.06
 -15  -1  -9   -0.99    2.06
  15   1  10    2.20    2.31
 -15  -1 -10    0.43    2.13
  14   2 -11   -1.63    2.55
  14   2 -10    2.48    2.26
  14   2  -9    0.77    2.13
  14   2  -8    7.69    2.54
  14   2  -7    2.12    2.26
  14   2  -6   -0.31    2.42
  14   2  -5    1.77    1.94
  14   2  -4   -3.41    1.72
  14   2  -3    0.12    1.84
  14   2  -2    0.39    1.89
  14   2  -1    2.62    2.32
  14   2   0   18.18    2.76
 -14  -2   0   18.83    2.63
  14   2   1    4.32    2.32
 -14  -2  -1   -0.27    1.73
  14   2   2    0.02    1.78
 -14  -2  -2    0.12    1.73
  14   2   3    1.67    1.90
 -14  -2  -3   -0.10    1.78
  14   2   4   -1.04    1.98
 -14  -2  -4    0.99    1.75
  14   2   5   -0.86    1.62
 -14  -2  -5   -1.83    1.68
  14   2   6    2.47    2.16
 -14  -2  -6    1.32    2.31
  14   2   7    1.22    2.14
 -14  -2  -7    1.53    2.02
  14   2   8    5.60    2.19
 -14  -2  -8    4.75    2.27
  14   2   9    1.50    2.25
 -14  -2  -9    2.46    2.17
  14   2  10    1.56    2.23
 -14  -2 -10    0.71    2.12
  14   2  11    2.69    2.29
 -14  -2 -11   -2.34    2.06
  13   3 -11    1.59    2.25
  13   3 -10    0.03    2.15
  13   3  -9    0.59    2.12
  13   3  -8    5.70    2.36
  13   3  -7    0.96    2.14
  13   3  -6   -0.79    1.97
  13   3  -5   -0.29    1.82
  13   3  -4    3.05    1.98
  13   3  -3    7.19    2.51
  13   3  -2   -0.81    1.85
  13   3  -1    4.58    2.39
  13   3   0    4.30    1.99
  13   3   1    1.65    1.91
 -13  -3  -1    1.56    2.16
  13   3   2    0.91    1.86
 -13  -3  -2    3.08    1.86
  13   3   3    7.82    2.24
 -13  -3  -3    7.64    2.34
  13   3   4   -3.18    1.88
 -13  -3  -4   -0.26    1.64
  13   3   5   -1.46    1.63
 -13  -3  -5    2.61    1.94
  13   3   6   -0.27    1.56
 -13  -3  -6    2.51    1.98
  13   3   7    0.00    2.05
 -13  -3  -7    1.57    2.30
  13   3   8    5.50    2.17
 -13  -3  -8    7.01    2.25
  13   3   9   -1.13    1.99
 -13  -3  -9   -0.11    1.95
  13   3  10    4.05    2.42
 -13  -3 -10    0.81    2.11
  13   3  11    6.15    2.45
 -13  -3 -11    0.14    2.15
  12   4 -11    7.83    2.89
  12   4 -10    5.46    2.69
  12   4  -9    5.47    2.36
  12   4  -8   -0.93    2.45
  12   4  -7    3.11    2.07
  12   4  -6    2.69    1.99
  12   4  -5    2.29    1.96
  12   4  -4   -1.14    1.78
  12   4  -3   15.01    2.83
  12   4  -2    6.98    2.19
  12   4  -1    2.11    1.89
  12   4   0    1.91    1.94
  12   4   1    3.53    2.06
 -12  -4  -1    6.16    2.05
  12   4   2    7.83    2.20
 -12  -4  -2    6.16    2.05
  12   4   3    9.30    2.51
 -12  -4  -3   13.40    2.53
  12   4   4   -0.64    1.77
 -12  -4  -4    1.75    1.77
  12   4   5    5.82    2.08
 -12  -4  -5    5.22    1.94
  12   4   6    1.48    1.78
 -12  -4  -6   -0.04    2.13
  12   4   7    6.01    2.46
 -12  -4  -7    4.69    2.07
  12   4   8   -0.41    2.04
 -12  -4  -8    0.49    1.93
  12   4   9    5.28    2.46
 -12  -4  -9    3.16    2.12
  12   4  10    1.78    1.97
 -12  -4 -10    1.11    2.36
  12   4  11    3.31    2.13
 -12  -4 -11    2.87    2.23
  11   5 -11   -0.54    2.13
  11   5 -10   10.37    2.64
  11   5  -9    4.89    2.36
  11   5  -8   -1.61    2.32
  11   5  -7   -0.72    1.91
  11   5  -6   -1.09    1.84
  11   5  -5    4.12    2.01
  11   5  -4   17.24    2.67
  11   5  -3    8.80    2.31
  11   5  -2    5.39    2.11
  11   5  -1    3.78    2.34
  11   5   0    2.56    1.89
  11   5   1    0.01    1.73
  11   5   2   11.60    2.34
 -11  -5  -2    7.49    2.15
  11   5   3    8.26    2.13
 -11  -5  -3    4.87    1.98
  11   5   4    9.85    2.30
 -11  -5  -4   12.65    2.31
  11   5   5    1.80    1.78
 -11  -5  -5    4.30    1.87
  11   5   6    1.50    1.80
 -11  -5  -6   -0.23    1.69
  11   5   7    3.15    1.92
 -11  -5  -7   -1.25    1.72
  11   5   8    0.44    1.77
 -11  -5  -8    0.96    1.91
  11   5   9    2.39    1.98
 -11  -5  -9    1.71    2.03
  11   5  10    8.54    2.76
 -11  -5 -10    7.74    2.38
  11   5  11    2.13    2.28
 -11  -5 -11    1.26    2.07
  10   6 -12   -1.07    2.12
  10   6 -11   -0.59    2.11
  10   6 -10    3.32    2.67
  10   6  -9    7.40    2.39
  10   6  -8   -1.70    1.85
  10   6  -7    7.76    2.25
  10   6  -6    1.89    2.17
  10   6  -5    2.07    1.86
  10   6  -4    6.35    2.13
  10   6  -3   15.79    2.61
  10   6  -2   24.94    2.88
  10   6  -1   12.67    2.34
  10   6   0   -0.07    1.71
  10   6   0    0.77    1.07
  10   6   1   14.26    2.43
  10   6   2   18.39    2.88
 -10  -6  -2   25.24    2.72
  10   6   3   16.08    2.54
 -10  -6  -3   15.54    2.33
  10   6   4    3.21    1.94
 -10  -6  -4    6.00    2.24
  10   6   5    3.86    1.89
 -10  -6  -5    2.39    1.74
  10   6   6    0.33    1.66
 -10  -6  -6    2.19    1.74
  10   6   7    7.61    2.51
 -10  -6  -7    5.26    2.31
  10   6   8    1.11    1.81
 -10  -6  -8   -0.49    2.14
  10   6   9    3.39    2.29
 -10  -6  -9    6.90    2.19
  10   6  10    4.90    2.50
 -10  -6 -10    8.63    2.27
  10   6  11   -0.40    1.91
 -10  -6 -11    2.03    2.01
   9   7 -12    4.04    2.70
   9   7 -11    0.61    2.45
   9   7 -10   -0.35    1.98
   9   7  -9    2.36    2.07
   9   7  -8   -0.38    2.09
   9   7  -7    3.67    1.98
   9   7  -6    6.50    2.36
   9   7  -5    3.34    1.98
   9   7  -4    1.56    1.90
   9   7  -3    9.50    2.28
   9   7  -2    5.99    2.07
   9   7  -1    8.00    1.59
   9   7  -1    6.55    2.12
   9   7   0   12.09    2.25
   9   7   0    8.53    1.47
   9   7   1   11.40    2.27
   9   7   2    3.76    1.92
   9   7   3    6.80    2.05
  -9  -7  -3   11.20    2.48
   9   7   4    0.80    1.76
  -9  -7  -4    0.38    1.65
   9   7   5    3.18    1.91
  -9  -7  -5    3.34    1.81
   9   7   6    7.00    2.13
  -9  -7  -6    6.00    2.18
   9   7   7   -0.96    1.67
  -9  -7  -7    6.22    2.15
   9   7   8    1.55    1.81
  -9  -7  -8   -1.54    2.00
   9   7   9    1.90    2.00
  -9  -7  -9    3.10    1.94
   9   7  10   -0.09    1.80
  -9  -7 -10    2.26    2.32
   9   7  11   -0.96    1.79
  -9  -7 -11    1.21    2.21
   9   7  12    1.43    2.40
  -9  -7 -12   -3.00    2.09
   8   8 -12    1.28    2.43
   8   8 -12   -1.42    1.99
   8   8 -11   -0.40    2.33
   8   8 -10   -2.03    1.82
   8   8  -9    1.58    1.91
   8   8  -8   -0.58    1.72
   8   8  -7    2.36    1.81
   8   8  -6   12.45    2.33
   8   8  -5    8.65    2.21
   8   8  -4    3.57    1.93
   8   8  -4    7.67    1.82
   8   8  -3    1.42    1.06
   8   8  -3    5.78    2.33
   8   8  -2    1.55    1.87
   8   8  -2    6.20    1.68
   8   8  -1    4.40    1.93
   8   8  -1    8.49    1.60
   8   8   0   17.39    2.55
   8   8   0   17.82    1.87
   8   8   1    5.84    1.90
   8   8   1    4.73    1.28
   8   8   2    1.30    2.06
   8   8   3    2.05    1.82
  -8  -8  -3    5.18    1.86
   8   8   4    9.21    2.18
  -8  -8  -4   11.21    2.16
   8   8   5    5.29    2.03
  -8  -8  -5    5.97    2.10
   8   8   6   10.58    2.35
  -8  -8  -6    7.77    1.97
   8   8   7    4.26    1.98
  -8  -8  -7    1.12    1.66
   8   8   8    1.04    1.85
  -8  -8  -8   -2.00    1.86
   8   8   9    3.28    2.05
  -8  -8  -9    2.81    1.90
   8   8  10    1.57    2.00
  -8  -8 -10    1.58    2.15
   8   8  11    1.48    2.23
  -8  -8 -11   -1.80    1.72
   8   8  12    0.09    1.91
  -8  -8 -12    0.70    1.94
   7   9 -12    0.25    2.20
   7   9 -12    1.51    2.19
   7   9 -11   -0.79    1.90
   7   9 -11    3.65    2.24
   7   9 -10    0.42    2.35
   7   9 -10    1.96    2.29
   7   9  -9    4.32    2.10
   7   9  -9    1.36    1.89
   7   9  -8    3.31    1.94
   7   9  -8    0.95    1.82
   7   9  -7    3.50    2.23
   7   9  -7    4.88    1.92
   7   9  -6    7.88    2.35
   7   9  -6    6.50    1.94
   7   9  -5    2.66    1.88
   7   9  -5    5.61    1.84
   7   9  -4    2.90    1.61
   7   9  -4    1.84    1.77
   7   9  -3    9.27    2.13
   7   9  -3    7.76    1.71
   7   9  -2    4.36    1.74
   7   9  -2    3.21    1.85
   7   9  -1    7.28    1.63
   7   9  -1    5.98    2.20
   7   9   0   11.71    2.27
   7   9   0   12.91    1.71
   7   9   1    6.26    1.94
   7   9   1    9.86    1.55
   7   9   2    3.75    2.11
   7   9   3   15.96    2.49
   7   9   4   -0.10    1.66
  -7  -9  -4    0.19    1.61
   7   9   5    4.04    1.86
  -7  -9  -5    3.41    1.74
   7   9   6    6.93    2.12
  -7  -9  -6   12.29    2.08
   7   9   7    3.83    1.90
  -7  -9  -7    1.28    1.65
   7   9   8    2.30    1.93
  -7  -9  -8    1.04    1.87
   7   9   9    3.30    2.02
  -7  -9  -9    2.26    2.02
   7   9  10   -0.29    1.83
  -7  -9 -10    0.10    2.07
   7   9  11   -0.31    1.89
  -7  -9 -11    5.37    2.31
   7   9  12    0.04    1.94
  -7  -9 -12    1.86    2.27
   6  10 -12    0.37    2.23
   6  10 -11   -0.65    1.85
   6  10 -11   -0.15    2.09
   6  10 -10    3.74    2.21
   6  10 -10    4.05    2.25
   6  10  -9    0.86    2.12
   6  10  -9    3.29    2.08
   6  10  -8    0.00    2.07
   6  10  -8   -0.94    1.77
   6  10  -7    7.97    2.09
   6  10  -7    7.79    2.17
   6  10  -6    3.67    1.82
   6  10  -6    1.40    1.67
   6  10  -5    5.11    2.08
   6  10  -5    4.30    1.87
   6  10  -4    4.08    1.71
   6  10  -4    4.35    1.87
   6  10  -3   20.58    2.52
   6  10  -3   15.39    2.38
   6  10  -2   20.12    2.61
   6  10  -2   22.96    2.47
   6  10  -1   11.34    1.85
   6  10  -1   13.42    2.31
   6  10   0   -0.18    1.64
   6  10   0    0.18    1.27
   6  10   1   12.45    2.26
   6  10   1    8.84    1.62
   6  10   2   19.47    2.57
   6  10   3   12.96    2.33
   6  10   4    4.57    1.92
   6  10   5    2.77    1.77
  -6 -10  -5    6.84    2.05
   6  10   6    3.19    1.86
  -6 -10  -6    3.34    1.67
   6  10   7    9.55    2.31
  -6 -10  -7    4.90    2.03
   6  10   8    1.44    2.25
  -6 -10  -8    0.53    1.57
   6  10   9    5.47    2.23
  -6 -10  -9    5.99    1.92
   6  10  10    4.69    2.27
  -6 -10 -10    9.32    2.32
   6  10  11    1.38    1.96
  -6 -10 -11    1.13    1.96
   5  11 -11    4.74    2.22
   5  11 -11    1.98    2.15
   5  11 -10    7.71    2.46
   5  11 -10    4.98    2.33
   5  11  -9    1.04    1.99
   5  11  -9    6.22    2.28
   5  11  -8    1.05    1.96
   5  11  -8   -1.04    1.96
   5  11  -7    2.40    1.71
   5  11  -7   -0.51    1.79
   5  11  -6    1.17    1.79
   5  11  -6    2.13    1.98
   5  11  -5    3.81    1.75
   5  11  -5    3.82    1.80
   5  11  -4   18.97    2.61
   5  11  -4   17.26    2.59
   5  11  -3    8.69    1.99
   5  11  -3    9.84    2.16
   5  11  -2    7.84    2.02
   5  11  -2    3.13    1.33
   5  11  -1   -0.31    1.95
   5  11  -1    1.49    1.53
   5  11   0   -1.41    1.30
   5  11   0   -0.25    1.65
   5  11   1    1.88    1.72
   5  11   1    2.38    1.30
   5  11   2    7.69    2.27
   5  11   3    6.25    1.94
   5  11   4   17.18    2.54
   5  11   5    4.28    1.87
   5  11   6    0.01    1.61
  -5 -11  -6    4.03    1.66
   5  11   7    1.58    1.82
  -5 -11  -7   -1.30    1.67
   5  11   8   -1.11    1.63
  -5 -11  -8   -0.30    1.52
   5  11   9    5.59    2.15
  -5 -11  -9    2.90    1.94
   5  11  10    9.54    2.46
  -5 -11 -10    7.81    2.23
   5  11  11    1.00    1.98
  -5 -11 -11    4.34    2.02
   4  12 -11    6.58    2.58
   4  12 -10    1.71    2.25
   4  12 -10    3.06    2.19
   4  12  -9    7.75    2.29
   4  12  -9    4.31    2.32
   4  12  -8    0.66    1.63
   4  12  -8   -1.05    1.90
   4  12  -7    4.03    2.08
   4  12  -7    3.78    2.02
   4  12  -6   -2.92    1.93
   4  12  -6    2.26    1.88
   4  12  -5    3.44    1.77
   4  12  -5    5.38    1.93
   4  12  -4   -0.85    1.57
   4  12  -4    3.27    1.92
   4  12  -3   12.52    2.20
   4  12  -3   16.33    2.44
   4  12  -2    8.71    1.95
   4  12  -1    1.81    1.34
   4  12  -1    3.96    1.80
   4  12   0    5.09    2.12
   4  12   0    3.19    1.53
   4  12   1    2.67    1.41
   4  12   1    2.34    1.77
   4  12   2    7.49    1.96
   4  12   3   11.60    2.23
   4  12   4   -0.33    1.60
   4  12   5    5.86    1.95
   4  12   6   -1.37    1.61
   4  12   7    0.38    1.73
  -4 -12  -7   -0.53    1.74
   4  12   8    1.45    1.83
  -4 -12  -8    1.64    1.82
   4  12   9    4.76    2.17
  -4 -12  -9    4.54    1.97
   4  12  10    2.81    2.06
  -4 -12 -10    4.26    1.95
   4  12  11    5.21    2.29
   3  13 -11    5.46    2.52
   3  13 -10   -0.65    2.14
   3  13  -9    2.18    2.00
   3  13  -9    1.69    2.18
   3  13  -8    6.46    2.18
   3  13  -8    5.75    2.30
   3  13  -7   -0.59    1.86
   3  13  -7    0.32    1.82
   3  13  -6    2.50    1.90
   3  13  -6    0.25    1.82
   3  13  -5   -3.37    1.64
   3  13  -5   -0.97    1.58
   3  13  -4    0.10    1.64
   3  13  -4    1.26    1.86
   3  13  -3   12.90    2.21
   3  13  -3    9.16    1.97
   3  13  -2    0.06    1.42
   3  13  -2   -0.54    1.53
   3  13  -1    0.92    1.66
   3  13  -1   -0.24    1.56
   3  13   0    6.90    1.91
   3  13   0    6.00    1.71
   3  13   1    1.91    1.71
   3  13   1    2.36    1.64
   3  13   2    1.04    1.74
   3  13   2    1.85    1.48
   3  13   3   10.95    2.17
   3  13   4   -2.63    1.40
   3  13   5    0.30    1.65
   3  13   6    1.52    1.76
   3  13   7   -0.47    1.62
   3  13   8    6.01    2.17
   3  13   9   -2.74    2.00
  -3 -13  -9    0.07    1.75
   3  13  10    0.00    1.83
   3  13  11    4.80    2.36
   2  14 -11   -0.71    2.24
   2  14 -10    1.86    2.69
   2  14  -9    2.14    2.20
   2  14  -8    8.88    2.26
   2  14  -8    5.11    2.33
   2  14  -7    6.10    2.58
   2  14  -7    2.97    1.93
   2  14  -6    1.87    2.30
   2  14  -6    1.92    1.82
   2  14  -5    0.76    1.79
   2  14  -5    1.37    1.79
   2  14  -4    1.76    1.80
   2  14  -4   -0.61    1.65
   2  14  -3    1.01    1.60
   2  14  -3   -0.66    1.40
   2  14  -2    0.71    1.51
   2  14  -2    1.42    1.83
   2  14  -1    0.57    1.51
   2  14  -1   -0.14    0.76
   2  14   0   11.24    2.07
   2  14   0   12.60    2.14
   2  14   1    2.35    1.64
   2  14   1    1.05    1.58
   2  14   2    0.73    1.69
   2  14   2   -0.63    1.84
   2  14   3    1.21    1.63
   2  14   4    0.42    1.68
   2  14   5   -0.61    1.85
   2  14   6    1.87    1.79
   2  14   7    2.60    1.90
   2  14   8    4.67    2.07
   2  14   9    3.42    2.31
   2  14  10    1.31    2.25
   2  14  11    1.17    2.01
   1  15 -10   -1.49    2.16
   1  15  -9   -0.20    2.19
   1  15  -8    3.92    2.34
   1  15  -7   11.67    2.59
   1  15  -6   -0.98    1.62
   1  15  -6    0.68    1.97
   1  15  -5    0.56    2.15
   1  15  -5    2.24    1.73
   1  15  -4    1.20    2.11
   1  15  -4    0.33    1.43
   1  15  -3    3.33    2.06
   1  15  -3    0.96    1.46
   1  15  -2   -0.70    1.77
   1  15  -2    0.88    1.74
   1  15  -1   12.50    2.23
   1  15  -1   10.76    1.93
   1  15   0    6.32    1.84
   1  15   0    4.51    1.86
   1  15   1   13.40    2.20
   1  15   1   13.92    2.48
   1  15   2    3.39    1.77
   1  15   2   -2.51    1.52
   1  15   3   -1.27    1.50
   1  15   4    2.45    1.96
   1  15   5   -0.83    1.59
   1  15   6    0.17    1.69
   1  15   7   11.69    2.52
   1  15   8    4.46    2.02
   1  15   9   -2.74    2.11
   1  15  10   -0.59    1.83
   0  16 -10   -2.82    2.21
   0  16  -9    0.50    2.74
   0  16  -8   -1.61    2.09
   0  16  -7    6.27    2.50
   0  16  -6    6.07    2.62
   0  16  -5   -0.47    1.88
   0  16  -5    2.92    1.78
   0  16  -4   -1.37    2.06
   0  16  -4    3.55    1.69
   0  16  -3    0.82    2.03
   0  16  -3    1.04    1.71
   0  16  -2    0.42    1.75
   0  16  -2    0.44    1.87
   0  16  -1    3.93    2.06
   0  16  -1    5.95    2.05
   0  16   0    0.48    0.64
   0  16   0    3.38    1.95
   0  16   1    6.61    2.09
   0  16   2    0.16    1.93
   0  16   2    1.33    1.75
   0  16   3   -2.52    1.81
   0  16   4    3.31    2.17
   0  16   5   -1.66    1.60
   0  16   6    0.73    1.78
   0  16   7    7.03    2.54
   0  16   8   -0.37    1.73
   0  16   9   -0.88    2.20
   0  16  10    1.51    1.96
  -1  17  -9    4.59    2.52
  -1  17  -8   -0.43    2.19
  -1  17  -7    2.33    2.27
  -1  17  -6    5.92    2.33
  -1  17  -5   -0.44    1.89
  -1  17  -4    5.13    2.08
  -1  17  -4    5.12    1.83
  -1  17  -3   -0.07    1.68
  -1  17  -3    2.87    1.88
  -1  17  -2   -0.32    1.61
  -1  17  -2   -1.20    1.35
  -1  17  -1   -0.85    1.73
  -1  17  -1    0.58    1.70
  -1  17   0   -2.71    1.60
  -1  17   0   -0.44    1.57
  -1  17   1    0.86    1.66
  -1  17   1    3.93    1.97
  -1  17   2   -0.79    1.79
  -1  17   2    0.35    1.91
  -1  17   3   -1.06    1.63
  -1  17   3    4.35    2.03
  -1  17   4    5.77    2.24
  -1  17   5    1.14    1.80
  -1  17   6    9.83    2.37
  -1  17   7    1.64    2.18
  -1  17   8    0.83    2.20
  -1  17   9    2.31    2.02
  -2  18  -8   -0.56    2.26
  -2  18  -7   -2.56    2.02
  -2  18  -6    3.06    2.18
  -2  18  -5   -1.03    1.91
  -2  18  -4    4.25    2.08
  -2  18  -3    9.28    2.53
  -2  18  -3    9.84    2.09
  -2  18  -2   -2.65    1.58
  -2  18  -2   -0.05    1.78
  -2  18  -1   -0.98    1.69
  -2  18  -1    2.06    1.76
  -2  18   0    0.12    1.55
  -2  18   0   -3.09    1.90
  -2  18   1    0.01    0.89
  -2  18   1    1.07    1.58
  -2  18   2   -1.23    1.89
  -2  18   2    0.74    1.67
  -2  18   3   14.11    2.68
  -2  18   3    8.07    2.38
  -2  18   4   -0.70    2.00
  -2  18   5    0.53    2.03
  -2  18   6    2.61    2.21
  -2  18   7    0.01    1.86
  -2  18   8    1.15    1.95
  -3  19  -8   -3.13    2.11
  -3  19  -7    0.51    2.19
  -3  19  -6    0.71    2.06
  -3  19  -5    3.50    2.19
  -3  19  -4    1.84    1.98
  -3  19  -3    8.69    2.60
  -3  19  -2    2.65    2.03
  -3  19  -2    0.81    1.75
  -3  19  -1    3.20    2.29
  -3  19  -1    0.51    1.77
  -3  19   0    3.37    1.75
  -3  19   0    3.73    2.34
  -3  19   1    3.31    2.27
  -3  19   1    2.54    1.98
  -3  19   2    0.82    1.97
  -3  19   2    2.24    0.98
  -3  19   3   10.22    2.27
  -3  19   3   13.85    2.68
  -3  19   4    0.37    2.14
  -3  19   5    0.78    1.81
  -3  19   6    3.16    2.02
  -3  19   7    0.73    2.31
  -3  19   8    0.52    1.96
  -4  20  -7    0.12    2.32
  -4  20  -6    3.17    2.27
  -4  20  -5   -0.83    2.00
  -4  20  -4    0.30    1.97
  -4  20  -3    2.90    2.53
  -4  20  -2    1.71    2.04
  -4  20  -1   -1.40    1.64
  -4  20  -1    1.40    1.99
  -4  20   0    4.99    2.40
  -4  20   0    3.98    2.02
  -4  20   1   -0.43    1.92
  -4  20   1   -0.12    1.86
  -4  20   2    3.61    2.11
  -4  20   2    2.72    2.29
  -4  20   3    3.61    2.24
  -4  20   3    1.57    1.87
  -4  20   4   -0.71    2.11
  -4  20   5    2.51    2.01
  -4  20   6   -0.12    1.86
  -4  20   7   -0.01    2.24
  -5  21  -5    0.53    2.24
  -5  21  -4    1.69    2.53
  -5  21  -3    1.58    2.19
  -5  21  -2   -0.13    2.04
  -5  21  -1   -0.47    1.98
  -5  21   0    1.06    1.92
  -5  21   1    4.47    2.46
  -5  21   1    3.20    2.02
  -5  21   2    0.54    1.94
  -5  21   2   -1.06    2.21
  -5  21   3    4.19    2.26
  -5  21   3   -1.64    1.30
  -5  21   4   -1.57    1.75
  -5  21   5    1.44    1.98
  -6  22  -3   -0.85    2.01
  -6  22  -2    0.51    2.11
  -6  22  -1    0.76    2.53
  -6  22   0    1.05    2.41
  -6  22   1    0.11    2.37
  -6  22   2   -1.76    1.89
  -6  22   2   -0.14    1.81
  -6  22   3    2.75    1.97
  -6  22   3    2.88    1.94
  22  -5  -2    0.39    2.14
  22  -5  -1    0.25    2.49
 -22   5   1   -3.36    2.25
  22  -5   0    3.55    2.61
 -22   5   0    3.53    2.58
  22  -5   1   -2.22    1.99
 -22   5  -1   -0.94    1.97
  22  -5   2   -0.60    1.94
 -22   5  -2   -1.26    2.44
  21  -4  -5   -1.41    2.22
  21  -4  -4   -1.55    2.46
  21  -4  -3    0.16    2.51
  21  -4  -2    2.43    2.55
  21  -4  -1   -0.34    2.11
 -21   4   1    0.17    2.37
  21  -4   0   -0.03    2.37
 -21   4   0   -1.19    1.92
  21  -4   1    2.50    2.57
 -21   4  -1    3.12    2.21
  21  -4   2    0.09    2.28
 -21   4  -2   -0.08    2.36
  21  -4   3    1.82    2.06
 -21   4  -3    0.92    2.07
  21  -4   4    2.34    2.02
 -21   4  -4    2.40    2.52
  20  -3  -6   -2.95    2.22
  20  -3  -5    0.32    2.25
  20  -3  -4   -2.86    2.00
  20  -3  -3    1.43    2.13
  20  -3  -2   -3.62    1.89
  20  -3  -1    3.53    2.51
 -20   3   1   -0.34    1.95
  20  -3   0    1.99    2.52
 -20   3   0    2.71    2.40
  20  -3   1   -0.38    1.97
 -20   3  -1    2.58    2.35
  20  -3   2    1.61    2.02
 -20   3  -2    0.97    2.03
  20  -3   3    0.24    2.19
 -20   3  -3    0.53    2.01
  20  -3   4   -0.71    2.14
 -20   3  -4    1.38    2.17
  20  -3   5   -3.49    1.81
 -20   3  -5   -0.52    2.08
  20  -3   6   -1.59    2.05
 -20   3  -6    0.86    2.33
  19  -2  -7    1.29    2.45
  19  -2  -6    2.17    2.67
  19  -2  -5    1.28    2.21
  19  -2  -4    5.83    2.72
  19  -2  -3   -0.50    1.98
  19  -2  -2    8.11    2.60
  19  -2  -1    0.17    2.09
  19  -2   0    4.21    2.55
 -19   2   0    4.25    2.50
  19  -2   1    0.18    2.00
 -19   2  -1    3.35    2.46
  19  -2   2    4.67    2.28
 -19   2  -2    6.27    2.32
  19  -2   3   -0.92    2.27
 -19   2  -3   -0.05    1.93
  19  -2   4   -0.84    2.26
 -19   2  -4    2.49    2.49
  19  -2   5    1.48    1.93
 -19   2  -5    3.44    2.23
  19  -2   6    1.02    2.20
 -19   2  -6   -1.75    2.44
  19  -2   7   -0.56    2.12
 -19   2  -7    0.30    2.20
  18  -1  -8   -3.17    2.13
  18  -1  -7    2.23    2.78
  18  -1  -6    1.31    2.23
  18  -1  -5   -0.49    2.45
  18  -1  -4    1.96    2.49
  18  -1  -3    3.41    2.28
  18  -1  -2    6.20    2.42
  18  -1  -1   -2.32    2.35
  18  -1   0    1.33    2.31
 -18   1   0   -0.34    1.92
  18  -1   1   -2.34    1.85
 -18   1  -1   -0.82    2.22
  18  -1   2    6.69    2.59
 -18   1  -2    7.32    2.32
  18  -1   3    1.94    2.06
 -18   1  -3   -1.05    1.89
  18  -1   4    1.89    1.98
 -18   1  -4    6.30    2.53
  18  -1   5    5.18    2.45
 -18   1  -5    0.83    2.13
  18  -1   6    0.60    2.09
 -18   1  -6    0.04    2.08
  18  -1   7   -0.29    2.14
 -18   1  -7    0.95    2.51
  18  -1   8   -1.14    2.15
 -18   1  -8    1.35    2.17
  17   0  -9   -0.62    2.64
  17   0  -8    0.33    2.25
  17   0  -7    0.57    2.67
  17   0  -6   11.16    2.81
  17   0  -5   -0.66    2.09
  17   0  -4    2.42    2.15
  17   0  -3    7.67    2.41
  17   0  -2    4.55    2.17
  17   0  -1   -3.94    1.76
  17   0   0    1.49    1.97
 -17   0   0    0.79    1.84
  17   0   1    1.07    1.88
 -17   0  -1   -1.26    1.77
  17   0   2    6.47    2.24
 -17   0  -2    2.03    2.28
  17   0   3    7.90    2.38
 -17   0  -3    8.16    2.27
  17   0   4   -2.85    2.10
 -17   0  -4    3.55    2.13
  17   0   5    0.13    1.82
 -17   0  -5    0.18    2.03
  17   0   6    9.40    2.71
 -17   0  -6    8.77    2.75
  17   0   7   -1.71    1.97
 -17   0  -7    3.66    2.69
  17   0   8    0.29    2.21
 -17   0  -8   -1.09    2.09
  16   1  -9    1.37    2.33
  16   1  -8   -4.02    2.39
  16   1  -7    3.10    2.33
  16   1  -6    4.54    2.35
  16   1  -5    1.31    2.13
  16   1  -4    2.02    2.02
  16   1  -3   -0.16    1.92
  16   1  -2    2.50    2.11
  16   1  -1   -0.10    1.90
  16   1   0    1.08    1.91
 -16  -1   0   -0.19    1.75
  16   1   1    3.12    2.01
 -16  -1  -1   -0.74    1.75
  16   1   2   -1.23    1.75
 -16  -1  -2   -0.40    1.79
  16   1   3   -0.02    1.86
 -16  -1  -3    2.37    2.03
  16   1   4    4.48    2.38
 -16  -1  -4   12.55    2.40
  16   1   5   -0.46    2.16
 -16  -1  -5    1.32    2.01
  16   1   6    5.47    2.17
 -16  -1  -6    4.82    2.27
  16   1   7    4.86    2.47
 -16  -1  -7    0.71    2.09
  16   1   8   -1.57    2.07
 -16  -1  -8   -3.73    2.27
  16   1   9   -1.89    2.12
 -16  -1  -9    0.86    2.59
  15   2 -10   -1.58    2.14
  15   2  -9    2.93    2.38
  15   2  -8   -1.30    2.13
  15   2  -7    2.73    2.67
  15   2  -6   10.88    2.68
  15   2  -5   -2.29    1.81
  15   2  -4    3.09    2.11
  15   2  -3    3.37    2.12
  15   2  -2    2.24    1.96
  15   2  -1    1.84    2.00
  15   2   0    1.32    2.25
  15   2   1    1.51    1.91
 -15  -2  -1    2.50    1.94
  15   2   2    4.97    2.33
 -15  -2  -2    4.94    2.02
  15   2   3    4.03    2.13
 -15  -2  -3    2.97    1.97
  15   2   4    3.11    1.94
 -15  -2  -4    1.93    1.90
  15   2   5   -0.73    1.71
 -15  -2  -5    1.10    1.87
  15   2   6    7.88    2.28
 -15  -2  -6    5.49    2.56
  15   2   7    4.31    2.36
 -15  -2  -7   -1.91    2.38
  15   2   8   -0.92    2.03
 -15  -2  -8   -1.25    1.99
  15   2   9   -1.24    2.17
 -15  -2  -9   -0.43    2.04
  15   2  10    0.48    2.33
 -15  -2 -10   -3.40    2.39
  14   3 -10    3.46    2.84
  14   3  -9    1.37    2.33
  14   3  -8    1.50    2.18
  14   3  -7    9.38    2.59
  14   3  -6    5.65    2.27
  14   3  -5    0.93    1.94
  14   3  -4    2.37    2.05
  14   3  -3    6.63    2.54
  14   3  -2   13.64    2.66
  14   3  -1    0.92    1.85
  14   3   0   -0.15    1.79
  14   3   1    1.88    1.96
 -14  -3  -1    3.17    1.92
  14   3   2   15.93    2.63
 -14  -3  -2   10.27    2.26
  14   3   3    2.91    1.98
 -14  -3  -3    4.57    2.31
  14   3   4    0.47    2.11
 -14  -3  -4    3.12    1.91
  14   3   5    0.01    2.14
 -14  -3  -5    2.19    1.91
  14   3   6    3.44    2.35
 -14  -3  -6    3.02    2.05
  14   3   7   11.55    2.83
 -14  -3  -7   12.66    2.91
  14   3   8   -0.38    2.04
 -14  -3  -8    2.04    2.13
  14   3   9   -0.42    2.20
 -14  -3  -9    3.56    2.24
  14   3  10    6.03    2.63
 -14  -3 -10    2.85    2.66
  13   4 -10   11.34    3.19
  13   4  -9    1.93    2.31
  13   4  -8    6.45    2.46
  13   4  -7    4.16    2.17
  13   4  -6    1.97    2.00
  13   4  -5    1.09    1.96
  13   4  -4    2.35    2.05
  13   4  -3    2.01    2.00
  13   4  -2   16.13    2.64
  13   4  -1    7.91    2.20
  13   4   0    2.37    1.91
  13   4   1    8.24    2.23
 -13  -4  -1    8.88    2.14
  13   4   2   22.39    2.90
 -13  -4  -2   13.84    2.46
  13   4   3    3.25    1.91
 -13  -4  -3    0.79    1.77
  13   4   4    1.62    1.82
 -13  -4  -4    2.27    1.83
  13   4   5    2.93    2.01
 -13  -4  -5    1.73    1.82
  13   4   6   -0.79    1.72
 -13  -4  -6   -0.59    1.84
  13   4   7    6.41    2.31
 -13  -4  -7    7.59    2.33
  13   4   8   -0.45    1.98
 -13  -4  -8    0.71    2.00
  13   4   9    3.50    2.45
 -13  -4  -9    0.36    2.12
  13   4  10    8.68    2.68
 -13  -4 -10   12.32    2.95
  12   5 -11    4.59    2.54
  12   5 -10    2.15    2.29
  12   5  -9    5.32    2.39
  12   5  -8    5.32    2.26
  12   5  -7    5.40    2.26
  12   5  -6    2.66    2.02
  12   5  -5    1.61    1.93
  12   5  -4   -0.43    2.15
  12   5  -3   12.29    2.71
  12   5  -2    2.24    1.88
  12   5  -1    4.32    2.02
  12   5   0    6.86    2.42
  12   5   1    6.62    2.18
  12   5   2    2.15    2.17
 -12  -5  -2    2.26    1.87
  12   5   3   19.01    2.71
 -12  -5  -3   12.62    2.56
  12   5   4    2.34    2.17
 -12  -5  -4    0.03    2.04
  12   5   5    3.28    2.00
 -12  -5  -5    1.22    1.80
  12   5   6    1.99    1.85
 -12  -5  -6    2.02    1.80
  12   5   7    1.06    2.26
 -12  -5  -7    3.32    2.04
  12   5   8    2.65    2.03
 -12  -5  -8    1.07    2.03
  12   5   9    7.50    2.65
 -12  -5  -9    3.67    2.17
  12   5  10   -0.46    1.84
 -12  -5 -10    1.78    2.10
  12   5  11    3.77    2.57
 -12  -5 -11    6.14    2.40
  11   6 -11    1.88    2.68
  11   6 -10   -0.07    2.16
  11   6  -9    3.33    2.22
  11   6  -8    2.11    2.09
  11   6  -7    3.78    2.13
  11   6  -6    3.52    2.32
  11   6  -5    1.60    2.26
  11   6  -4    3.59    2.06
  11   6  -3    3.23    2.00
  11   6  -2   -0.06    1.77
  11   6  -1    1.53    1.84
  11   6   0   -1.02    1.75
  11   6   1   -0.39    1.74
  11   6   2   -0.76    1.72
 -11  -6  -2    1.23    1.76
  11   6   3    3.68    2.17
 -11  -6  -3    5.66    1.96
  11   6   4    3.58    1.87
 -11  -6  -4    3.92    1.91
  11   6   5   -0.58    1.94
 -11  -6  -5   -0.68    1.75
  11   6   6    4.36    2.02
 -11  -6  -6    2.75    1.89
  11   6   7    3.72    2.41
 -11  -6  -7    3.34    1.96
  11   6   8    0.77    1.90
 -11  -6  -8    0.88    1.96
  11   6   9    0.74    1.93
 -11  -6  -9   -0.37    2.28
  11   6  10   -2.10    1.74
 -11  -6 -10   -1.46    1.92
  11   6  11    0.22    2.01
 -11  -6 -11    0.87    2.54
  10   7 -11   -0.65    2.15
  10   7 -10    1.80    2.51
  10   7  -9   -2.16    1.86
  10   7  -8    3.21    2.35
  10   7  -7    3.32    2.01
  10   7  -6   10.40    2.36
  10   7  -5    0.56    1.87
  10   7  -4    2.43    1.97
  10   7  -3    1.20    1.79
  10   7  -2    1.04    1.77
  10   7  -1    2.13    1.91
  10   7  -1    2.66    1.35
  10   7   0    6.71    2.03
  10   7   0    5.58    1.35
  10   7   1    1.47    1.87
  10   7   2   -0.10    1.71
  10   7   3    0.71    1.66
 -10  -7  -3   -1.45    1.56
  10   7   4   -1.37    1.62
 -10  -7  -4    3.62    1.78
  10   7   5   -1.50    1.57
 -10  -7  -5    2.54    1.76
  10   7   6    8.58    2.29
 -10  -7  -6    9.62    2.16
  10   7   7   -0.38    2.15
 -10  -7  -7    1.48    2.10
  10   7   8   -1.18    2.08
 -10  -7  -8    3.62    2.26
  10   7   9    4.49    2.50
 -10  -7  -9   -0.43    1.86
  10   7  10    2.50    2.40
 -10  -7 -10    0.73    1.94
  10   7  11    0.56    2.39
 -10  -7 -11    4.09    2.47
   9   8 -11   -2.01    2.29
   9   8 -10   -0.92    1.91
   9   8  -9    1.57    2.01
   9   8  -8   -1.78    2.18
   9   8  -7    7.59    2.26
   9   8  -6    4.60    2.35
   9   8  -5    7.24    2.23
   9   8  -4    5.55    2.25
   9   8  -4   -0.02    1.39
   9   8  -3    1.01    0.95
   9   8  -3    1.62    1.78
   9   8  -2    2.34    1.50
   9   8  -2   -0.57    1.77
   9   8  -1    8.96    1.72
   9   8  -1    8.15    2.40
   9   8   0    1.26    1.19
   9   8   0    4.63    1.96
   9   8   1    8.55    2.08
   9   8   2    0.49    2.01
   9   8   3    2.54    2.11
   9   8   4   -0.66    1.59
  -9  -8  -4    1.48    1.74
   9   8   5    6.71    2.11
  -9  -8  -5    9.26    2.24
   9   8   6    2.65    1.94
  -9  -8  -6    5.49    1.96
   9   8   7    8.21    2.39
  -9  -8  -7    9.04    2.41
   9   8   8    0.12    1.90
  -9  -8  -8    0.53    2.06
   9   8   9    3.80    2.32
  -9  -8  -9    2.01    1.90
   9   8  10   -0.38    1.85
  -9  -8 -10   -2.40    1.68
   9   8  11    0.45    2.33
  -9  -8 -11    1.71    2.36
   8   9 -11    1.29    2.34
   8   9 -11   -3.90    1.85
   8   9 -10    1.23    2.35
   8   9 -10    3.29    2.16
   8   9  -9    4.97    2.50
   8   9  -9    4.61    2.45
   8   9  -8   -0.66    1.89
   8   9  -8   -0.27    2.18
   8   9  -7    8.67    2.56
   8   9  -7    7.45    2.13
   8   9  -6    3.20    2.01
   8   9  -6    3.11    1.74
   8   9  -5    8.72    2.49
   8   9  -5    9.09    2.00
   8   9  -4    1.23    1.49
   8   9  -4    1.87    1.82
   8   9  -3    0.69    0.50
   8   9  -3    1.03    2.05
   8   9  -2    4.89    1.93
   8   9  -2    0.76    1.48
   8   9  -1    9.38    2.22
   8   9  -1   15.29    1.97
   8   9   0    0.62    1.34
   8   9   0    1.23    1.83
   8   9   1   10.63    2.17
   8   9   2    1.74    1.75
   8   9   3   -1.59    1.60
   8   9   4    0.08    1.60
  -8  -9  -4    0.48    1.64
   8   9   5    5.57    2.07
  -8  -9  -5    7.82    2.00
   8   9   6    2.63    2.11
  -8  -9  -6    3.71    1.79
   8   9   7    9.32    2.33
  -8  -9  -7   10.41    2.19
   8   9   8    3.08    2.08
  -8  -9  -8   -0.14    1.68
   8   9   9   -2.26    2.06
  -8  -9  -9    2.29    2.07
   8   9  10    2.23    2.04
  -8  -9 -10    0.67    1.76
   8   9  11    0.14    1.99
  -8  -9 -11    3.00    2.31
   7  10 -11   -0.33    2.24
   7  10 -11   -2.85    2.01
   7  10 -10   -2.70    1.68
   7  10 -10    0.02    2.02
   7  10  -9    4.85    2.48
   7  10  -9    4.36    2.12
   7  10  -8    4.46    2.08
   7  10  -8    3.47    2.07
   7  10  -7   -1.29    1.71
   7  10  -7    0.31    2.18
   7  10  -6   14.44    2.41
   7  10  -6   13.64    2.64
   7  10  -5    0.94    1.62
   7  10  -5    0.59    1.74
   7  10  -4    2.64    1.87
   7  10  -4    2.12    2.05
   7  10  -3   -0.39    1.68
   7  10  -3    1.14    0.97
   7  10  -2    0.57    1.51
   7  10  -2   -0.19    1.93
   7  10  -1    0.57    1.68
   7  10  -1    0.79    1.41
   7  10   0    3.57    1.82
   7  10   0    3.36    1.51
   7  10   1   -0.61    1.58
   7  10   2   -0.94    1.62
   7  10   3    1.44    1.79
   7  10   4    1.02    1.65
   7  10   5   -2.17    1.57
  -7 -10  -5    1.44    1.94
   7  10   6   11.94    2.66
  -7 -10  -6   16.23    2.33
   7  10   7    0.43    1.75
  -7 -10  -7   -0.01    1.59
   7  10   8    3.81    2.31
  -7 -10  -8    5.35    1.95
   7  10   9    3.50    2.10
  -7 -10  -9    1.61    1.83
   7  10  10   -0.57    1.87
  -7 -10 -10   -0.60    1.92
   7  10  11    3.50    2.29
  -7 -10 -11    0.81    2.10
   6  11 -11    3.65    2.46
   6  11 -11    1.56    2.24
   6  11 -10    1.42    2.36
   6  11 -10    1.06    2.11
   6  11  -9    4.00    2.27
   6  11  -9    5.36    2.27
   6  11  -8    1.76    2.03
   6  11  -8    0.37    2.17
   6  11  -7    4.18    1.94
   6  11  -7    2.49    2.26
   6  11  -6    6.30    2.05
   6  11  -6    5.68    2.33
   6  11  -5   -2.41    1.82
   6  11  -5    1.69    1.73
   6  11  -4    5.66    2.19
   6  11  -4    3.86    1.68
   6  11  -3    4.47    1.82
   6  11  -3    5.82    1.73
   6  11  -2    3.49    1.81
   6  11  -2    1.51    1.59
   6  11  -1   -0.29    1.45
   6  11  -1    0.12    1.56
   6  11   0    2.59    1.51
   6  11   0   -0.12    1.95
   6  11   1   -0.03    1.62
   6  11   2    1.49    1.67
   6  11   3    6.29    2.19
   6  11   4    4.88    1.90
   6  11   5    1.28    1.68
   6  11   6    3.37    1.90
  -6 -11  -6    4.33    1.80
   6  11   7    2.43    1.97
  -6 -11  -7    2.98    1.73
   6  11   8    0.21    1.88
  -6 -11  -8    4.57    2.10
   6  11   9    1.26    2.01
  -6 -11  -9    1.27    2.04
   6  11  10    0.17    1.86
  -6 -11 -10    3.98    2.09
   6  11  11    4.40    2.62
  -6 -11 -11    8.41    2.40
   5  12 -11    5.98    2.61
   5  12 -10    1.40    2.24
   5  12 -10    1.08    2.16
   5  12  -9    6.85    2.51
   5  12  -9    7.52    2.40
   5  12  -8    6.47    2.35
   5  12  -8    2.09    2.06
   5  12  -7    3.62    2.15
   5  12  -7    2.05    1.99
   5  12  -6    1.44    1.87
   5  12  -6    4.33    2.12
   5  12  -5   -0.89    1.59
   5  12  -5    1.05    1.71
   5  12  -4   -1.19    1.79
   5  12  -4    1.30    1.63
   5  12  -3   15.17    2.35
   5  12  -3   16.29    2.44
   5  12  -2    3.29    2.04
   5  12  -2    3.13    1.41
   5  12  -1    4.89    1.73
   5  12  -1    8.90    2.03
   5  12   0    4.36    1.70
   5  12   0    5.25    1.88
   5  12   1    7.36    1.97
   5  12   1    6.10    1.55
   5  12   2    3.79    2.03
   5  12   3   12.29    2.28
   5  12   4   -0.09    1.68
   5  12   5    3.45    1.84
   5  12   6    0.67    1.73
   5  12   7    4.17    2.03
  -5 -12  -7    3.32    1.68
   5  12   8    0.97    1.86
  -5 -12  -8    2.59    1.94
   5  12   9    0.68    2.21
  -5 -12  -9    3.88    2.07
   5  12  10    1.78    2.07
  -5 -12 -10    2.67    1.90
   5  12  11    7.09    2.75
   4  13 -10   15.32    2.99
   4  13  -9    1.49    2.10
   4  13  -9   -0.47    2.07
   4  13  -8   -1.36    1.97
   4  13  -8    2.03    2.12
   4  13  -7    9.33    2.29
   4  13  -7    4.77    2.28
   4  13  -6   -1.63    1.74
   4  13  -6    0.46    1.63
   4  13  -5    3.83    1.95
   4  13  -5    2.06    1.95
   4  13  -4    2.92    1.97
   4  13  -4    0.58    1.66
   4  13  -3    4.14    2.01
   4  13  -3    2.13    1.94
   4  13  -2   18.00    2.44
   4  13  -1    9.21    2.29
   4  13  -1   10.48    1.83
   4  13   0    3.91    1.62
   4  13   0    3.13    2.00
   4  13   1    8.75    2.04
   4  13   1    5.97    1.60
   4  13   2   14.90    2.41
   4  13   3    4.45    1.87
   4  13   4    4.35    1.92
   4  13   5   -0.14    1.57
   4  13   6   -0.68    2.00
   4  13   7    6.49    2.23
   4  13   8    5.71    2.26
   4  13   9    1.33    1.86
  -4 -13  -9    5.49    2.02
   4  13  10   12.30    2.99
   3  14 -10    5.56    2.50
   3  14  -9    3.05    2.32
   3  14  -8    1.07    2.46
   3  14  -8    0.82    2.12
   3  14  -7    8.94    2.24
   3  14  -7    6.97    2.35
   3  14  -6    6.88    2.16
   3  14  -6    1.16    2.30
   3  14  -5    5.09    2.01
   3  14  -5    2.57    1.90
   3  14  -4    2.47    1.80
   3  14  -4    5.26    1.99
   3  14  -3    5.70    2.12
   3  14  -3    4.07    2.10
   3  14  -2   15.32    2.27
   3  14  -2   11.80    2.23
   3  14  -1    4.64    1.58
   3  14  -1    3.27    1.97
   3  14   0   -0.32    1.47
   3  14   0    1.38    1.59
   3  14   1    4.50    2.10
   3  14   1    5.16    1.69
   3  14   2   12.77    2.27
   3  14   3    2.75    1.81
   3  14   4    0.38    1.67
   3  14   5    2.91    1.94
   3  14   6    2.78    1.91
   3  14   7    8.43    2.56
   3  14   8    0.41    1.81
   3  14   9    1.05    1.98
   3  14  10    5.07    2.33
   2  15 -10    3.03    2.50
   2  15  -9    1.70    2.40
   2  15  -8    0.77    2.19
   2  15  -7    5.27    2.73
   2  15  -7    1.59    1.96
   2  15  -6    6.91    2.72
   2  15  -6    8.30    2.17
   2  15  -5    0.91    1.95
   2  15  -5   -1.13    1.72
   2  15  -4    5.50    2.03
   2  15  -4    0.93    1.79
   2  15  -3    5.42    1.76
   2  15  -3    7.83    2.01
   2  15  -2    1.48    1.60
   2  15  -2    0.78    1.58
   2  15  -1   -2.08    1.07
   2  15  -1    1.82    1.87
   2  15   0    1.83    1.96
   2  15   0    3.31    1.70
   2  15   1    2.02    1.71
   2  15   1    1.25    1.66
   2  15   2    1.67    1.75
   2  15   3    5.17    2.17
   2  15   4    4.36    1.95
   2  15   5    0.49    1.77
   2  15   6    7.88    2.25
   2  15   7    2.78    2.04
   2  15   8   -0.86    1.71
   2  15   9    1.07    1.89
   2  15  10    1.44    2.42
   1  16  -9   -2.11    2.17
   1  16  -8   -0.93    2.61
   1  16  -7    0.70    2.15
   1  16  -6    9.41    2.27
   1  16  -6    9.29    2.50
   1  16  -5   -2.45    1.82
   1  16  -5    1.45    1.98
   1  16  -4    7.98    2.08
   1  16  -4    4.47    2.09
   1  16  -3    3.23    1.85
   1  16  -3    1.26    1.55
   1  16  -2    0.97    1.84
   1  16  -2   -0.55    1.55
   1  16  -1    1.53    1.28
   1  16  -1    0.31    1.84
   1  16   0    0.97    1.89
   1  16   0    2.55    1.85
   1  16   1    1.70    2.02
   1  16   1    2.08    1.91
   1  16   2    1.45    2.05
   1  16   3    0.11    1.72
   1  16   4    6.64    2.08
   1  16   5    0.00    1.73
   1  16   6    8.64    2.28
   1  16   7    0.65    2.15
   1  16   8   -2.18    1.59
   1  16   9    1.98    2.07
   0  17  -8   -2.76    2.14
   0  17  -7   -2.14    2.02
   0  17  -6    6.12    2.48
   0  17  -5    0.53    1.96
   0  17  -5    2.80    1.86
   0  17  -4    2.56    1.80
   0  17  -4    3.04    2.03
   0  17  -3   11.81    2.28
   0  17  -3    8.85    2.19
   0  17  -2    5.19    2.07
   0  17  -2    1.56    2.10
   0  17  -1    1.15    1.90
   0  17  -1   -0.43    1.57
   0  17   0    0.46    1.26
   0  17   0   -1.54    1.81
   0  17   1    0.88    1.62
   0  17   1    2.21    1.95
   0  17   2    5.24    2.10
   0  17   2    3.37    1.86
   0  17   3   15.96    2.78
   0  17   4    1.32    1.84
   0  17   5    1.10    2.15
   0  17   6    8.54    2.31
   0  17   7   -1.39    1.75
   0  17   8   -0.21    2.23
  -1  18  -8   -1.57    2.29
  -1  18  -7   -0.23    2.18
  -1  18  -6   -0.18    2.12
  -1  18  -5    0.74    2.33
  -1  18  -4    2.90    2.10
  -1  18  -3    4.10    1.97
  -1  18  -3    0.64    1.83
  -1  18  -2    7.18    2.07
  -1  18  -2    9.09    2.25
  -1  18  -1   -1.87    1.78
  -1  18  -1    1.56    2.08
  -1  18   0   -3.26    1.29
  -1  18   0   -2.03    1.47
  -1  18   1   -0.38    1.65
  -1  18   1    2.85    1.87
  -1  18   2    8.85    2.45
  -1  18   2    8.90    2.34
  -1  18   3    2.74    2.23
  -1  18   4    3.74    2.02
  -1  18   5   -0.28    1.74
  -1  18   6    1.12    1.97
  -1  18   7   -0.05    1.80
  -1  18   8    1.17    2.04
  -2  19  -7   -1.08    2.12
  -2  19  -6   -4.38    2.29
  -2  19  -5    1.52    2.04
  -2  19  -4    0.52    2.36
  -2  19  -3    0.95    1.92
  -2  19  -2    7.32    2.14
  -2  19  -2    6.90    2.45
  -2  19  -1   -1.20    1.78
  -2  19  -1    2.47    1.98
  -2  19   0    4.76    2.15
  -2  19   0    1.87    2.24
  -2  19   1   -0.75    0.59
  -2  19   1   -0.13    2.02
  -2  19   2    5.11    2.01
  -2  19   2    3.86    1.93
  -2  19   3   -0.88    1.65
  -2  19   4    0.93    2.17
  -2  19   5    4.45    2.34
  -2  19   6   -2.93    1.72
  -2  19   7    1.76    2.00
  -3  20  -6   -6.06    2.38
  -3  20  -5   -0.80    1.93
  -3  20  -4    0.19    2.35
  -3  20  -3    0.73    2.07
  -3  20  -2    5.63    2.20
  -3  20  -1    1.73    1.85
  -3  20  -1    0.27    2.29
  -3  20   0    0.94    1.91
  -3  20   0    1.39    2.29
  -3  20   1    4.27    2.13
  -3  20   1   -2.46    1.68
  -3  20   2    0.67    1.72
  -3  20   2   -0.13    1.68
  -3  20   3    3.24    2.24
  -3  20   4   -2.76    2.03
  -3  20   5    3.08    2.02
  -3  20   6   -1.18    2.32
  -4  21  -4    2.71    2.26
  -4  21  -3    2.60    2.58
  -4  21  -2    0.46    2.37
  -4  21  -1    2.15    2.40
  -4  21   0   -0.51    1.98
  -4  21   0    0.34    1.88
  -4  21   1    0.23    1.90
  -4  21   1    0.31    2.30
  -4  21   2    0.50    2.02
  -4  21   2    0.62    1.86
  -4  21   3    2.42    2.21
  -4  21   4    0.74    2.24
  -5  22  -2    1.21    2.20
  -5  22  -1    0.93    2.48
  -5  22   0    4.44    2.67
  -5  22   1    2.34    2.42
  -5  22   1   -0.14    1.95
  -5  22   2    0.77    2.08
  -5  22   2    2.60    2.06
  21  -3  -3    3.25    2.29
  21  -3  -2    0.51    2.18
  21  -3  -1    1.72    2.25
  21  -3   0    1.11    2.51
 -21   3   0    1.91    2.14
  21  -3   1   -1.14    1.91
 -21   3  -1   -1.13    1.89
  21  -3   2    2.75    2.59
 -21   3  -2    1.48    2.06
  21  -3   3   -0.10    2.35
 -21   3  -3    0.92    2.40
  20  -2  -5    1.99    2.32
  20  -2  -4    4.57    2.72
  20  -2  -3    5.23    2.38
  20  -2  -2    3.56    2.61
  20  -2  -1   -2.06    2.00
  20  -2   0    0.89    2.48
 -20   2   0    0.50    2.32
  20  -2   1   -0.16    2.31
 -20   2  -1   -1.24    1.98
  20  -2   2   -2.76    2.23
 -20   2  -2    5.29    2.58
  20  -2   3    0.47    2.38
 -20   2  -3   -0.66    1.99
  20  -2   4    2.53    2.43
 -20   2  -4    7.04    2.38
  20  -2   5   -0.92    1.72
 -20   2  -5    5.37    2.44
  19  -1  -6    2.37    2.71
  19  -1  -5    3.92    2.34
  19  -1  -4    4.20    2.70
  19  -1  -3    4.69    2.37
  19  -1  -2    0.19    2.51
  19  -1  -1    2.00    2.23
  19  -1   0    8.97    2.77
 -19   1   0   11.23    2.52
  19  -1   1    1.67    2.07
 -19   1  -1   -1.14    1.91
  19  -1   2    0.31    2.42
 -19   1  -2    0.24    2.31
  19  -1   3    3.71    2.28
 -19   1  -3    2.68    2.19
  19  -1   4    7.74    2.77
 -19   1  -4   -0.80    2.36
  19  -1   5    5.00    2.18
 -19   1  -5    5.55    2.46
  19  -1   6    5.39    2.55
 -19   1  -6    1.64    2.24
  18   0  -7    2.47    2.44
  18   0  -6    2.07    2.57
  18   0  -5    3.20    2.24
  18   0  -4   -1.06    2.37
  18   0  -3    4.11    2.32
  18   0  -2    8.02    2.46
  18   0  -1    4.55    2.36
  18   0   0    0.36    2.16
 -18   0   0    0.45    2.03
  18   0   1    1.02    2.04
 -18   0  -1    3.39    2.18
  18   0   2    5.09    2.24
 -18   0  -2    3.80    2.18
  18   0   3   -0.02    1.86
 -18   0  -3    0.99    2.08
  18   0   4    3.96    2.40
 -18   0  -4   -0.85    1.97
  18   0   5    1.58    2.29
 -18   0  -5    8.18    2.47
  18   0   6   -0.30    2.20
 -18   0  -6   -1.65    1.97
  18   0   7   -1.73    2.02
 -18   0  -7   -0.11    2.09
  17   1  -8   -1.38    2.28
  17   1  -7   -2.95    2.00
  17   1  -6    2.67    2.22
  17   1  -5    1.77    2.13
  17   1  -4    3.42    2.27
  17   1  -3    3.43    2.64
  17   1  -2    4.69    2.32
  17   1  -1   -0.35    2.02
  17   1   0    1.40    2.36
  17   1   1   -1.64    1.88
 -17  -1  -1   -0.01    1.97
  17   1   2    7.54    2.36
 -17  -1  -2   11.43    2.80
  17   1   3    2.50    2.12
 -17  -1  -3    6.81    2.56
  17   1   4    1.94    2.37
 -17  -1  -4    5.56    2.22
  17   1   5   -0.15    1.84
 -17  -1  -5    3.88    2.20
  17   1   6    1.79    1.97
 -17  -1  -6    3.52    2.20
  17   1   7    1.53    1.98
 -17  -1  -7   -1.62    2.01
  17   1   8    0.25    1.89
 -17  -1  -8    0.75    2.24
  16   2  -8   -0.58    2.15
  16   2  -7    1.08    2.19
  16   2  -6    4.08    2.66
  16   2  -5    0.87    2.15
  16   2  -4    3.12    2.17
  16   2  -3    3.57    2.25
  16   2  -2    2.46    2.10
  16   2  -1   -0.40    1.87
  16   2   0    1.75    1.98
  16   2   1   -2.96    1.73
 -16  -2  -1   -0.48    1.83
  16   2   2   -2.64    1.70
 -16  -2  -2    0.63    1.89
  16   2   3    7.37    2.33
 -16  -2  -3    6.87    2.25
  16   2   4    3.05    2.41
 -16  -2  -4    3.42    2.07
  16   2   5   -0.79    1.82
 -16  -2  -5   -1.66    1.81
  16   2   6    3.29    2.14
 -16  -2  -6   -0.67    2.29
  16   2   7   -1.19    2.13
 -16  -2  -7    0.70    2.17
  16   2   8    1.06    2.22
 -16  -2  -8   -0.26    2.13
  15   3  -9    1.23    2.27
  15   3  -8   -2.22    2.13
  15   3  -7    5.77    2.70
  15   3  -6    3.56    2.54
  15   3  -5    5.38    2.27
  15   3  -4    7.30    2.41
  15   3  -3   -2.89    2.20
  15   3  -2    3.00    2.41
  15   3  -1    3.75    2.20
  15   3   0    1.48    1.92
  15   3   1    0.99    2.30
 -15  -3  -1    2.67    1.96
  15   3   2    3.05    2.09
 -15  -3  -2    4.37    2.35
  15   3   3    1.58    1.96
 -15  -3  -3    0.16    2.20
  15   3   4   10.69    2.52
 -15  -3  -4    5.88    2.27
  15   3   5    4.26    2.15
 -15  -3  -5    3.96    2.11
  15   3   6    4.40    2.13
 -15  -3  -6   -0.43    2.32
  15   3   7    1.12    2.33
 -15  -3  -7    0.23    2.38
  15   3   8    1.83    2.33
 -15  -3  -8    0.18    2.17
  15   3   9    3.18    2.30
 -15  -3  -9   -1.51    2.17
  14   4  -9    9.83    2.79
  14   4  -8    0.74    2.18
  14   4  -7    2.99    2.23
  14   4  -6   11.44    2.55
  14   4  -5    5.28    2.27
  14   4  -4   -2.19    2.24
  14   4  -3   20.40    2.92
  14   4  -2   -1.59    1.91
  14   4  -1   -0.27    1.84
  14   4   0   12.58    2.52
  14   4   1    5.01    2.11
  14   4   2   -0.62    1.79
 -14  -4  -2   -0.60    1.77
  14   4   3   18.32    2.78
 -14  -4  -3   21.43    2.78
  14   4   4    1.27    1.95
 -14  -4  -4    1.70    2.17
  14   4   5    5.41    2.50
 -14  -4  -5    7.02    2.17
 -14  -4  -6    8.31    2.33
  14   4   7    6.11    2.37
 -14  -4  -7    0.90    1.96
  14   4   8   -1.79    2.09
 -14  -4  -8    3.36    2.21
  14   4   9    9.09    2.67
 -14  -4  -9    7.68    2.51
  13   5 -10    6.17    2.61
  13   5  -9    0.58    2.58
  13   5  -8    4.90    2.31
  13   5  -7    0.39    2.01
  13   5  -6    0.53    2.43
  13   5  -5   -1.86    1.88
  13   5  -4    9.94    2.48
  13   5  -3    5.77    2.22
  13   5  -2   11.20    2.44
  13   5  -1    3.54    1.99
  13   5   0    7.43    2.25
  13   5   1    0.27    1.71
  13   5   2   14.84    2.61
 -13  -5  -2   10.71    2.34
  13   5   3    6.18    2.14
 -13  -5  -3    3.51    1.92
  13   5   4    7.68    2.29
 -13  -5  -4   10.41    2.32
  13   5   5   -0.56    2.20
 -13  -5  -5   -1.83    1.71
  13   5   6    2.13    2.04
 -13  -5  -6    2.24    1.96
  13   5   7    5.60    2.40
 -13  -5  -7    3.33    2.10
  13   5   8    3.94    2.45
 -13  -5  -8    2.40    2.43
  13   5   9    5.37    2.39
 -13  -5  -9    3.70    2.60
  13   5  10    4.90    2.33
 -13  -5 -10    4.40    2.41
  12   6 -10    4.95    2.80
  12   6  -9    2.86    2.22
  12   6  -8   -1.44    2.32
  12   6  -7    6.03    2.28
  12   6  -6    4.56    2.56
  12   6  -5    2.65    2.09
  12   6  -4   11.48    2.80
  12   6  -3    6.90    2.28
  12   6  -2    3.70    2.28
  12   6  -1    7.47    2.25
  12   6   0   -1.46    1.68
  12   6   1    7.05    2.19
  12   6   2    2.22    1.83
  12   6   3    3.05    1.96
 -12  -6  -3    5.62    2.08
  12   6   4    6.64    2.23
 -12  -6  -4   10.59    2.50
  12   6   5    1.75    2.18
 -12  -6  -5    1.32    1.84
  12   6   6   -1.72    2.10
 -12  -6  -6    0.71    2.21
  12   6   7    4.23    2.23
 -12  -6  -7    7.94    2.23
  12   6   8    1.05    1.92
 -12  -6  -8   -1.66    2.18
  12   6   9   -0.80    1.87
 -12  -6  -9   -1.90    1.87
  12   6  10    8.48    2.60
 -12  -6 -10    6.54    2.73
  11   7 -10   -0.44    2.46
  11   7  -9   -0.50    2.36
  11   7  -8   -0.16    1.99
  11   7  -7    7.71    2.61
  11   7  -6    5.90    2.28
  11   7  -5   -1.14    1.89
  11   7  -4    1.25    1.93
  11   7  -3    4.13    2.01
  11   7  -2    5.13    2.01
  11   7  -1    1.36    1.87
  11   7  -1    5.90    1.48
  11   7   0    0.16    1.71
  11   7   1    2.91    1.84
  11   7   2    3.07    1.96
  11   7   3    2.31    1.86
 -11  -7  -3   -1.11    1.70
  11   7   4   -1.74    1.63
 -11  -7  -4   -1.22    1.71
  11   7   5   -3.17    1.54
 -11  -7  -5   -0.15    1.72
  11   7   6    5.97    2.21
 -11  -7  -6    2.66    1.95
  11   7   7    7.49    2.36
 -11  -7  -7    3.12    2.32
  11   7   8    0.87    2.23
 -11  -7  -8    0.19    2.16
  11   7   9    1.55    2.38
 -11  -7  -9    0.99    2.28
  11   7  10   -1.50    1.87
 -11  -7 -10    2.63    2.50
  10   8 -10    0.36    2.01
  10   8  -9    4.07    2.22
  10   8  -8   10.53    2.87
  10   8  -7   14.58    3.02
  10   8  -6    0.44    1.95
  10   8  -5    4.45    2.17
  10   8  -4    1.96    1.81
  10   8  -4    0.46    1.38
  10   8  -3    3.32    1.91
  10   8  -3    2.03    1.39
  10   8  -2    2.95    1.55
  10   8  -2    0.76    1.83
  10   8  -1   14.83    2.50
  10   8  -1   14.24    1.90
  10   8   0   12.34    2.40
  10   8   1   14.46    2.42
  10   8   2    3.02    1.94
  10   8   3    2.90    2.14
  10   8   4    1.93    1.78
 -10  -8  -4   -0.21    1.74
  10   8   5    3.80    1.95
 -10  -8  -5    6.69    2.29
  10   8   6    0.75    1.83
 -10  -8  -6    0.63    2.10
  10   8   7   13.75    2.81
 -10  -8  -7   10.57    2.34
  10   8   8    6.13    2.60
 -10  -8  -8    7.85    2.20
  10   8   9    0.27    2.02
 -10  -8  -9   -0.45    1.77
  10   8  10   -0.21    1.85
 -10  -8 -10    0.27    1.89
   9   9 -10    1.78    2.12
   9   9 -10    3.58    2.52
   9   9  -9    3.08    2.18
   9   9  -9    0.58    1.97
   9   9  -8   16.64    3.06
   9   9  -8   10.38    2.48
   9   9  -7    1.73    2.18
   9   9  -7    2.73    2.42
   9   9  -6   11.35    2.50
   9   9  -6    9.74    2.23
   9   9  -5    0.35    1.84
   9   9  -5   -2.79    1.74
   9   9  -4   12.08    2.58
   9   9  -4    9.95    2.00
   9   9  -3    1.35    1.35
   9   9  -3   -2.56    1.96
   9   9  -2   -0.12    1.40
   9   9  -2    5.08    1.97
   9   9  -1    4.91    1.73
   9   9  -1    6.41    2.34
   9   9   0   42.71    3.87
   9   9   1    3.81    1.88
   9   9   2    0.32    1.67
   9   9   3   -1.23    1.58
   9   9   4   14.87    2.52
   9   9   5    2.06    1.87
  -9  -9  -5    1.24    1.73
   9   9   6   10.31    2.70
  -9  -9  -6    8.59    2.11
   9   9   7    2.88    2.06
  -9  -9  -7   -0.29    2.12
   9   9   8   11.77    3.06
  -9  -9  -8   15.18    2.78
   9   9   9   -1.16    1.84
  -9  -9  -9    0.09    1.82
   9   9  10    1.81    2.08
  -9  -9 -10   -0.10    1.81
   8  10 -10   -0.64    2.04
   8  10 -10    1.57    2.43
   8  10  -9    0.63    2.06
   8  10  -9   -0.40    2.30
   8  10  -8    6.90    2.29
   8  10  -8    1.63    2.07
   8  10  -7   17.67    3.02
   8  10  -7   14.43    2.81
   8  10  -6    0.50    1.76
   8  10  -6    4.05    2.01
   8  10  -5    8.34    2.28
   8  10  -5    6.15    1.92
   8  10  -4    0.82    1.84
   8  10  -4    2.79    2.20
   8  10  -3    0.46    1.17
   8  10  -3    2.68    2.16
   8  10  -2    0.04    1.73
   8  10  -2    2.75    1.63
   8  10  -1   18.57    2.20
   8  10  -1   15.75    2.50
   8  10   0    8.12    2.02
   8  10   1   19.75    2.67
   8  10   2   -0.57    1.62
   8  10   3    3.35    1.88
   8  10   4   -1.18    1.60
   8  10   5    6.17    2.05
  -8 -10  -5    5.52    1.94
   8  10   6   -0.35    1.73
  -8 -10  -6    3.35    2.09
   8  10   7   13.28    2.90
  -8 -10  -7   16.04    2.42
   8  10   8    5.05    2.32
  -8 -10  -8    7.27    2.15
   8  10   9    0.03    1.93
  -8 -10  -9   -0.80    2.07
   8  10  10   -1.67    1.84
  -8 -10 -10    1.37    2.19
   7  11 -10    0.79    2.32
   7  11 -10    1.16    2.17
   7  11  -9   -2.64    2.14
   7  11  -9   -2.34    2.37
   7  11  -8    0.28    2.01
   7  11  -8    2.01    2.34
   7  11  -7   10.18    2.72
   7  11  -7    5.45    2.41
   7  11  -6    6.08    2.04
   7  11  -6    6.11    2.41
   7  11  -5   -0.72    1.58
   7  11  -5    1.41    1.84
   7  11  -4   -1.28    1.84
   7  11  -4   -1.10    1.66
   7  11  -3   -0.05    0.56
   7  11  -3    1.20    2.04
   7  11  -2    1.48    1.64
   7  11  -2    3.62    1.86
   7  11  -1    3.98    1.61
   7  11  -1    3.82    2.10
   7  11   0    2.86    1.82
   7  11   1    4.50    1.92
   7  11   2    1.30    1.68
   7  11   3    0.84    2.03
   7  11   4   -0.25    1.72
   7  11   5   -0.46    1.72
   7  11   6    5.43    2.10
  -7 -11  -6    6.45    1.99
   7  11   7    5.48    2.16
  -7 -11  -7    6.67    2.00
   7  11   8    1.25    1.86
  -7 -11  -8    2.29    1.80
   7  11   9    0.65    1.99
  -7 -11  -9    1.66    2.11
   7  11  10    1.01    2.01
  -7 -11 -10   -0.99    2.05
   6  12 -10   -0.96    1.86
   6  12 -10    2.70    2.33
   6  12  -9   -0.67    2.03
   6  12  -9   -0.54    2.13
   6  12  -8    1.07    1.84
   6  12  -8    1.88    2.11
   6  12  -7    6.45    2.18
   6  12  -7    9.03    2.77
   6  12  -6    5.41    1.98
   6  12  -6    2.60    2.33
   6  12  -5    3.27    1.87
   6  12  -5    4.59    2.24
   6  12  -4   11.79    2.50
   6  12  -4   11.30    2.48
   6  12  -3    4.44    2.19
   6  12  -3    3.86    1.65
   6  12  -2   -0.18    1.59
   6  12  -2   -3.00    1.81
   6  12  -1    5.61    1.96
   6  12  -1    6.33    1.75
   6  12   0   -0.31    1.63
   6  12   0    0.86    1.67
   6  12   1    4.61    2.12
   6  12   2   -0.48    1.64
   6  12   3    2.28    1.77
   6  12   4    5.94    2.06
   6  12   5   -0.51    1.72
   6  12   6    3.79    1.97
   6  12   7    4.77    2.14
   6  12   8   -1.63    1.86
  -6 -12  -8    2.95    1.98
   6  12   9    3.26    2.52
  -6 -12  -9   -0.03    1.92
   6  12  10    1.96    2.13
  -6 -12 -10    3.84    2.10
   5  13 -10    7.17    3.06
   5  13  -9    2.55    2.27
   5  13  -9    0.36    2.18
   5  13  -8    3.75    2.65
   5  13  -8    3.72    1.92
   5  13  -7    3.88    2.31
   5  13  -7    4.39    2.23
   5  13  -6    1.29    1.94
   5  13  -6    5.05    2.02
   5  13  -5   -0.08    1.78
   5  13  -5    1.99    1.82
   5  13  -4   11.02    2.48
   5  13  -4   12.71    2.50
   5  13  -3    8.30    2.33
   5  13  -3    5.84    2.10
   5  13  -2    9.41    2.08
   5  13  -2   11.87    2.42
   5  13  -1    0.52    1.65
   5  13  -1    1.61    1.57
   5  13   0    9.09    2.09
   5  13   0    9.35    1.79
   5  13   1    1.94    1.73
   5  13   2   10.71    2.22
   5  13   3    4.67    2.17
   5  13   4    9.62    2.26
   5  13   5   -1.51    1.61
   5  13   6    3.06    2.32
   5  13   7    6.75    2.20
   5  13   8    1.10    2.24
   5  13   9   -0.61    1.82
  -5 -13  -9    1.22    1.94
   5  13  10    5.95    2.37
   4  14  -9    9.73    3.10
   4  14  -8    1.10    2.23
   4  14  -8    0.27    2.03
   4  14  -7    2.88    2.27
   4  14  -7    4.07    1.92
   4  14  -6    7.89    2.33
   4  14  -6    5.19    2.22
   4  14  -5    5.69    2.44
   4  14  -5    7.95    2.29
   4  14  -4    0.41    1.60
   4  14  -4   -2.52    1.60
   4  14  -3   24.77    2.78
   4  14  -3   19.53    2.76
   4  14  -2   -1.66    0.91
   4  14  -2    0.63    1.65
   4  14  -1    1.64    1.69
   4  14  -1    1.21    1.66
   4  14   0   10.45    2.18
   4  14   0   12.44    2.04
   4  14   1    1.58    1.75
   4  14   2    1.98    1.79
   4  14   3   24.01    2.94
   4  14   4   -1.35    1.61
   4  14   5    3.06    2.33
   4  14   6    9.44    2.33
   4  14   7    1.30    1.95
   4  14   8   -1.15    2.05
   4  14   9    8.27    2.74
   3  15  -9   -0.98    2.16
   3  15  -8    0.03    2.60
   3  15  -7    3.03    2.10
   3  15  -7    2.46    2.11
   3  15  -6    1.56    2.05
   3  15  -6    3.37    1.80
   3  15  -5    4.05    2.45
   3  15  -5    2.49    1.70
   3  15  -4   10.50    2.35
   3  15  -4    5.28    2.05
   3  15  -3    2.65    1.95
   3  15  -3   -0.18    1.63
   3  15  -2   -0.32    1.43
   3  15  -2    5.93    2.21
   3  15  -1    2.06    2.01
   3  15  -1    2.55    1.56
   3  15   0    5.93    1.82
   3  15   0    1.21    1.99
   3  15   1    0.30    1.69
   3  15   2    1.45    1.78
   3  15   3    0.66    1.74
   3  15   4    9.24    2.19
   3  15   5    6.27    2.49
   3  15   6    4.25    2.35
   3  15   7    2.51    2.31
   3  15   8    3.12    2.32
   3  15   9    1.82    2.08
   2  16  -8   -0.33    2.28
   2  16  -7    0.78    2.22
   2  16  -6    0.65    2.38
   2  16  -6    2.18    1.95
   2  16  -5   -0.58    1.85
   2  16  -5    1.29    2.33
   2  16  -4    1.42    1.91
   2  16  -4    0.08    1.85
   2  16  -3    7.99    2.09
   2  16  -3   11.08    2.15
   2  16  -2   -1.59    1.79
   2  16  -2    1.06    1.86
   2  16  -1    1.95    1.99
   2  16  -1    0.59    1.39
   2  16   0   -3.54    1.50
   2  16   0   -4.26    1.55
   2  16   1    1.65    1.80
   2  16   2    1.27    1.80
   2  16   3    7.64    2.16
   2  16   4    8.04    2.53
   2  16   5    0.80    2.20
   2  16   6    2.98    1.89
   2  16   7   -1.56    1.72
   2  16   8    1.04    2.15
   1  17  -8    0.33    2.21
   1  17  -7    2.41    2.25
   1  17  -6    2.90    2.18
   1  17  -5    1.65    1.89
   1  17  -5   -1.61    1.91
   1  17  -4    2.46    1.91
   1  17  -4    5.36    2.07
   1  17  -3    3.14    2.23
   1  17  -3    4.31    2.08
   1  17  -2    7.22    2.33
   1  17  -2   12.25    2.26
   1  17  -1   -0.70    0.99
   1  17  -1   -0.71    1.92
   1  17   0   -2.48    1.77
   1  17   0    2.10    1.80
   1  17   1    1.71    2.10
   1  17   2    6.77    2.09
   1  17   3    3.60    2.30
   1  17   4    0.88    1.87
   1  17   5   -2.05    1.95
   1  17   6    3.58    2.07
   1  17   7   -0.10    2.16
   1  17   8    0.85    1.95
   0  18  -7   -1.26    2.17
   0  18  -6   -0.22    2.00
   0  18  -5    6.19    2.64
   0  18  -4    0.48    1.86
   0  18  -4    2.42    1.88
   0  18  -3    2.90    1.91
   0  18  -3    4.43    2.05
   0  18  -2    6.11    2.15
   0  18  -2    5.92    2.29
   0  18  -1    6.02    2.25
   0  18  -1    1.80    2.14
   0  18   0    3.98    2.12
   0  18   0   -0.49    1.48
   0  18   1    3.75    2.03
   0  18   1    3.21    1.93
   0  18   2    7.02    2.22
   0  18   3    6.87    2.52
   0  18   4    2.01    2.20
   0  18   5    7.54    2.23
   0  18   6    0.66    1.98
   0  18   7   -0.55    1.85
  -1  19  -6   -0.70    2.54
  -1  19  -5    1.35    2.59
  -1  19  -4    0.65    2.37
  -1  19  -3    2.94    2.02
  -1  19  -3    7.57    2.20
  -1  19  -2    0.27    1.90
  -1  19  -2   -2.84    2.07
  -1  19  -1    1.66    1.88
  -1  19  -1    1.45    2.02
  -1  19   0    8.19    2.15
  -1  19   0    1.39    1.50
  -1  19   1    0.04    1.97
  -1  19   1    0.20    1.99
  -1  19   2   -0.16    2.11
  -1  19   3    7.34    2.48
  -1  19   4    3.10    1.96
  -1  19   5    5.82    2.22
  -1  19   6   -0.20    1.83
  -2  20  -5   -2.07    2.45
  -2  20  -4    2.39    2.12
  -2  20  -3   -0.51    1.90
  -2  20  -2   -1.44    1.84
  -2  20  -1    0.61    1.97
  -2  20  -1   -0.98    2.15
  -2  20   0    1.72    2.04
  -2  20   0    2.14    2.27
  -2  20   1    1.38    2.14
  -2  20   1   -0.70    1.32
  -2  20   2    1.20    1.85
  -2  20   3    1.19    2.20
  -2  20   4    3.48    2.04
  -2  20   5   -0.71    2.17
  -3  21  -3   -1.96    2.40
  -3  21  -2    6.17    2.66
  -3  21  -1    1.30    2.39
  -3  21   0    3.28    2.12
  -3  21   0    2.05    1.98
  -3  21   1    1.60    2.17
  -3  21   1    0.15    2.11
  -3  21   2    2.06    2.19
  -3  21   3   -0.15    1.80
  21  -2  -2    0.51    2.30
  21  -2  -1   -1.91    2.04
  21  -2   0   -1.52    2.43
 -21   2   0   -0.71    2.03
  21  -2   1   -1.42    2.45
 -21   2  -1   -0.99    2.34
  21  -2   2   -1.83    2.00
  20  -1  -4    7.58    2.87
  20  -1  -3    1.67    2.78
  20  -1  -2    2.21    2.28
  20  -1  -1    2.09    2.32
  20  -1   0   -1.19    2.39
  20  -1   1    2.26    2.45
 -20   1  -1    3.46    2.29
  20  -1   2   -2.86    1.86
 -20   1  -2    1.53    2.16
  20  -1   3    5.61    2.68
 -20   1  -3   -0.11    2.41
  20  -1   4   -2.33    2.15
 -20   1  -4    5.62    2.76
  19   0  -5    3.25    2.44
  19   0  -4    8.22    2.94
  19   0  -3   -0.87    2.58
  19   0  -2   -1.15    2.06
  19   0  -1    0.23    2.03
  19   0   0   10.28    2.92
  19   0   1    4.29    2.65
 -19   0  -1   -1.03    1.87
  19   0   2    2.54    2.19
 -19   0  -2   -2.98    1.74
  19   0   3   -2.88    1.82
 -19   0  -3   -1.93    2.34
  19   0   4    7.10    2.40
 -19   0  -4   13.79    2.96
  19   0   5   -4.23    2.00
 -19   0  -5   -1.60    2.01
  18   1  -6    1.20    2.28
  18   1  -5    6.70    2.52
  18   1  -4    0.24    2.27
  18   1  -3    2.27    2.27
  18   1  -2    3.28    2.62
  18   1  -1   -0.77    2.26
  18   1   0   13.31    2.78
  18   1   1   -0.17    1.99
 -18  -1  -1    2.23    2.09
  18   1   2    4.10    2.54
 -18  -1  -2   -2.03    2.26
  18   1   3    6.02    2.66
 -18  -1  -3    5.98    2.29
  18   1   4   -0.23    2.29
 -18  -1  -4   -1.25    1.92
  18   1   5    3.08    2.51
 -18  -1  -5    4.98    2.30
  18   1   6   -3.03    2.08
 -18  -1  -6    0.35    2.20
  17   2  -7    0.17    2.56
  17   2  -6   -1.61    1.94
  17   2  -5    3.11    2.67
  17   2  -4    2.21    2.25
  17   2  -3    3.05    2.61
  17   2  -2    6.06    2.34
  17   2  -1    0.85    2.08
  17   2   0    3.17    2.21
  17   2   1   -0.51    2.04
 -17  -2  -1   -1.49    2.27
  17   2   2    5.72    2.66
 -17  -2  -2    1.87    2.06
  17   2   3    2.64    2.26
 -17  -2  -3    0.52    2.36
  17   2   4    3.24    2.07
 -17  -2  -4    5.81    2.25
  17   2   5    4.05    2.48
 -17  -2  -5   -1.14    1.91
  17   2   6   -4.01    1.68
 -17  -2  -6    3.42    2.18
  17   2   7   -0.58    2.30
 -17  -2  -7   -0.37    2.46
  16   3  -8    3.71    2.41
  16   3  -7   -1.77    1.99
  16   3  -6    0.51    2.03
  16   3  -5    1.85    2.14
  16   3  -4    2.57    2.18
  16   3  -3   12.23    3.07
  16   3  -2    1.69    2.20
  16   3  -1    1.63    2.39
  16   3   0    2.29    2.14
  16   3   1    3.20    2.13
  16   3   2   -1.06    2.26
 -16  -3  -2    1.31    2.05
  16   3   3    8.79    2.54
 -16  -3  -3   10.08    2.66
  16   3   4    0.93    1.92
 -16  -3  -4   -1.24    1.94
  16   3   5    2.87    2.42
 -16  -3  -5    0.74    2.37
  16   3   6   -2.69    2.00
 -16  -3  -6   -1.35    1.83
  16   3   7   -3.62    1.72
 -16  -3  -7   -0.91    1.99
  16   3   8    1.36    2.47
 -16  -3  -8    1.36    2.19
  15   4  -8    0.06    2.23
  15   4  -7    2.23    2.27
  15   4  -6   -0.45    2.08
  15   4  -5   -1.25    2.44
  15   4  -4   11.71    3.03
  15   4  -3    5.32    2.35
  15   4  -2    3.40    2.08
  15   4  -1    5.12    2.23
  15   4   0    5.37    2.51
  15   4   1    7.35    2.53
  15   4   2    1.85    2.07
 -15  -4  -2    3.30    2.05
  15   4   3    6.79    2.57
 -15  -4  -3    4.95    2.15
  15   4   4   10.89    2.86
 -15  -4  -4   10.67    2.71
  15   4   5   -0.79    2.11
 -15  -4  -5    3.10    2.39
  15   4   6   -0.15    1.86
 -15  -4  -6    2.05    2.04
  15   4   7    3.60    2.24
 -15  -4  -7    3.31    2.13
  15   4   8    4.33    2.59
 -15  -4  -8    2.57    2.25
  14   5  -8    0.71    2.23
  14   5  -7    3.03    2.28
  14   5  -6    1.81    2.17
  14   5  -5    9.90    2.54
  14   5  -4   13.45    2.79
  14   5  -3    6.47    2.63
  14   5  -2    0.71    2.04
  14   5  -1    5.98    2.20
  14   5   0    2.82    2.10
  14   5   1    5.81    2.24
  14   5   2    3.30    2.04
 -14  -5  -2    0.74    1.91
  14   5   3    4.38    2.08
 -14  -5  -3    5.58    2.51
  14   5   4   15.19    2.78
 -14  -5  -4   12.64    2.57
  14   5   5    6.46    2.37
 -14  -5  -5    8.55    2.43
  14   5   6    3.18    2.10
 -14  -5  -6    2.86    2.40
  14   5   7    3.01    2.22
 -14  -5  -7    1.42    2.34
  14   5   8    2.69    2.43
 -14  -5  -8    0.88    2.08
  13   6  -9    4.05    2.41
  13   6  -8   -1.19    2.01
  13   6  -7    0.31    2.47
  13   6  -6    6.11    2.72
  13   6  -5    5.91    2.29
  13   6  -4    3.60    2.24
  13   6  -3    8.59    2.68
  13   6  -2    2.11    1.95
  13   6  -1    3.29    1.99
  13   6   0    8.50    2.28
  13   6   1    2.34    2.24
  13   6   2    3.14    2.00
  13   6   3   10.99    2.50
 -13  -6  -3    9.97    2.50
  13   6   4    0.87    2.00
 -13  -6  -4    1.89    1.89
  13   6   5    7.18    2.36
 -13  -6  -5    8.13    2.34
  13   6   6    3.62    2.08
 -13  -6  -6    4.70    2.40
  13   6   7   -0.19    2.24
 -13  -6  -7    0.23    1.93
  13   6   8   -0.20    2.31
 -13  -6  -8    0.32    1.95
  13   6   9    4.96    2.55
 -13  -6  -9    2.79    2.60
  12   7  -9   -0.57    2.47
  12   7  -8    0.43    2.13
  12   7  -7    0.28    2.46
  12   7  -6   -2.08    2.34
  12   7  -5    0.54    2.04
  12   7  -4    2.30    2.09
  12   7  -3    2.65    2.06
  12   7  -2    1.77    1.90
  12   7  -1    4.53    2.04
  12   7   0    1.38    1.85
  12   7   1    6.95    2.24
  12   7   2    1.95    1.86
  12   7   3    4.04    2.37
 -12  -7  -3   -0.50    1.82
  12   7   4    5.74    2.21
 -12  -7  -4    3.80    2.04
  12   7   5   -1.81    1.83
 -12  -7  -5    0.01    1.91
  12   7   6   -1.10    2.24
 -12  -7  -6    2.07    2.29
  12   7   7    0.74    2.05
 -12  -7  -7    4.68    2.44
  12   7   8    0.70    1.95
 -12  -7  -8    1.42    2.01
  12   7   9   -1.13    2.02
 -12  -7  -9   -0.30    2.29
  11   8  -9   -0.59    2.00
  11   8  -8    3.09    2.20
  11   8  -7    2.26    2.22
  11   8  -6    4.42    2.25
  11   8  -5   -0.47    1.90
  11   8  -4    1.32    1.15
  11   8  -4   -1.02    1.80
  11   8  -3    2.77    2.23
  11   8  -3    4.55    1.72
  11   8  -2    3.84    2.35
  11   8  -2    2.64    1.56
  11   8  -1    1.24    1.85
  11   8   0   23.05    3.09
  11   8   1   -1.89    1.94
  11   8   2    1.43    1.85
  11   8   3    1.92    1.86
  11   8   4   -0.43    2.08
 -11  -8  -4   -1.53    1.63
  11   8   5    1.15    1.90
 -11  -8  -5    1.87    1.99
  11   8   6    6.11    2.64
 -11  -8  -6    3.97    2.01
  11   8   7   -2.02    1.84
 -11  -8  -7    0.27    1.89
  11   8   8    2.41    2.08
 -11  -8  -8    6.34    2.18
  11   8   9   -0.73    1.83
 -11  -8  -9    0.47    1.91
  10   9  -9   -1.22    1.87
  10   9  -9   -0.87    2.39
  10   9  -8    2.64    2.03
  10   9  -8    1.40    2.12
  10   9  -7   16.19    2.91
  10   9  -7   12.33    2.64
  10   9  -6    5.96    2.32
  10   9  -6    5.69    2.31
  10   9  -5    2.48    2.02
  10   9  -5    5.84    2.20
  10   9  -4    2.86    1.54
  10   9  -4    3.03    2.00
  10   9  -3    0.27    2.14
  10   9  -3    3.51    1.76
  10   9  -2    2.05    1.56
  10   9  -2    2.56    1.86
  10   9  -1   10.30    2.29
  10   9   0   10.80    2.52
  10   9   1   10.64    2.50
  10   9   2   -1.38    2.02
  10   9   3    1.74    1.82
  10   9   4    6.00    2.11
  10   9   5    1.25    2.17
 -10  -9  -5    3.77    1.97
  10   9   6    4.60    2.09
 -10  -9  -6    2.23    1.94
  10   9   7   19.74    3.05
 -10  -9  -7   16.40    2.91
  10   9   8    2.77    2.45
 -10  -9  -8    1.38    2.00
  10   9   9    0.51    2.06
 -10  -9  -9    2.03    2.35
   9  10  -9   -1.69    1.93
   9  10  -9   -0.28    1.99
   9  10  -8    5.62    2.56
   9  10  -8    2.99    2.11
   9  10  -7   15.51    2.73
   9  10  -7   19.74    2.95
   9  10  -6    5.57    2.50
   9  10  -6    3.93    2.28
   9  10  -5    2.05    1.75
   9  10  -5    6.58    2.18
   9  10  -4    1.60    2.21
   9  10  -4    1.30    1.57
   9  10  -3    5.15    2.08
   9  10  -3    2.64    1.58
   9  10  -2    1.19    1.86
   9  10  -2    1.47    1.60
   9  10  -1   13.94    2.47
   9  10   0    6.08    2.05
   9  10   1    8.85    2.22
   9  10   2   -0.33    1.69
   9  10   3    2.02    1.79
   9  10   4   -2.59    1.60
   9  10   5    2.04    1.98
   9  10   6    2.53    2.07
  -9 -10  -6    2.66    1.84
   9  10   7   18.79    3.23
  -9 -10  -7   12.38    2.45
   9  10   8   -0.94    1.83
  -9 -10  -8    0.92    1.86
   9  10   9    0.48    2.01
  -9 -10  -9    2.01    2.29
   8  11  -9   -0.90    2.37
   8  11  -9   -0.08    2.05
   8  11  -8    2.13    2.00
   8  11  -8    4.26    2.21
   8  11  -7    0.42    1.91
   8  11  -7   -2.23    1.85
   8  11  -6    6.95    2.22
   8  11  -6    4.92    2.06
   8  11  -5    2.52    1.85
   8  11  -5    2.80    2.00
   8  11  -4   -0.95    1.84
   8  11  -4    0.09    1.82
   8  11  -3   -0.75    1.69
   8  11  -3    0.32    1.73
   8  11  -2    2.29    1.70
   8  11  -2    3.18    1.90
   8  11  -1   -2.55    1.55
   8  11   0   19.22    2.89
   8  11   1   -0.38    1.67
   8  11   2    3.49    1.88
   8  11   3   -1.23    1.58
   8  11   4   -1.57    1.59
   8  11   5    0.49    1.79
   8  11   6    4.94    2.06
   8  11   7   -0.64    1.81
  -8 -11  -7    0.67    2.08
   8  11   8    4.46    2.29
  -8 -11  -8    5.74    2.36
   8  11   9    4.45    2.31
  -8 -11  -9    1.36    2.14
   7  12  -9   -0.68    2.18
   7  12  -9    4.55    2.41
   7  12  -8    1.00    2.17
   7  12  -8   -2.65    1.80
   7  12  -7    3.60    2.53
   7  12  -7    2.30    1.98
   7  12  -6    0.73    1.90
   7  12  -6    1.90    2.28
   7  12  -5    3.45    2.31
   7  12  -5    3.13    2.24
   7  12  -4    1.89    2.17
   7  12  -4    1.31    2.00
   7  12  -3    1.18    1.22
   7  12  -3    0.50    1.78
   7  12  -2    4.07    1.93
   7  12  -2   -0.67    1.58
   7  12  -1    5.57    1.97
   7  12   0    1.42    2.06
   7  12   1    7.64    2.11
   7  12   2   -0.01    1.69
   7  12   3    1.59    2.11
   7  12   4    2.83    1.88
   7  12   5    1.17    1.80
   7  12   6    0.97    1.82
   7  12   7   -1.76    1.69
   7  12   8   -0.25    1.82
  -7 -12  -8    3.48    1.86
   7  12   9    4.23    2.32
  -7 -12  -9   -0.52    2.07
   6  13  -9    4.72    2.48
   6  13  -9    4.70    2.42
   6  13  -8    0.30    2.51
   6  13  -8    5.09    2.36
   6  13  -7   -1.57    2.06
   6  13  -7    0.75    2.07
   6  13  -6    7.47    2.28
   6  13  -6    4.19    2.31
   6  13  -5    6.18    2.14
   6  13  -5    2.30    1.92
   6  13  -4    0.64    1.67
   6  13  -4    0.30    1.77
   6  13  -3    0.60    0.99
   6  13  -3   12.89    2.39
   6  13  -2    4.17    1.61
   6  13  -2    4.92    2.21
   6  13  -1   -2.04    1.44
   6  13  -1    2.82    2.14
   6  13   0    5.14    1.90
   6  13   1    0.48    1.70
   6  13   2    4.63    2.02
   6  13   3   14.16    2.54
   6  13   4    2.20    1.95
   6  13   5    2.51    1.91
   6  13   6    2.00    1.93
   6  13   7    1.16    2.21
   6  13   8    2.08    2.06
   6  13   9    3.89    2.29
  -6 -13  -9    2.96    1.86
   5  14  -8   -1.62    1.97
   5  14  -8   -1.50    1.70
   5  14  -7    2.11    2.24
   5  14  -7    3.02    1.93
   5  14  -6   -3.36    2.16
   5  14  -6    0.06    2.10
   5  14  -5   10.14    2.23
   5  14  -5    9.43    2.34
   5  14  -4   17.28    2.78
   5  14  -4   14.03    2.68
   5  14  -3    8.34    2.36
   5  14  -3    4.63    1.84
   5  14  -2    3.99    1.92
   5  14  -2    4.29    2.20
   5  14  -1    7.63    1.91
   5  14  -1    6.89    2.06
   5  14   0   -1.19    1.88
   5  14   1    9.75    2.46
   5  14   2    3.75    1.98
   5  14   3    7.24    2.12
   5  14   4   10.23    2.57
   5  14   5    7.52    2.26
   5  14   6    1.41    1.93
   5  14   7    2.46    2.06
   5  14   8    1.55    2.02
   4  15  -8    8.24    2.69
   4  15  -7   -1.73    2.41
   4  15  -7   -1.99    1.94
   4  15  -6    1.85    1.77
   4  15  -6    1.34    2.04
   4  15  -5   -1.05    1.97
   4  15  -5    2.00    2.04
   4  15  -4   10.61    2.55
   4  15  -4   14.06    2.58
   4  15  -3    3.20    1.90
   4  15  -3    4.70    1.92
   4  15  -2    5.27    2.26
   4  15  -2    1.79    1.37
   4  15  -1    4.08    1.90
   4  15  -1    7.62    2.31
   4  15   0    3.65    1.91
   4  15   1    5.66    2.05
   4  15   2    2.50    1.87
   4  15   3    2.36    1.93
   4  15   4   11.94    2.41
   4  15   5    1.33    2.26
   4  15   6    2.94    2.28
   4  15   7    0.10    2.18
   4  15   8    4.46    2.57
   3  16  -8   -0.42    2.22
   3  16  -7   -1.38    2.06
   3  16  -6   -1.97    1.88
   3  16  -6   -1.46    1.96
   3  16  -5    1.76    2.00
   3  16  -5    3.62    2.11
   3  16  -4    1.03    2.21
   3  16  -4    1.55    2.08
   3  16  -3   11.88    2.49
   3  16  -3    8.41    2.09
   3  16  -2   -1.52    0.59
   3  16  -2    0.76    1.79
   3  16  -1    1.53    2.05
   3  16  -1    2.89    1.64
   3  16   0    5.60    2.03
   3  16   1   -0.02    1.79
   3  16   2    0.79    1.83
   3  16   3   14.15    2.74
   3  16   4   -1.49    2.04
   3  16   5   -1.04    1.76
   3  16   6    0.65    1.86
   3  16   7    1.55    1.99
   3  16   8    0.13    2.35
   2  17  -7    2.36    2.26
   2  17  -6   -0.08    2.06
   2  17  -5   -0.12    1.88
   2  17  -5    0.42    2.07
   2  17  -4    0.58    1.86
   2  17  -4    0.61    1.92
   2  17  -3    0.29    1.70
   2  17  -3    1.30    1.99
   2  17  -2    6.62    2.31
   2  17  -2    6.23    2.02
   2  17  -1    2.32    1.96
   2  17  -1    2.41    1.91
   2  17   0    5.64    2.33
   2  17   1    2.36    1.85
   2  17   2    6.96    2.42
   2  17   3   -0.81    1.78
   2  17   4    1.23    2.21
   2  17   5   -0.28    1.82
   2  17   6   -0.42    1.86
   2  17   7    4.43    2.25
   1  18  -6    2.53    2.58
   1  18  -5    4.29    2.57
   1  18  -4    3.46    2.46
   1  18  -4    7.42    2.21
   1  18  -3    5.49    2.19
   1  18  -3    4.52    2.05
   1  18  -2   -1.22    1.97
   1  18  -2    0.85    1.75
   1  18  -1    2.93    1.89
   1  18   0    7.78    2.19
   1  18   1    0.89    1.80
   1  18   2    0.93    2.30
   1  18   3    5.92    2.44
   1  18   4    0.33    1.82
   1  18   5    8.31    2.37
   1  18   6   -0.48    2.21
   0  19  -5   -0.43    2.03
   0  19  -4    7.08    2.71
   0  19  -3    0.50    1.86
   0  19  -3   -1.18    1.86
   0  19  -2    0.87    2.23
   0  19  -2    0.11    2.03
   0  19  -1    2.20    1.86
   0  19  -1   -1.08    1.60
   0  19   0    5.18    2.30
   0  19   0    9.51    2.20
   0  19   1    0.14    2.15
   0  19   2    1.30    2.20
   0  19   3   -0.85    2.19
   0  19   4    7.49    2.53
   0  19   5   -2.35    2.17
  -1  20  -4    4.50    2.66
  -1  20  -3   -0.87    1.84
  -1  20  -2   -2.80    2.17
  -1  20  -2    1.50    2.07
  -1  20  -1    2.48    2.34
  -1  20  -1    1.63    2.11
  -1  20   0   -1.27    0.60
  -1  20   0    1.82    2.09
  -1  20   1    3.62    2.25
  -1  20   2    0.65    1.89
  -1  20   3    1.66    2.30
  -1  20   4    5.01    2.28
  -2  21  -1    0.86    2.04
  -2  21  -1    1.46    2.40
  -2  21   0   -1.39    2.16
  -2  21   0   -2.42    1.61
  -2  21   1    1.65    1.84
  20   0  -2    1.40    2.67
  20   0  -1   -1.54    2.01
  20   0   0   -0.57    2.38
  20   0   1   -0.43    2.08
 -20   0  -1    1.22    2.55
  20   0   2    0.80    2.22
 -20   0  -2    0.83    2.56
  19   1  -4    2.68    2.42
  19   1  -3    1.15    2.28
  19   1  -2   -1.79    2.46
  19   1  -1    2.94    2.67
  19   1   0    4.37    2.34
  19   1   1    3.54    2.61
 -19  -1  -1    4.88    2.59
  19   1   2    1.86    2.53
 -19  -1  -2    2.92    2.22
  19   1   3    2.57    2.24
 -19  -1  -3    1.09    2.11
  19   1   4    5.44    2.65
 -19  -1  -4    1.60    2.60
  18   2  -5   -2.09    2.04
  18   2  -4    4.94    2.51
  18   2  -3    0.70    2.23
  18   2  -2    1.70    2.16
  18   2  -1    1.27    2.15
  18   2   0    1.66    2.14
  18   2   1    3.55    2.24
  18   2   2    1.20    2.15
 -18  -2  -2    0.25    2.00
  18   2   3    2.08    2.50
 -18  -2  -3   -1.30    1.98
  18   2   4    2.54    2.18
 -18  -2  -4    4.47    2.30
  18   2   5    0.16    1.94
 -18  -2  -5    0.02    2.08
  17   3  -6   -1.51    2.08
  17   3  -5   -0.44    2.13
  17   3  -4    0.66    2.59
  17   3  -3   -0.02    2.50
  17   3  -2    2.62    2.16
  17   3  -1    2.01    2.05
  17   3   0    1.94    2.13
  17   3   1    0.72    2.01
  17   3   2    1.85    2.15
 -17  -3  -2   -2.40    1.91
  17   3   3    2.03    2.39
 -17  -3  -3    2.10    2.46
  17   3   4    2.91    2.26
 -17  -3  -4   -2.53    2.23
  17   3   5   -0.86    1.93
 -17  -3  -5    0.61    2.03
  17   3   6    0.19    2.33
 -17  -3  -6   -1.25    2.04
  16   4  -7    0.02    2.24
  16   4  -6    0.98    2.71
  16   4  -5    0.81    2.18
  16   4  -4   -0.09    2.58
  16   4  -3    2.06    2.59
  16   4  -2    4.99    2.37
  16   4  -1    1.64    2.06
  16   4   0    4.83    2.60
  16   4   1   -0.55    1.97
  16   4   2    0.85    1.99
 -16  -4  -2    2.71    2.12
  16   4   3    2.75    2.40
 -16  -4  -3    6.02    2.62
  16   4   4    0.43    1.97
 -16  -4  -4    0.44    2.26
  16   4   5    1.42    1.99
 -16  -4  -5    1.33    2.09
  16   4   6    3.35    2.45
 -16  -4  -6    3.88    2.55
  16   4   7   -3.95    2.17
  15   5  -7    0.12    2.20
  15   5  -6    3.16    2.28
  15   5  -5   -0.12    2.10
  15   5  -4    1.54    2.12
  15   5  -3    8.03    2.40
  15   5  -2   -0.47    2.34
  15   5  -1    3.45    2.49
  15   5   0    4.08    2.20
  15   5   1   -1.07    1.87
  15   5   2    0.94    2.05
  15   5   3    7.22    2.35
 -15  -5  -3    8.43    2.37
  15   5   4   -0.21    2.01
 -15  -5  -4    0.35    1.98
  15   5   5    1.15    2.02
 -15  -5  -5    2.41    2.13
  15   5   6    0.23    1.95
 -15  -5  -6    4.56    2.23
  15   5   7   -4.43    2.08
 -15  -5  -7    0.22    2.04
  14   6  -7    6.03    2.88
  14   6  -6    1.21    2.56
  14   6  -5    3.36    2.31
  14   6  -4    7.12    2.78
  14   6  -3    1.34    2.14
  14   6  -2    6.45    2.30
  14   6  -1    1.09    2.00
  14   6   0    1.12    1.94
  14   6   1    2.12    2.42
  14   6   2    4.17    2.15
  14   6   3    0.94    2.35
 -14  -6  -3    2.31    1.98
  14   6   4    8.80    2.56
 -14  -6  -4    4.75    2.52
  14   6   5    1.06    2.30
 -14  -6  -5    2.51    2.08
  14   6   6    2.88    2.13
 -14  -6  -6   -0.05    1.98
  14   6   7    3.39    2.22
 -14  -6  -7   -0.29    2.40
  13   7  -8   -1.08    2.22
  13   7  -7    1.05    2.55
  13   7  -6   -0.42    2.13
  13   7  -5   -0.44    2.01
  13   7  -4    2.78    2.40
  13   7  -3   -0.39    1.87
  13   7  -2    5.41    2.54
  13   7  -1    0.92    2.39
  13   7   0    4.63    2.20
  13   7   1    4.49    2.40
  13   7   2    2.67    2.02
  13   7   3    1.84    2.37
  13   7   4    3.84    2.14
 -13  -7  -4    4.26    2.38
  13   7   5    1.87    2.08
 -13  -7  -5    3.69    2.09
  13   7   6    3.18    2.04
 -13  -7  -6   -0.09    1.95
  13   7   7   -1.73    1.88
 -13  -7  -7    1.52    2.05
  13   7   8    0.93    2.12
 -13  -7  -8   -0.80    2.06
  12   8  -8    2.56    2.36
  12   8  -7    2.55    2.65
  12   8  -6    1.68    2.49
  12   8  -5    1.85    2.12
  12   8  -4   -0.37    2.00
  12   8  -4    0.86    0.91
  12   8  -3   -0.34    1.98
  12   8  -3    1.30    1.62
  12   8  -2   -2.38    1.81
  12   8  -1    3.03    2.00
  12   8   0    5.72    2.14
  12   8   1    3.91    2.08
  12   8   2   -3.18    1.63
  12   8   3    1.98    2.01
  12   8   4    0.33    1.93
 -12  -8  -4    0.34    1.88
  12   8   5    0.40    1.94
 -12  -8  -5    1.40    2.00
  12   8   6   -3.76    2.20
 -12  -8  -6   -0.70    2.19
  12   8   7    2.78    2.14
 -12  -8  -7    6.01    2.58
  12   8   8    2.04    2.15
 -12  -8  -8    2.17    2.10
  11   9  -8    0.35    2.53
  11   9  -8    0.46    1.91
  11   9  -7    6.68    2.15
  11   9  -7   -1.49    2.06
  11   9  -6    6.33    2.12
  11   9  -6    6.15    2.34
  11   9  -5    4.31    2.26
  11   9  -5    3.58    2.15
  11   9  -4    2.98    2.36
  11   9  -4    1.35    0.68
  11   9  -3    1.63    1.71
  11   9  -3    0.76    1.93
  11   9  -2    3.50    2.04
  11   9  -1    3.88    2.09
  11   9   0   -0.30    1.82
  11   9   1    2.77    2.20
  11   9   2    6.41    2.19
  11   9   3    0.28    1.80
  11   9   4    2.92    1.99
  11   9   5   -2.07    1.70
 -11  -9  -5    3.52    2.36
  11   9   6    4.91    2.52
 -11  -9  -6    6.07    2.18
  11   9   7    3.68    2.26
 -11  -9  -7    7.23    2.27
  11   9   8    0.11    1.96
 -11  -9  -8   -0.13    2.30
  10  10  -8    0.79    2.06
  10  10  -8   -1.10    2.52
  10  10  -7   -0.74    1.90
  10  10  -7    1.91    2.11
  10  10  -6   15.42    2.92
  10  10  -6   17.81    2.93
  10  10  -5   -0.26    1.95
  10  10  -5    1.97    2.10
  10  10  -4    0.24    0.77
  10  10  -4   -0.96    1.87
  10  10  -3    3.75    1.88
  10  10  -3   -0.80    1.84
  10  10  -2    4.52    2.05
  10  10  -1   -0.64    1.70
  10  10   0    6.57    2.09
  10  10   1   -0.16    2.15
  10  10   2    2.81    1.92
  10  10   3    0.03    1.76
  10  10   4   -2.96    1.67
  10  10   5    1.37    1.93
  10  10   6   15.60    2.82
 -10 -10  -6   20.76    2.84
  10  10   7   -1.14    1.87
 -10 -10  -7    1.66    1.99
  10  10   8    0.29    2.11
 -10 -10  -8    0.44    2.22
   9  11  -8    1.13    2.06
   9  11  -8   -0.03    2.30
   9  11  -7    5.58    2.67
   9  11  -7    4.48    2.52
   9  11  -6    5.64    2.48
   9  11  -6    6.30    2.61
   9  11  -5    1.42    1.85
   9  11  -5    3.34    2.10
   9  11  -4    0.07    1.94
   9  11  -4   -1.69    1.43
   9  11  -3    0.64    1.81
   9  11  -3    3.71    2.30
   9  11  -2    0.07    1.84
   9  11  -1    2.24    1.98
   9  11   0    0.56    1.78
   9  11   1    4.19    2.00
   9  11   2    2.41    1.90
   9  11   3    0.85    1.81
   9  11   4    0.52    1.86
   9  11   5    0.84    2.18
   9  11   6    6.61    2.38
   9  11   7    1.47    2.01
  -9 -11  -7    7.07    2.38
   9  11   8   -1.72    1.89
  -9 -11  -8    2.52    2.30
   8  12  -8    2.71    2.55
   8  12  -8    1.21    2.39
   8  12  -7    5.62    2.31
   8  12  -7    1.10    2.31
   8  12  -6    0.00    1.92
   8  12  -6    1.96    2.34
   8  12  -5    0.82    1.84
   8  12  -5    2.42    2.05
   8  12  -4    2.55    1.96
   8  12  -4   -0.33    1.94
   8  12  -3    1.25    1.94
   8  12  -3   -2.09    1.73
   8  12  -2   -0.85    1.69
   8  12  -1    3.55    1.95
   8  12   0   -0.29    1.82
   8  12   1    2.66    1.89
   8  12   2    1.46    2.09
   8  12   3    0.12    1.75
   8  12   4    1.96    1.92
   8  12   5   -0.71    1.79
   8  12   6   -0.32    1.90
   8  12   7    2.45    2.45
   8  12   8   -2.62    1.79
  -8 -12  -8    1.91    2.19
   7  13  -8    4.72    2.42
   7  13  -8    0.41    2.27
   7  13  -7   -6.29    2.13
   7  13  -7    1.51    2.32
   7  13  -6    3.23    2.31
   7  13  -6   -1.96    1.86
   7  13  -5    5.28    2.39
   7  13  -5   -0.50    1.82
   7  13  -4    5.80    2.15
   7  13  -4    1.24    1.80
   7  13  -3    1.57    1.84
   7  13  -3    1.20    2.20
   7  13  -2    4.12    1.94
   7  13  -2    0.27    1.80
   7  13  -1    1.84    1.82
   7  13   0    3.91    2.03
   7  13   1    2.87    1.99
   7  13   2    0.50    1.80
   7  13   3    2.82    2.25
   7  13   4    8.54    2.34
   7  13   5    1.37    1.93
   7  13   6    0.06    1.83
   7  13   7    2.42    2.11
   7  13   8   -2.68    2.11
   6  14  -7   -1.77    2.03
   6  14  -7   -0.51    2.17
   6  14  -6   -0.37    2.34
   6  14  -6    0.78    2.20
   6  14  -5    0.55    1.77
   6  14  -5    1.15    1.93
   6  14  -4    5.87    2.16
   6  14  -4    7.02    2.42
   6  14  -3    4.97    2.05
   6  14  -3    0.39    0.94
   6  14  -2    7.14    2.07
   6  14  -2    3.25    2.27
   6  14  -1    0.89    1.85
   6  14   0    2.60    1.89
   6  14   1    1.57    1.86
   6  14   2    5.16    2.10
   6  14   3    6.02    2.12
   6  14   4    8.39    2.32
   6  14   5   -0.17    2.20
   6  14   6    1.52    1.95
   6  14   7    0.52    1.83
   5  15  -7    1.40    2.59
   5  15  -7   -0.72    2.12
   5  15  -6    0.23    2.11
   5  15  -6    2.44    2.14
   5  15  -5   -0.34    1.77
   5  15  -5    3.38    2.03
   5  15  -4    2.89    2.18
   5  15  -4   -0.82    2.06
   5  15  -3   12.52    2.40
   5  15  -2    1.77    1.85
   5  15  -2    0.84    1.91
   5  15  -1    0.67    2.09
   5  15   0    1.23    1.81
   5  15   1    1.53    1.88
   5  15   2    3.04    1.94
   5  15   3    8.00    2.35
   5  15   4   -1.53    1.72
   5  15   5    0.99    1.90
   5  15   6    3.27    2.08
   5  15   7   -3.38    1.82
   4  16  -7    1.58    2.18
   4  16  -7   -1.16    2.58
   4  16  -6   -0.83    2.43
   4  16  -6    1.15    1.77
   4  16  -5    2.32    2.34
   4  16  -5    1.72    2.10
   4  16  -4    0.64    1.77
   4  16  -4   -0.48    1.75
   4  16  -3    0.12    2.03
   4  16  -3    4.26    2.03
   4  16  -2    3.31    1.91
   4  16  -2    5.47    2.13
   4  16  -1   -1.32    2.05
   4  16   0    2.64    1.91
   4  16   1    0.40    2.18
   4  16   2    3.98    2.09
   4  16   3    1.96    1.94
   4  16   4    3.57    2.00
   4  16   5    2.38    2.43
   4  16   6   -0.41    1.79
   4  16   7    0.98    1.96
   3  17  -6   -0.40    2.01
   3  17  -5    2.58    2.16
   3  17  -5   -3.36    1.79
   3  17  -4    1.20    1.99
   3  17  -4   -1.64    2.19
   3  17  -3    1.75    2.10
   3  17  -3    2.30    2.12
   3  17  -2    2.04    2.16
   3  17  -2   -1.65    0.57
   3  17  -1    3.69    2.27
   3  17   0   -1.82    1.74
   3  17   1   -1.04    1.81
   3  17   2    2.25    2.30
   3  17   3    1.75    1.90
   3  17   4    2.52    2.36
   3  17   5    2.24    1.98
   3  17   6    0.28    1.96
   2  18  -5    0.36    2.00
   2  18  -4    3.68    2.14
   2  18  -4    4.11    2.15
   2  18  -3    1.16    2.06
   2  18  -3    0.54    2.13
   2  18  -2    0.01    1.83
   2  18  -2    0.81    1.84
   2  18  -1    0.57    1.86
   2  18   0    3.90    2.05
   2  18   1    0.65    1.85
   2  18   2    0.19    2.16
   2  18   3    2.23    2.48
   2  18   4    2.58    2.03
   2  18   5    1.86    2.07
   1  19  -4    0.95    2.05
   1  19  -3    3.47    2.30
   1  19  -3    2.20    2.31
   1  19  -2    0.62    1.75
   1  19  -2   -1.48    1.68
   1  19  -1    2.95    2.21
   1  19   0   -0.77    2.06
   1  19   1    2.83    2.07
   1  19   2    1.96    1.98
   1  19   3    1.18    1.97
   1  19   4    6.31    2.33
   0  20  -2    2.84    2.23
   0  20  -2   -2.76    2.15
   0  20  -1    0.34    1.52
   0  20  -1    1.38    2.17
   0  20   0    1.53    1.92
   0  20   1    3.14    2.38
   0  20   2    1.73    2.00
  19   2  -2    1.96    2.30
  19   2  -1    3.31    2.35
  19   2   0    1.51    2.22
  19   2   1   -0.17    2.05
  19   2   2    0.17    2.08
  18   3  -3    5.41    2.84
  18   3  -2    4.32    2.28
  18   3  -1    1.20    2.55
  18   3   0    3.90    2.70
  18   3   1    1.47    2.15
  18   3   2   -1.47    2.36
 -18  -3  -2   -1.15    2.05
  18   3   3    4.71    2.58
 -18  -3  -3    1.01    2.55
  17   4  -5   -2.71    2.09
  17   4  -4    2.89    2.72
  17   4  -3    0.42    2.04
  17   4  -2   -1.32    1.92
  17   4  -1    0.84    2.12
  17   4   0    4.34    2.61
  17   4   1    3.42    2.31
  17   4   2    2.47    2.50
  17   4   3   -1.32    2.28
 -17  -4  -3   -1.29    2.28
  17   4   4    0.35    2.06
 -17  -4  -4    1.55    2.59
  16   5  -5    2.26    2.33
  16   5  -4    2.85    2.23
  16   5  -3    0.14    2.39
  16   5  -2    2.08    2.11
  16   5  -1    1.10    2.38
  16   5   0   -0.59    1.91
  16   5   1    0.28    2.05
  16   5   2   -0.28    1.98
  16   5   3    2.63    2.15
 -16  -5  -3    0.87    2.36
  16   5   4   -0.94    1.96
 -16  -5  -4    0.37    2.00
  16   5   5    0.66    2.04
 -16  -5  -5    2.76    2.20
  15   6  -6    1.60    2.30
  15   6  -5    5.56    2.75
  15   6  -4    5.61    2.29
  15   6  -3    0.41    2.05
  15   6  -2    1.18    2.10
  15   6  -1   -0.73    1.94
  15   6   0    3.43    2.13
  15   6   1   -2.42    2.20
  15   6   2    1.09    1.94
  15   6   3    0.47    1.89
  15   6   4    4.80    2.28
 -15  -6  -4    2.89    2.08
  15   6   5    5.02    2.64
 -15  -6  -5    3.17    2.56
  15   6   6   -2.51    1.90
 -15  -6  -6   -0.76    2.15
  14   7  -6    0.73    2.27
  14   7  -5    3.48    2.31
  14   7  -4    4.44    2.36
  14   7  -3    5.51    2.25
  14   7  -2   -1.35    1.84
  14   7  -1   -1.59    1.84
  14   7   0    0.32    2.03
  14   7   1    0.26    1.87
  14   7   2    3.50    2.13
  14   7   3    7.28    2.41
  14   7   4    1.32    2.05
 -14  -7  -4   -0.55    1.96
  14   7   5    1.32    2.03
 -14  -7  -5    3.84    2.18
  14   7   6   -0.16    2.03
 -14  -7  -6   -0.83    2.03
  13   8  -7   -3.33    2.01
  13   8  -6    0.73    2.15
  13   8  -5    3.88    2.29
  13   8  -5    4.33    2.04
  13   8  -4    1.84    2.08
  13   8  -4    1.31    1.82
  13   8  -3    3.70    2.22
  13   8  -2    0.83    2.09
  13   8  -1    2.74    2.12
  13   8   0    1.68    1.98
  13   8   1   -0.61    2.19
  13   8   2   -0.28    1.88
  13   8   3    4.25    2.16
  13   8   4   -0.69    1.92
  13   8   5    2.55    2.10
 -13  -8  -5    1.64    2.01
  13   8   6    1.64    2.11
 -13  -8  -6   -2.16    1.95
  12   9  -7    0.43    2.14
  12   9  -7    1.44    2.56
  12   9  -6   -3.04    2.25
  12   9  -6    3.99    2.25
  12   9  -5    0.63    1.62
  12   9  -5    3.13    2.19
  12   9  -4    3.87    1.96
  12   9  -4    1.29    2.04
  12   9  -3   -1.39    2.34
  12   9  -2    0.72    1.97
  12   9  -1   -0.11    2.29
  12   9   0    3.39    2.41
  12   9   1    0.18    1.83
  12   9   2   -0.32    1.79
  12   9   3    1.54    1.95
  12   9   4    1.70    2.08
  12   9   5    2.76    2.15
  12   9   6   -0.53    1.99
 -12  -9  -6    1.75    1.97
  12   9   7   -2.94    1.92
 -12  -9  -7    3.33    2.56
  11  10  -7    3.45    2.31
  11  10  -7    2.55    2.45
  11  10  -6    1.45    1.83
  11  10  -6    0.40    2.07
  11  10  -5    6.24    2.69
  11  10  -5    1.74    1.80
  11  10  -4    0.02    1.42
  11  10  -4   -1.24    1.92
  11  10  -3    1.40    2.05
  11  10  -2   -0.83    2.17
  11  10  -1    2.38    2.00
  11  10   0    2.45    1.88
  11  10   1    0.83    2.21
  11  10   2    2.12    1.96
  11  10   3   -1.66    1.74
  11  10   4   -1.95    1.77
  11  10   5    2.81    2.11
  11  10   6   -1.37    1.86
 -11 -10  -6    0.31    1.89
  11  10   7    5.26    2.67
 -11 -10  -7   -0.28    1.92
  10  11  -7    2.74    2.26
  10  11  -7   -2.77    2.18
  10  11  -6    1.11    2.09
  10  11  -6    0.70    2.24
  10  11  -5    2.61    1.87
  10  11  -5    1.38    2.45
  10  11  -4    0.11    1.29
  10  11  -4   -1.03    1.87
  10  11  -3   -0.05    1.86
  10  11  -2    1.22    1.95
  10  11  -1   -0.31    1.79
  10  11   0    0.44    1.83
  10  11   1    0.07    1.80
  10  11   2    3.52    1.99
  10  11   3    0.00    1.83
  10  11   4    0.14    1.85
  10  11   5    1.66    1.89
  10  11   6   -0.65    1.90
  10  11   7    3.27    2.18
 -10 -11  -7    1.72    2.01
   9  12  -7   -1.72    1.91
   9  12  -7    3.46    2.60
   9  12  -6   -3.40    2.14
   9  12  -6    1.16    1.98
   9  12  -5   -0.78    1.88
   9  12  -5    2.67    2.22
   9  12  -4    3.27    2.17
   9  12  -4   -0.10    0.79
   9  12  -3   -0.25    1.87
   9  12  -2    3.36    2.01
   9  12  -1    0.38    1.87
   9  12   0    1.65    2.21
   9  12   1    0.93    2.24
   9  12   2   -1.40    1.73
   9  12   3    0.40    1.85
   9  12   4    3.31    2.05
   9  12   5   -2.41    1.70
   9  12   6    3.48    2.09
   9  12   7    2.73    2.18
   8  13  -6    1.65    2.38
   8  13  -6   -0.13    2.32
   8  13  -5    1.44    1.94
   8  13  -5    0.61    2.25
   8  13  -4   -0.59    1.58
   8  13  -4    1.29    2.29
   8  13  -3    3.71    2.40
   8  13  -2   -1.43    1.73
   8  13  -1   -0.41    1.76
   8  13   0    1.65    1.91
   8  13   1   -0.28    1.88
   8  13   2   -0.29    1.74
   8  13   3    1.95    1.97
   8  13   4    2.08    2.00
   8  13   5    2.03    2.06
   8  13   6    0.57    1.97
   7  14  -6    2.85    2.33
   7  14  -6    0.63    2.02
   7  14  -5    0.73    2.21
   7  14  -5    2.84    2.05
   7  14  -4    3.59    2.34
   7  14  -4    2.92    2.22
   7  14  -3    9.22    2.58
   7  14  -3    7.11    2.06
   7  14  -2    0.82    1.88
   7  14  -1   -0.02    1.80
   7  14   0    0.57    1.85
   7  14   1    2.42    2.28
   7  14   2   -1.24    2.06
   7  14   3    5.80    2.49
   7  14   4    3.07    2.40
   7  14   5    3.17    2.12
   7  14   6    1.80    2.01
   6  15  -6    3.97    2.38
   6  15  -6   -3.85    2.23
   6  15  -5    1.92    2.29
   6  15  -5    0.42    2.02
   6  15  -4    2.98    1.98
   6  15  -4    2.66    2.32
   6  15  -3   -2.24    1.27
   6  15  -3    1.89    1.96
   6  15  -2   -2.66    1.72
   6  15  -1    3.27    2.32
   6  15   0    2.26    1.99
   6  15   1    1.79    2.22
   6  15   2    0.20    1.86
   6  15   3    0.38    1.91
   6  15   4    1.08    1.98
   6  15   5    0.31    1.93
   6  15   6    1.54    2.01
   5  16  -5    0.36    2.30
   5  16  -5   -0.33    2.15
   5  16  -4   -1.29    1.73
   5  16  -4    1.81    1.93
   5  16  -3    5.79    2.35
   5  16  -2    3.83    2.32
   5  16  -1    0.43    1.89
   5  16   0    2.46    1.91
   5  16   1    2.98    2.27
   5  16   2    2.21    2.03
   5  16   3    1.35    1.95
   5  16   4    2.32    2.31
   5  16   5    0.17    1.94
   4  17  -4    0.11    2.08
   4  17  -4   -2.84    2.10
   4  17  -3   -0.18    1.76
   4  17  -3    2.94    1.83
   4  17  -2   -0.38    2.10
   4  17  -1    0.53    2.24
   4  17   0   -1.61    2.11
   4  17   1    0.80    1.92
   4  17   2    3.38    2.05
   4  17   3    1.66    1.95
   4  17   4    1.09    2.06
   3  18  -3    3.18    2.27
   3  18  -3    0.21    2.12
   3  18  -2   -1.59    1.69
   3  18  -1    0.85    2.25
   3  18   0    1.00    2.31
   3  18   1    1.68    2.38
   3  18   2    2.24    2.40
   3  18   3   -0.28    1.92
   2  19  -2    2.44    2.36
   2  19  -1    2.45    2.04
   2  19   0   -1.64    2.25
   2  19   1   -0.77    2.18
   2  19   2    5.23    2.32
  17   5  -2    1.74    2.25
  17   5  -1   -3.87    1.86
  17   5   0    4.99    2.60
  17   5   1    0.57    2.14
  17   5   2   -1.00    2.04
  16   6  -3    0.99    2.44
  16   6  -2    0.92    2.50
  16   6  -1    4.75    2.28
  16   6   0   -1.60    2.00
  16   6   1    1.31    2.08
  16   6   2   -1.76    1.91
  16   6   3    3.19    2.35
  15   7  -4    0.84    2.18
  15   7  -3    3.98    2.31
  15   7  -2    1.49    2.16
  15   7  -1    0.17    1.94
  15   7   0    4.00    2.54
  15   7   1    0.72    2.35
  15   7   2    1.71    2.05
  15   7   3    2.13    2.43
  15   7   4   -0.65    2.03
  14   8  -5   -1.27    2.56
  14   8  -4   10.65    2.65
  14   8  -3    2.54    2.18
  14   8  -2    0.05    1.96
  14   8  -1    0.55    2.39
  14   8   0    1.34    1.99
  14   8   1    3.18    2.04
  14   8   2   -0.11    2.21
  14   8   3    2.12    2.14
  14   8   4    6.69    2.47
  14   8   5   -0.96    2.35
  13   9  -5   -2.00    1.05
  13   9  -5    0.76    2.03
  13   9  -4    7.49    2.51
  13   9  -3    0.11    2.08
  13   9  -2    1.30    2.06
  13   9  -1   -1.92    1.88
  13   9   0    0.92    2.38
  13   9   1    0.20    1.83
  13   9   2    2.84    2.15
  13   9   3    0.98    1.95
  13   9   4    8.98    2.85
  13   9   5    1.66    2.11
  12  10  -5   -1.39    1.78
  12  10  -5   -0.59    2.01
  12  10  -4    0.15    2.02
  12  10  -3    3.64    2.50
  12  10  -2   -0.66    1.89
  12  10  -1    0.37    1.94
  12  10   0    1.41    1.99
  12  10   1    3.55    2.15
  12  10   2   -0.77    1.88
  12  10   3    1.14    1.97
  12  10   4   -0.87    1.86
  12  10   5   -2.11    1.95
  11  11  -5   -1.15    2.05
  11  11  -5    1.97    2.20
  11  11  -4   -3.47    2.23
  11  11  -3    0.73    2.05
  11  11  -2    1.87    2.47
  11  11  -1    0.69    1.87
  11  11   0    1.50    2.27
  11  11   1   -0.27    1.89
  11  11   2    6.32    2.54
  11  11   3   -0.48    2.17
  11  11   4   -0.45    1.96
  11  11   5   -0.86    2.29
  10  12  -5    1.69    1.93
  10  12  -5    3.46    2.22
  10  12  -4   -1.53    2.28
  10  12  -3    6.38    2.61
  10  12  -2   -0.07    2.22
  10  12  -1   -0.46    1.82
  10  12   0    7.24    2.56
  10  12   1   -0.23    1.82
  10  12   2    2.50    2.04
  10  12   3    2.16    2.03
  10  12   4    4.07    2.47
  10  12   5    0.99    1.98
   9  13  -5    0.31    2.37
   9  13  -5   -1.86    2.21
   9  13  -4    7.78    2.43
   9  13  -3   -0.22    1.91
   9  13  -2   -3.02    1.72
   9  13  -1    1.00    1.93
   9  13   0    1.97    2.27
   9  13   1    2.19    2.03
   9  13   2    0.40    1.83
   9  13   3    2.21    1.96
   9  13   4    8.83    2.42
   9  13   5   -0.67    1.83
   8  14  -5    4.98    2.64
   8  14  -4    5.35    2.23
   8  14  -3    1.16    2.36
   8  14  -2   -1.23    2.20
   8  14  -1    2.61    1.97
   8  14   0    1.81    1.95
   8  14   1    2.49    2.28
   8  14   2    0.52    1.90
   8  14   3   -1.76    1.84
   8  14   4    6.06    2.41
   8  14   5    1.76    2.12
   7  15  -4    1.05    1.50
   7  15  -4   -2.07    1.82
   7  15  -3    3.38    2.40
   7  15  -2   -0.99    2.17
   7  15  -1   -3.37    2.05
   7  15   0    2.77    2.04
   7  15   1    2.50    2.07
   7  15   2    1.10    1.99
   7  15   3    4.55    2.53
   7  15   4    0.89    1.99
   6  16  -3    1.00    2.02
   6  16  -2   -2.48    2.07
   6  16  -1    2.75    2.39
   6  16   0   -0.68    1.84
   6  16   1    2.54    2.05
   6  16   2    0.17    2.30
   6  16   3   -0.03    1.97
   5  17  -2    1.10    1.95
   5  17  -1    1.73    1.94
   5  17   0    3.04    2.12
   5  17   1    0.68    1.98
   5  17   2    0.69    2.04
  15   8   0    0.91    2.53
  14   9  -2    1.02    2.20
  14   9  -1    1.21    2.06
  14   9   0    3.52    2.55
  14   9   1    2.75    2.13
  14   9   2   -2.97    1.86
  13  10  -2    1.11    2.15
  13  10  -1    0.85    2.10
  13  10   0    0.52    2.39
  13  10   1    2.22    2.06
  13  10   2   -1.99    1.82
  12  11  -2    0.49    2.47
  12  11  -1   -1.24    2.30
  12  11   0   -0.96    1.88
  12  11   1   -0.14    2.25
  12  11   2    2.25    2.39
  11  12  -2    2.49    2.09
  11  12  -1   -0.70    1.94
  11  12   0   -1.59    2.22
  11  12   1   -0.75    1.89
  11  12   2    4.28    2.17
  10  13  -2    0.68    2.00
  10  13  -1    2.48    2.12
  10  13   0   -1.97    2.20
  10  13   1   -1.59    1.87
  10  13   2    2.26    2.04
   9  14  -2   -3.17    2.19
   9  14  -1    1.74    2.40
   9  14   0    3.28    2.18
   9  14   1    0.69    1.93
   9  14   2    0.93    2.35
   8  15   0   -1.74    1.82
   0   0   0    0.00    0.00
;
_shelx_hkl_checksum              12592
_shelx_fab_file
;
    0    0    2    -22.48     -0.09
    0    0    4     -1.22     -0.14
    0    0    6      4.11      0.02
    0    0    8     11.10      0.18
    0    0   10     -4.78     -0.21
    0    0   12      6.62      2.65
    0    0   14     -2.84     -0.49
    0    0   16     -2.06      3.37
    0    1   16     -1.94      0.04
    0    1   15      0.28     -0.22
    0    1   14     -1.66      0.40
    0    1   13      0.22      0.65
    0    1   12     -0.26     -1.34
    0    1   11     -1.23     -0.54
    0    1   10     -3.81      0.37
    0    1    9     -0.63      0.12
    0    1    8      4.01     -0.62
    0    1    5      2.88      0.14
    0    1    4      3.14     -0.10
    0    1    3      1.83     -0.23
    0    1    2      5.98      1.60
    0    1    1     40.33     -0.38
    0    1    0    419.22      1.19
    0    1    6      1.25      0.01
    0    1    7     -0.67      0.04
    0    2   16     -1.02     -0.56
    0    2   15     -0.84      0.09
    0    2   14      1.01      0.29
    0    2   13     -0.27      0.68
    0    2   12     -5.59     -3.71
    0    2   11     -1.98     -0.21
    0    2   10     -1.07      0.36
    0    2    9      1.00     -0.03
    0    2    8     -0.13      0.06
    0    2    7      3.00      0.18
    0    2    6     -6.63      0.61
    0    2    5      6.41      0.25
    0    2    4      0.39      0.97
    0    2    3      3.65     -1.02
    0    2    2     13.28     -1.18
    0    2    1     71.74     -4.92
    0    2    0    -50.27      4.49
    0    3   16     -1.13      0.28
    0    3   15     -2.81      0.45
    0    3   14      0.18     -1.65
    0    3   13      0.78     -0.49
    0    3   12     -4.40     -1.48
    0    3   11      0.51      0.49
    0    3   10      0.48     -0.02
    0    3    9     -0.82     -0.06
    0    3    8     -0.38      0.60
    0    3    7      3.41      0.07
    0    3    6     -4.52     -0.26
    0    3    5      0.26     -0.16
    0    3    4     -9.82      1.06
    0    3    3     13.76      0.61
    0    3    2     11.95     -2.26
    0    3    1    -31.54     -0.35
    0    3    0    -89.17     -1.42
    0    4   16     -1.74     -0.27
    0    4   15     -2.09     -0.12
    0    4   14     -0.22     -2.19
    0    4   13      2.71     -0.19
    0    4   12     -0.10      0.03
    0    4   11      0.58      0.01
    0    4   10     -0.08     -0.14
    0    4    9      0.46     -0.02
    0    4    8      1.23      0.64
    0    4    7     -4.32      0.24
    0    4    6     -4.60     -0.04
    0    4    5     -4.32     -0.50
    0    4    4     -6.57      0.68
    0    4    3     14.14      2.87
    0    4    2     21.05     -1.13
    0    4    1    -42.22      2.68
    0    4    0    -21.10      5.77
    0    5   16     -0.67     -0.11
    0    5   15      0.31     -0.22
    0    5   14      0.90     -0.72
    0    5   13      3.46     -0.17
    0    5   12      0.23      0.16
    0    5   11      0.17     -0.22
    0    5   10     -2.19      0.25
    0    5    9      2.85     -0.14
    0    5    8      1.31      0.12
    0    5    7      0.26      0.42
    0    5    6      0.32      0.04
    0    5    5     -6.24     -0.41
    0    5    4     11.35      0.07
    0    5    3      7.10      1.67
    0    5    2     -4.26      1.44
    0    5    1    -16.50      1.27
    0    5    0     22.90      2.53
    0    6   15      1.59     -0.01
    0    6   14      3.48      0.29
    0    6   13     -0.28     -0.28
    0    6   12      1.03      0.06
    0    6   11     -1.26     -0.14
    0    6   10     -0.53     -0.39
    0    6    9      1.91     -0.39
    0    6    8      1.22      0.30
    0    6    7      1.87      0.18
    0    6    6      2.99     -0.11
    0    6    5     -5.26      0.74
    0    6    4      3.48     -0.21
    0    6    3     -1.34     -0.61
    0    6    2     -5.22      0.66
    0    6    1     -1.78      0.44
    0    6    0      9.17     -4.57
    0    7   15     -1.34     -0.06
    0    7   14      1.48      0.27
    0    7   13     -1.59     -0.34
    0    7   12      0.27      0.20
    0    7   11      0.01     -0.08
    0    7   10      0.89     -0.16
    0    7    9     -2.54      0.07
    0    7    8      0.55      0.77
    0    7    7      0.64     -0.25
    0    7    6      1.09     -0.02
    0    7    5      2.04      0.89
    0    7    4     -1.55     -0.40
    0    7    3     -2.32      0.05
    0    7    2      7.16     -1.11
    0    7    1      5.23     -0.60
    0    7    0      4.09     -1.17
    0    8   15     -1.92     -0.04
    0    8   14     -3.78     -0.63
    0    8   13     -0.10     -0.02
    0    8   12      1.33     -0.03
    0    8   11      0.08      0.01
    0    8   10      0.58     -0.04
    0    8    9      0.52      0.02
    0    8    8     -3.53     -0.12
    0    8    7      0.61      0.15
    0    8    6     -0.79     -0.03
    0    8    5     -1.96      0.07
    0    8    4     -3.98      0.62
    0    8    3      1.82     -0.32
    0    8    2      9.45     -1.06
    0    8    1      0.73      1.57
    0    8    0     12.73      2.18
    0    9   14      0.11     -0.94
    0    9   13      0.79      0.12
    0    9   12      2.07      0.16
    0    9   11     -0.16     -0.05
    0    9   10     -0.19     -0.08
    0    9    9     -2.09     -0.22
    0    9    8     -0.53     -0.93
    0    9    7      1.84     -0.13
    0    9    6      1.06      0.00
    0    9    5     -1.46     -0.32
    0    9    4     -2.31      0.22
    0    9    3      3.01      0.67
    0    9    2     -1.39      0.61
    0    9    1      4.25      0.21
    0    9    0      3.70     -0.44
    0   10   14      0.13     -0.15
    0   10   13     -0.52     -0.13
    0   10   12      2.10      0.12
    0   10   11      1.47     -0.25
    0   10   10      3.97     -0.35
    0   10    9     -1.39      0.19
    0   10    8     -2.12     -0.88
    0   10    7      3.33     -0.66
    0   10    6     -0.19     -0.18
    0   10    5     -0.58      0.10
    0   10    4      0.26     -1.31
    0   10    3      3.24      0.67
    0   10    2     -1.12      0.61
    0   10    1      0.51     -0.49
    0   10    0     -4.89     -0.79
    0   11   13     -2.04     -0.17
    0   11   12     -0.10      0.31
    0   11   11     -1.04     -0.16
    0   11   10      2.63     -0.31
    0   11    9     -0.66      0.27
    0   11    8     -0.93      0.65
    0   11    7      0.74     -0.15
    0   11    6      2.55     -0.65
    0   11    5     -0.65      0.35
    0   11    4      0.61      0.82
    0   11    3      0.02     -0.48
    0   11    2     -0.60     -0.11
    0   11    1     -2.59      0.85
    0   11    0      0.53      0.39
    0   12   13     -0.70     -0.02
    0   12   12     -3.00      0.23
    0   12   11     -2.56     -0.06
    0   12   10      2.04     -0.24
    0   12    9     -0.22      0.03
    0   12    8      1.34      1.69
    0   12    7      0.82      0.56
    0   12    6      0.34      0.11
    0   12    5     -0.59     -0.56
    0   12    4      1.65      1.60
    0   12    3      0.43     -0.57
    0   12    2      2.01     -0.16
    0   12    1      2.01      0.22
    0   12    0      4.31     -0.31
    0   13   12     -2.15      0.15
    0   13   11     -1.35      0.38
    0   13   10      0.13      0.24
    0   13    9      2.22     -0.34
    0   13    8      3.01     -0.15
    0   13    7     -0.01      0.37
    0   13    6      1.84     -0.04
    0   13    5      1.74     -0.23
    0   13    4      1.57      0.77
    0   13    3      1.88      0.25
    0   13    2      1.24     -0.12
    0   13    1      1.58     -0.49
    0   13    0     -0.09     -0.62
    0   14   11     -0.48      0.27
    0   14   10     -0.37      0.00
    0   14    9      1.23     -0.25
    0   14    8      0.05     -0.39
    0   14    7      1.96     -0.71
    0   14    6      1.04     -0.14
    0   14    5      0.49      1.26
    0   14    4     -0.40     -0.16
    0   14    3     -0.16      0.26
    0   14    2     -1.30      0.10
    0   14    1     -1.87     -1.27
    0   14    0      0.48     -1.03
    0   15   11     -1.41     -0.53
    0   15   10      0.19     -0.04
    0   15    9      0.34      0.39
    0   15    8     -0.45      0.08
    0   15    7      1.83     -2.21
    0   15    6      1.46      0.63
    0   15    5     -2.95      0.17
    0   15    4     -0.45     -0.65
    0   15    3      0.60      0.01
    0   15    2     -0.16     -1.26
    0   15    1     -0.42     -2.35
    0   15    0      0.46     -1.06
    0   16   10     -1.04      0.77
    0   16    9      0.88      0.43
    0   16    8     -0.85     -0.14
    0   16    7     -0.26     -0.57
    0   16    6     -1.10      0.94
    0   16    5      0.05     -3.43
    0   16    4      0.83     -0.39
    0   16    3      0.62     -0.01
    0   16    2     -0.10     -2.93
    0   16    1     -1.27     -0.83
    0   16    0     -0.32     -0.34
    0   17    9     -2.48     -0.68
    0   17    8     -0.23      0.39
    0   17    7     -0.83      1.37
    0   17    6      0.69     -0.49
    0   17    5      1.78     -4.93
    0   17    4      2.98      0.52
    0   17    3      0.91     -0.06
    0   17    2      0.57     -1.03
    0   17    1     -0.11      0.32
    0   17    0      3.17     -0.68
    0   18    7      2.69      0.72
    0   18    6      2.22     -1.29
    0   18    5     -0.07     -2.33
    0   18    4      1.50      0.95
    0   18    3     -0.16     -0.14
    0   18    2      0.78      0.42
    0   18    1      0.79      0.06
    0   18    0      0.11     -0.12
    0   19    5     -0.47      1.35
    0   19    4      0.44      0.79
    0   19    3      0.86     -0.26
    0   19    2      0.38      0.23
    0   19    1      0.50      0.58
    0   19    0      1.04      3.07
    0   20    2      1.43     -0.24
    0   20    1     -1.94      0.13
    0   20    0      4.36      3.22
   -1   20    4     -0.68     -0.47
   -1   20    3     -1.89      1.25
   -1   20    2      1.11     -4.91
   -1   20    1      0.63     -1.42
   -1   20    0      4.30      2.65
   -1   19    6      1.04     -1.05
   -1   19    5     -0.87     -0.80
   -1   19    4     -0.73     -0.50
   -1   19    3     -1.00      2.26
   -1   19    2     -1.69     -2.04
   -1   19    1      2.05     -0.03
   -1   19    0     -0.73      1.26
   -1   18    8      1.93     -0.71
   -1   18    7      0.46      0.69
   -1   18    6      0.34     -0.02
   -1   18    5     -0.04     -0.97
   -1   18    4      0.47     -0.31
   -1   18    3      0.05      1.96
   -1   18    2     -1.20     -0.13
   -1   18    1      0.52     -0.65
   -1   18    0      3.58     -0.04
   -1   17    9     -0.34     -2.75
   -1   17    8     -0.19     -1.39
   -1   17    7     -0.03     -0.30
   -1   17    6     -1.09      0.50
   -1   17    5     -0.54     -1.58
   -1   17    4      2.07     -0.73
   -1   17    3      1.51     -0.47
   -1   17    2     -0.35     -1.69
   -1   17    1     -0.79      0.26
   -1   17    0      0.76      0.40
   -1   16   10      0.34      3.45
   -1   16    9     -0.66     -2.92
   -1   16    8     -0.97     -0.49
   -1   16    7      0.27     -1.77
   -1   16    6      1.45      0.63
   -1   16    5     -1.72     -1.90
   -1   16    4      0.13     -0.95
   -1   16    3      0.52     -2.34
   -1   16    2      1.73     -1.63
   -1   16    1      0.21     -0.53
   -1   16    0     -0.61      0.24
   -1   15   11     -1.50      1.66
   -1   15   10      0.09      3.54
   -1   15    9     -0.76     -3.28
   -1   15    8     -1.23     -0.47
   -1   15    7     -0.24     -2.81
   -1   15    6      2.82      0.83
   -1   15    5      0.53     -0.47
   -1   15    4     -0.26      1.50
   -1   15    3     -0.95     -2.25
   -1   15    2      0.10     -1.34
   -1   15    1     -0.43     -1.30
   -1   15    0      0.35      0.05
   -1   14   12      1.69     -0.23
   -1   14   11      0.37      1.61
   -1   14   10     -1.02     -0.92
   -1   14    9      0.38     -0.82
   -1   14    8      0.58     -1.09
   -1   14    7     -0.99     -1.75
   -1   14    6     -0.01     -0.15
   -1   14    5      3.19      1.24
   -1   14    4     -1.68      1.92
   -1   14    3      0.57      0.11
   -1   14    2     -0.80     -0.66
   -1   14    1     -1.08     -0.89
   -1   14    0     -1.15      0.05
   -1   13   13      0.20     -1.17
   -1   13   12     -2.31     -0.41
   -1   13   11      0.51      0.70
   -1   13   10      1.34     -5.41
   -1   13    9     -0.09      1.99
   -1   13    8      0.50      0.31
   -1   13    7      0.42      3.37
   -1   13    6     -0.36     -0.76
   -1   13    5      0.12      1.40
   -1   13    4      0.81     -1.04
   -1   13    3      0.42      1.66
   -1   13    2      0.56      2.85
   -1   13    1      1.15      0.93
   -1   13    0     -0.47     -0.06
   -1   12   13     -0.56     -1.16
   -1   12   12      0.82      1.18
   -1   12   11     -0.88      1.65
   -1   12   10      1.65     -5.02
   -1   12    9     -1.62      1.05
   -1   12    8     -1.11      1.74
   -1   12    7      0.02      6.13
   -1   12    6     -0.39     -1.12
   -1   12    5     -0.14      1.25
   -1   12    4      0.61     -1.20
   -1   12    3      0.52      2.75
   -1   12    2     -0.27      1.56
   -1   12    1      0.00      1.15
   -1   12    0      2.21      0.13
   -1   11   14     -2.68      0.19
   -1   11   13     -1.75      1.23
   -1   11   12      2.11      2.84
   -1   11   11      0.65      0.02
   -1   11   10      1.73     -2.93
   -1   11    9      0.28     -1.35
   -1   11    8     -0.93     -0.93
   -1   11    7      1.13      2.92
   -1   11    6      0.68      0.60
   -1   11    5     -0.45      0.12
   -1   11    4     -0.23      0.57
   -1   11    3      0.97      0.98
   -1   11    2      0.20     -2.64
   -1   11    1      0.93     -1.36
   -1   11    0     -2.20     -0.20
   -1   10   14      2.05      1.75
   -1   10   13     -1.64      2.92
   -1   10   12      1.38      3.79
   -1   10   11     -0.26     -0.44
   -1   10   10      1.01     -0.26
   -1   10    9     -3.09     -1.53
   -1   10    8      1.07     -0.32
   -1   10    7      2.07      0.10
   -1   10    6     -0.89     -0.23
   -1   10    5      0.59     -0.02
   -1   10    4     -0.99     -1.96
   -1   10    3      2.01     -4.59
   -1   10    2     -0.35     -2.70
   -1   10    1      5.11     -2.47
   -1   10    0     -0.95     -0.72
   -1    9   15     -0.16      1.93
   -1    9   14     -0.29      0.70
   -1    9   13     -1.07      3.77
   -1    9   12      1.10      2.46
   -1    9   11     -1.94      0.51
   -1    9   10     -0.69      1.37
   -1    9    9     -0.20      0.14
   -1    9    8      0.63      0.57
   -1    9    7      2.15     -1.54
   -1    9    6      1.39     -0.97
   -1    9    5     -1.04     -0.47
   -1    9    4     -1.39     -0.57
   -1    9    3     -3.10     -6.33
   -1    9    2      4.95     -3.12
   -1    9    1      0.60     -0.66
   -1    9    0      6.18      1.01
   -1    8   15     -3.06      0.25
   -1    8   14     -0.21     -1.20
   -1    8   13      0.05      0.34
   -1    8   12      1.10     -0.86
   -1    8   11      0.43     -0.08
   -1    8   10      1.40      1.56
   -1    8    9     -1.04      0.78
   -1    8    8     -1.02      1.67
   -1    8    7      1.59     -0.98
   -1    8    6     -0.87      1.28
   -1    8    5      4.06      0.72
   -1    8    4      1.52     -0.43
   -1    8    3     -0.55      2.53
   -1    8    2      5.34     -4.45
   -1    8    1     -0.28      2.26
   -1    8    0      5.19      0.72
   -1    7   15     -0.08     -1.69
   -1    7   14      2.47     -1.31
   -1    7   13     -0.22     -1.32
   -1    7   12      0.17      0.27
   -1    7   11     -0.05      0.05
   -1    7   10      0.05     -1.84
   -1    7    9      0.12      0.58
   -1    7    8      2.06      0.42
   -1    7    7      0.50     -1.85
   -1    7    6      1.16      2.08
   -1    7    5     -1.34      2.70
   -1    7    4     -1.09      1.33
   -1    7    3      2.14      6.95
   -1    7    2     -3.40     -9.53
   -1    7    1     -0.12      4.93
   -1    7    0     -3.06     -1.46
   -1    6   15      1.03     -1.65
   -1    6   14      0.20      0.78
   -1    6   13      2.18      0.98
   -1    6   12     -0.09      0.92
   -1    6   11     -0.77      0.84
   -1    6   10     -1.01     -1.99
   -1    6    9      1.47      2.53
   -1    6    8     -0.50     -0.54
   -1    6    7      1.86     -2.01
   -1    6    6      1.20     -3.00
   -1    6    5    -10.72     -0.57
   -1    6    4     -0.26     -0.61
   -1    6    3      8.52     -0.13
   -1    6    2     -1.51    -21.81
   -1    6    1     -6.15      3.30
   -1    6    0      2.95     -0.61
   -1    5   16     -0.92     -2.44
   -1    5   15     -0.25     -1.70
   -1    5   14     -1.00      0.52
   -1    5   13      1.54      1.19
   -1    5   12      0.05     -0.15
   -1    5   11     -0.38      1.76
   -1    5   10     -0.39      0.98
   -1    5    9      1.67      2.44
   -1    5    8      0.22      1.15
   -1    5    7     -0.65     -4.04
   -1    5    6     -0.54     -3.82
   -1    5    5     -5.40     -4.89
   -1    5    4     -3.44     -3.95
   -1    5    3      0.87     -3.32
   -1    5    2     14.25    -11.71
   -1    5    1     -0.62      1.67
   -1    5    0      5.02      0.01
   -1    4   16     -0.35     -1.24
   -1    4   15     -0.96     -0.72
   -1    4   14      0.49     -1.03
   -1    4   13      0.39     -0.62
   -1    4   12     -0.93     -1.03
   -1    4   11     -1.29      1.16
   -1    4   10     -0.08      2.20
   -1    4    9     -0.62     -0.23
   -1    4    8      0.48      1.56
   -1    4    7     -1.89     -0.06
   -1    4    6     -2.95     -2.34
   -1    4    5      0.23     -1.27
   -1    4    4     -7.65     -4.65
   -1    4    3      6.53      3.57
   -1    4    2      5.91     24.86
   -1    4    1    -16.28     -6.22
   -1    4    0     -2.02    -11.80
   -1    3   16      0.00      0.34
   -1    3   15     -1.07      1.35
   -1    3   14      2.70     -0.21
   -1    3   13      0.06     -1.44
   -1    3   12     -2.44     -2.16
   -1    3   11     -0.46      0.34
   -1    3   10     -1.40      0.49
   -1    3    9     -0.81     -2.38
   -1    3    8      2.37     -0.24
   -1    3    7      3.56      4.26
   -1    3    6     -7.82     -2.17
   -1    3    5      2.33      4.22
   -1    3    4      1.75      0.13
   -1    3    3      3.23     16.07
   -1    3    2    -18.87     26.48
   -1    3    1     11.51    -30.62
   -1    3    0    -13.10    -11.83
   -1    2   16     -0.81     -0.32
   -1    2   15     -0.47      1.28
   -1    2   14      1.00      0.22
   -1    2   13     -0.06     -1.24
   -1    2   12     -2.80     -3.07
   -1    2   11     -0.31      0.04
   -1    2   10     -1.14     -0.08
   -1    2    9     -0.13     -0.94
   -1    2    8     -0.22     -0.03
   -1    2    7     -0.54      4.08
   -1    2    6     -6.68      0.33
   -1    2    5      0.07      2.63
   -1    2    4      4.50      0.13
   -1    2    3     -0.57     10.62
   -1    2    2      6.32      0.05
   -1    2    1      1.33    -15.90
   -1    2    0     54.51      0.43
   -2   21    1      1.91     -2.14
   -2   21    0      2.96      0.40
   -2   20    5      0.05     -2.78
   -2   20    4     -0.01     -2.20
   -2   20    3     -1.00      2.10
   -2   20    2     -1.83     -4.10
   -2   20    1      2.69      0.71
   -2   20    0      2.46      0.98
   -2   19    7      0.53      2.19
   -2   19    6      0.45      1.23
   -2   19    5     -1.50      0.81
   -2   19    4     -1.39     -1.94
   -2   19    3     -0.94      1.03
   -2   19    2     -1.87     -0.51
   -2   19    1      0.64      2.25
   -2   19    0      1.12      1.03
   -2   18    8     -0.29     -0.82
   -2   18    7      0.44      2.01
   -2   18    6     -0.52      1.83
   -2   18    5     -2.83      4.26
   -2   18    4      0.34     -0.07
   -2   18    3      0.84     -0.12
   -2   18    2     -0.28     -3.33
   -2   18    1      0.20      0.78
   -2   18    0      1.76      1.50
   -2   17   10      0.06      1.43
   -2   17    9      1.25     -0.78
   -2   17    8     -2.10     -1.43
   -2   17    7     -0.36      1.36
   -2   17    6      0.55      0.44
   -2   17    5     -1.59      2.77
   -2   17    4     -0.02      0.51
   -2   17    3     -0.17     -0.25
   -2   17    2      1.58     -2.85
   -2   17    1      0.41      0.20
   -2   17    0     -2.33      1.81
   -2   16   11     -2.39     -0.06
   -2   16   10     -0.53     -0.69
   -2   16    9     -1.63     -1.22
   -2   16    8     -1.11      0.83
   -2   16    7     -2.22     -0.71
   -2   16    6      2.74      1.66
   -2   16    5      1.79     -0.71
   -2   16    4      0.05      0.56
   -2   16    3     -2.55     -0.73
   -2   16    2      1.94     -1.93
   -2   16    1      2.61     -0.08
   -2   16    0     -1.28      1.05
   -2   15   11      1.12      3.79
   -2   15   10     -0.49     -3.48
   -2   15    9     -2.11     -3.25
   -2   15    8      0.25      1.46
   -2   15    7     -1.44     -0.77
   -2   15    6      0.56      1.17
   -2   15    5      2.62      1.11
   -2   15    4     -0.96      2.50
   -2   15    3     -1.91     -0.11
   -2   15    2     -0.84     -3.31
   -2   15    1      0.59      0.01
   -2   15    0     -0.18      0.43
   -2   14   12     -1.29     -0.16
   -2   14   11      3.46      3.64
   -2   14   10      1.03     -4.39
   -2   14    9     -1.29     -1.26
   -2   14    8      1.07      0.56
   -2   14    7     -0.82     -0.93
   -2   14    6     -0.21     -0.04
   -2   14    5     -0.69      1.80
   -2   14    4     -1.70      0.78
   -2   14    3      1.52      0.23
   -2   14    2     -0.50      0.62
   -2   14    1     -1.30     -2.23
   -2   14    0     -2.47      0.35
   -2   13   13     -0.82     -2.85
   -2   13   12      1.36     -1.27
   -2   13   11      1.56      2.87
   -2   13   10      1.54     -1.36
   -2   13    9     -2.37      0.14
   -2   13    8     -0.77      1.17
   -2   13    7      0.59      1.77
   -2   13    6     -1.08     -2.94
   -2   13    5     -0.32      0.85
   -2   13    4     -0.72     -1.36
   -2   13    3     -0.16      0.46
   -2   13    2      0.25      5.31
   -2   13    1     -0.62     -3.64
   -2   13    0     -0.78     -0.15
   -2   12   13     -1.08      0.35
   -2   12   12      2.84      0.81
   -2   12   11     -0.26      0.91
   -2   12   10     -1.22      0.82
   -2   12    9     -0.97      1.01
   -2   12    8     -1.16     -0.14
   -2   12    7     -0.28      1.53
   -2   12    6     -0.09     -2.13
   -2   12    5      2.34     -1.24
   -2   12    4      0.21      1.80
   -2   12    3     -0.19      3.14
   -2   12    2     -1.07     -2.13
   -2   12    1      1.55     -2.79
   -2   12    0      2.07      0.38
   -2   11   14      1.55      0.51
   -2   11   13     -1.41      1.58
   -2   11   12      0.66      3.52
   -2   11   11      0.16     -3.15
   -2   11   10     -0.55     -0.45
   -2   11    9     -0.63      2.67
   -2   11    8     -0.86     -1.43
   -2   11    7      0.13      3.54
   -2   11    6     -2.81      0.77
   -2   11    5      1.11      0.81
   -2   11    4     -0.88     -0.84
   -2   11    3      0.74      2.44
   -2   11    2      0.73     -4.79
   -2   11    1      4.64     -1.15
   -2   11    0      1.09      0.71
   -2   10   14      2.51      0.01
   -2   10   13     -2.02      2.21
   -2   10   12     -0.11      5.63
   -2   10   11     -2.09     -0.88
   -2   10   10     -0.68     -0.82
   -2   10    9     -1.61      1.46
   -2   10    8      1.95      1.57
   -2   10    7      0.59     -0.04
   -2   10    6     -0.19      0.59
   -2   10    5     -0.87      1.53
   -2   10    4     -1.02     -6.54
   -2   10    3     -4.56     -2.76
   -2   10    2      0.31     -2.20
   -2   10    1      2.87      2.54
   -2   10    0     -2.36     -0.10
   -2    9   15     -2.44      1.53
   -2    9   14     -0.24     -0.53
   -2    9   13     -0.33      2.10
   -2    9   12      1.29      0.87
   -2    9   11     -2.80      0.10
   -2    9   10      0.98      2.40
   -2    9    9      1.56     -0.67
   -2    9    8      1.99      1.21
   -2    9    7      2.13     -3.38
   -2    9    6      1.41      0.10
   -2    9    5      2.36      0.63
   -2    9    4      1.40     -3.65
   -2    9    3     -4.25     -3.17
   -2    9    2      2.18     -4.00
   -2    9    1     -4.33      3.89
   -2    9    0     -0.91     -0.32
   -2    8   15     -1.81     -0.61
   -2    8   14      0.79     -1.26
   -2    8   13      1.43     -0.25
   -2    8   12      0.62     -1.30
   -2    8   11     -0.77      1.00
   -2    8   10      0.83      3.60
   -2    8    9     -0.39     -0.63
   -2    8    8      3.28      3.05
   -2    8    7     -0.24     -6.38
   -2    8    6      0.45      1.05
   -2    8    5      7.18     -0.52
   -2    8    4     -0.13      1.64
   -2    8    3      2.94      5.10
   -2    8    2     -2.55     -2.58
   -2    8    1     -1.48      1.17
   -2    8    0      0.85      0.27
   -2    7   15      0.63     -1.15
   -2    7   14     -0.36      0.70
   -2    7   13      1.31      0.87
   -2    7   12     -0.56      1.32
   -2    7   11     -0.12      0.07
   -2    7   10      0.28     -0.31
   -2    7    9     -0.22      1.66
   -2    7    8     -0.38      2.43
   -2    7    7     -0.84     -1.85
   -2    7    6     -1.02      0.03
   -2    7    5     -4.69      4.56
   -2    7    4     -7.07      4.67
   -2    7    3      8.54      4.27
   -2    7    2      0.67     -2.61
   -2    7    1     -4.15     -8.98
   -2    7    0     -1.74      2.18
   -2    6   16     -0.53     -1.63
   -2    6   15      0.47     -0.03
   -2    6   14     -1.14      2.83
   -2    6   13      0.31      1.63
   -2    6   12     -1.81     -0.26
   -2    6   11     -0.12      0.09
   -2    6   10     -0.31     -0.60
   -2    6    9      0.20      3.79
   -2    6    8     -2.34      0.89
   -2    6    7      1.97     -0.69
   -2    6    6     -1.06     -5.34
   -2    6    5     -8.17      4.74
   -2    6    4     -2.34      1.45
   -2    6    3      1.57     -4.23
   -2    6    2     10.68     -1.07
   -2    6    1      4.84      3.23
   -2    6    0     -6.30      1.39
   -2    5   16      1.40     -0.93
   -2    5   15      0.47     -0.75
   -2    5   14      0.68      1.33
   -2    5   13     -1.21      0.79
   -2    5   12      0.31     -0.34
   -2    5   11     -1.13      0.92
   -2    5   10      0.26     -0.15
   -2    5    9      0.33      3.96
   -2    5    8     -1.87     -0.47
   -2    5    7      0.96     -1.32
   -2    5    6     -1.67     -3.23
   -2    5    5     -0.51     -1.04
   -2    5    4     -2.85     -0.54
   -2    5    3     -6.99    -12.52
   -2    5    2      9.75     10.10
   -2    5    1     16.34     41.39
   -2    5    0     15.87    -13.44
   -2    4   16      1.80      0.79
   -2    4   15      1.60      0.23
   -2    4   14      2.31     -0.48
   -2    4   13     -0.43      0.48
   -2    4   12      0.17      1.16
   -2    4   11      0.04      2.54
   -2    4   10     -1.13     -0.27
   -2    4    9      0.12      0.30
   -2    4    8      0.30     -0.59
   -2    4    7      1.98      2.12
   -2    4    6     -1.69     -0.48
   -2    4    5     -0.25     -2.89
   -2    4    4      3.79     -0.72
   -2    4    3     -0.10      0.55
   -2    4    2    -28.83      1.13
   -2    4    1      1.34     17.35
   -2    4    0     71.00    -28.18
   -3   21    3     -1.29      2.27
   -3   21    2     -0.55     -4.10
   -3   21    1      1.45     -1.04
   -3   21    0      3.30     -0.13
   -3   20    6      1.44      0.29
   -3   20    5      0.91      1.34
   -3   20    4      1.42     -1.53
   -3   20    3      0.61      0.14
   -3   20    2      0.10      0.21
   -3   20    1      1.75      2.64
   -3   20    0      0.19      0.96
   -3   19    8     -1.21      0.39
   -3   19    7     -0.22      3.09
   -3   19    6      0.47      0.31
   -3   19    5     -1.93      2.80
   -3   19    4      0.79      1.63
   -3   19    3     -0.48     -0.62
   -3   19    2      1.68      1.02
   -3   19    1      0.03      1.32
   -3   19    0      1.83      1.26
   -3   18    9      2.89     -1.03
   -3   18    8     -1.71     -0.39
   -3   18    7      0.28      2.61
   -3   18    6      0.73      0.00
   -3   18    5     -2.20      1.41
   -3   18    4      0.23      1.38
   -3   18    3     -0.66      0.56
   -3   18    2      1.61     -3.20
   -3   18    1     -0.55      0.66
   -3   18    0     -0.95      1.58
   -3   17   10     -0.06     -1.73
   -3   17    9      0.95      0.35
   -3   17    8     -1.54     -0.20
   -3   17    7     -0.65     -0.16
   -3   17    6      1.06      2.11
   -3   17    5      0.63      0.97
   -3   17    4     -0.94     -2.02
   -3   17    3     -1.51      2.05
   -3   17    2      0.94     -1.09
   -3   17    1      1.17     -1.95
   -3   17    0     -2.96      0.99
   -3   16   11     -0.93      2.20
   -3   16   10     -0.32     -2.08
   -3   16    9     -0.61     -1.11
   -3   16    8      1.15      1.24
   -3   16    7     -1.19     -0.33
   -3   16    6      0.76      2.08
   -3   16    5      0.60      1.66
   -3   16    4     -0.38      0.14
   -3   16    3     -2.14      0.98
   -3   16    2      0.03     -1.26
   -3   16    1      2.57     -0.91
   -3   16    0      0.49     -0.38
   -3   15   12     -0.66      0.32
   -3   15   11      1.75      3.26
   -3   15   10      0.11     -0.95
   -3   15    9     -0.72      0.23
   -3   15    8      3.58      2.14
   -3   15    7      0.10      0.62
   -3   15    6      0.38     -0.82
   -3   15    5     -2.90      1.87
   -3   15    4     -1.84      2.58
   -3   15    3      0.22     -0.09
   -3   15    2     -0.19     -2.01
   -3   15    1      0.70     -1.36
   -3   15    0      0.59     -0.22
   -3   14   12     -1.62     -1.30
   -3   14   11      1.21      0.59
   -3   14   10      0.96     -0.14
   -3   14    9     -1.43      1.63
   -3   14    8      1.38      0.90
   -3   14    7      0.84     -0.70
   -3   14    6      1.22     -1.56
   -3   14    5     -2.33     -0.96
   -3   14    4     -1.00      0.02
   -3   14    3      0.16     -2.13
   -3   14    2     -0.01      4.16
   -3   14    1     -0.59     -3.37
   -3   14    0     -1.13     -0.14
   -3   13   13     -1.09     -1.37
   -3   13   12      1.48     -0.99
   -3   13   11     -1.03      1.62
   -3   13   10     -0.89      1.24
   -3   13    9     -1.52     -0.27
   -3   13    8     -0.84      2.03
   -3   13    7     -0.04     -3.33
   -3   13    6      0.40     -2.48
   -3   13    5      1.65     -0.85
   -3   13    4      0.66     -1.58
   -3   13    3     -0.50     -0.04
   -3   13    2     -1.06      1.05
   -3   13    1     -1.56     -3.26
   -3   13    0      0.65     -0.34
   -3   12   14     -0.65     -0.11
   -3   12   13      0.47     -0.35
   -3   12   12      0.44      0.67
   -3   12   11      0.85     -0.78
   -3   12   10     -1.14      1.19
   -3   12    9      1.06      1.09
   -3   12    8     -0.89     -0.85
   -3   12    7     -1.56     -1.16
   -3   12    6     -1.04      0.41
   -3   12    5      2.26      0.31
   -3   12    4      0.29      0.93
   -3   12    3     -0.24      2.14
   -3   12    2      0.06     -4.48
   -3   12    1      0.44     -2.01
   -3   12    0      2.02      0.83
   -3   11   14      1.66     -0.02
   -3   11   13     -0.61     -2.12
   -3   11   12     -1.64      3.02
   -3   11   11      1.43     -2.42
   -3   11   10      1.45      0.96
   -3   11    9      0.07      2.04
   -3   11    8     -1.24     -0.71
   -3   11    7     -1.39      2.82
   -3   11    6     -4.08      2.30
   -3   11    5      1.16      3.15
   -3   11    4     -1.46     -4.70
   -3   11    3     -0.27      2.05
   -3   11    2     -1.54     -0.24
   -3   11    1      3.22      0.16
   -3   11    0      0.41     -0.01
   -3   10   14     -0.45     -0.37
   -3   10   13     -0.61      0.35
   -3   10   12      0.00      2.61
   -3   10   11     -2.52     -1.15
   -3   10   10      0.26      0.77
   -3   10    9      1.61      0.88
   -3   10    8     -0.72     -1.22
   -3   10    7      0.88     -1.87
   -3   10    6     -0.76      1.55
   -3   10    5     -0.74     -0.93
   -3   10    4     -2.56     -3.94
   -3   10    3     -1.31     -1.44
   -3   10    2     -0.52     -0.96
   -3   10    1     -1.38      3.38
   -3   10    0     -2.42     -1.19
   -3    9   15     -1.12     -2.28
   -3    9   14     -0.78     -0.35
   -3    9   13      0.72     -0.12
   -3    9   12      1.26     -3.15
   -3    9   11     -3.34      0.00
   -3    9   10      0.42      4.41
   -3    9    9      1.57     -0.01
   -3    9    8      0.94      2.50
   -3    9    7     -0.66     -5.26
   -3    9    6      1.72     -0.37
   -3    9    5      4.19     -5.23
   -3    9    4     -3.24     -1.61
   -3    9    3      1.28     -1.56
   -3    9    2      2.03     -3.22
   -3    9    1     -2.64      4.84
   -3    9    0      3.37     -0.79
   -3    8   15      0.32     -1.65
   -3    8   14      0.23     -0.31
   -3    8   13     -0.08      0.87
   -3    8   12     -0.30     -1.84
   -3    8   11     -1.28      0.34
   -3    8   10      0.97      1.75
   -3    8    9     -0.05      0.16
   -3    8    8      0.97      4.22
   -3    8    7     -2.90     -4.30
   -3    8    6     -0.09      1.85
   -3    8    5      5.34      0.56
   -3    8    4     -4.51      5.57
   -3    8    3     -3.08      0.63
   -3    8    2      0.72      7.61
   -3    8    1      2.04     -1.57
   -3    8    0      7.97      1.58
   -3    7   15      0.18      3.49
   -3    7   14     -0.40      1.00
   -3    7   13     -0.05      4.40
   -3    7   12     -3.08      0.29
   -3    7   11     -0.03     -1.02
   -3    7   10     -0.31     -0.68
   -3    7    9     -0.74      1.32
   -3    7    8     -2.71      2.05
   -3    7    7      0.09      3.44
   -3    7    6     -1.33     -0.11
   -3    7    5     -1.93     12.01
   -3    7    4      6.73      4.73
   -3    7    3     -0.76      0.65
   -3    7    2     -1.82      8.71
   -3    7    1     -1.07     -5.05
   -3    7    0      4.32      3.87
   -3    6   16      0.46     -0.35
   -3    6   15      0.21      3.27
   -3    6   14      0.34      0.30
   -3    6   13     -0.51      2.42
   -3    6   12     -2.59      0.57
   -3    6   11      0.39      0.24
   -3    6   10     -0.96      0.05
   -3    6    9      0.15      3.31
   -3    6    8     -3.48      0.52
   -3    6    7     -0.56      0.58
   -3    6    6     -1.56      0.04
   -3    6    5      0.10      9.33
   -3    6    4     11.08      1.32
   -3    6    3      1.00     -5.76
   -3    6    2      3.08     -0.46
   -3    6    1     -2.65     26.64
   -3    6    0     -2.08      0.53
   -4   21    4      2.75     -0.64
   -4   21    3      0.08     -0.47
   -4   21    2      0.77     -2.41
   -4   21    1      1.73      0.14
   -4   21    0      1.01     -0.01
   -4   20    7     -2.44      0.84
   -4   20    6      1.01     -0.55
   -4   20    5     -0.86      0.68
   -4   20    4      1.85      1.49
   -4   20    3      0.72      0.28
   -4   20    2      0.74      4.47
   -4   20    1      2.07     -0.31
   -4   20    0      0.78      0.12
   -4   19    8      2.00      1.42
   -4   19    7     -1.43      1.06
   -4   19    6      0.20     -0.36
   -4   19    5     -0.82     -0.73
   -4   19    4      0.29      1.22
   -4   19    3     -0.19      0.92
   -4   19    2      0.18      2.15
   -4   19    1      0.44     -1.51
   -4   19    0      3.41     -0.57
   -4   18    9      1.06      0.15
   -4   18    8      0.82     -0.26
   -4   18    7      0.94     -0.64
   -4   18    6      1.17     -0.62
   -4   18    5     -0.88     -0.59
   -4   18    4     -0.77     -1.52
   -4   18    3      0.11      0.55
   -4   18    2      0.56      2.14
   -4   18    1     -1.68     -0.27
   -4   18    0      0.74      0.13
   -4   17   10      0.95      0.65
   -4   17    9     -0.40      0.21
   -4   17    8      0.05     -0.41
   -4   17    7     -0.26     -2.57
   -4   17    6      1.66      2.35
   -4   17    5     -0.65      0.11
   -4   17    4     -0.31     -1.45
   -4   17    3     -0.16      0.71
   -4   17    2      1.15      2.32
   -4   17    1     -0.64     -1.11
   -4   17    0      0.10     -0.59
   -4   16   11     -1.57      1.43
   -4   16   10      0.63      3.21
   -4   16    9      0.42      1.11
   -4   16    8      0.74      1.14
   -4   16    7     -0.77      0.65
   -4   16    6      1.18      0.58
   -4   16    5     -2.87      1.19
   -4   16    4     -1.72      1.97
   -4   16    3     -0.34      0.69
   -4   16    2     -0.29     -1.20
   -4   16    1      0.67      0.43
   -4   16    0      1.36     -1.54
   -4   15   12      0.09      0.33
   -4   15   11     -1.40     -0.91
   -4   15   10     -0.57      1.50
   -4   15    9      1.16      3.14
   -4   15    8      0.78      0.13
   -4   15    7     -0.66      1.10
   -4   15    6      1.04     -0.29
   -4   15    5     -2.01     -1.03
   -4   15    4     -2.29     -0.19
   -4   15    3     -0.28     -1.67
   -4   15    2     -2.39     -1.52
   -4   15    1     -0.48      0.30
   -4   15    0     -0.68     -0.31
   -4   14   13     -2.18     -0.50
   -4   14   12      0.63     -2.03
   -4   14   11     -0.89      0.00
   -4   14   10     -0.70     -0.71
   -4   14    9      0.39     -0.21
   -4   14    8     -0.55     -0.51
   -4   14    7     -0.72      0.20
   -4   14    6     -0.05     -1.19
   -4   14    5      1.05     -0.02
   -4   14    4      1.30     -4.54
   -4   14    3     -0.51     -2.62
   -4   14    2     -1.36      0.85
   -4   14    1     -1.34     -1.45
   -4   14    0     -3.00      0.19
   -4   13   13      0.71      0.00
   -4   13   12      0.30     -1.49
   -4   13   11      0.19      2.11
   -4   13   10     -0.07      0.76
   -4   13    9      1.40     -2.19
   -4   13    8     -0.30      0.27
   -4   13    7     -0.34     -2.42
   -4   13    6     -1.59     -0.01
   -4   13    5     -0.15      0.08
   -4   13    4      2.36     -0.62
   -4   13    3      0.60     -1.96
   -4   13    2     -0.17     -3.44
   -4   13    1     -1.31     -1.02
   -4   13    0     -1.34     -0.06
   -4   12   14     -1.85      1.16
   -4   12   13     -0.29     -1.83
   -4   12   12     -2.17     -0.43
   -4   12   11      1.02     -1.30
   -4   12   10      1.18      2.90
   -4   12    9      3.03      0.89
   -4   12    8      0.20     -2.03
   -4   12    7     -0.59      1.07
   -4   12    6     -1.44      2.69
   -4   12    5     -0.61      0.88
   -4   12    4     -1.28      1.63
   -4   12    3      1.69     -1.56
   -4   12    2      1.81     -0.11
   -4   12    1      0.97     -1.58
   -4   12    0      0.99      0.39
   -4   11   14     -0.02     -0.35
   -4   11   13     -2.52     -0.88
   -4   11   12     -1.58      1.64
   -4   11   11      0.31     -1.22
   -4   11   10     -0.33      0.10
   -4   11    9      0.27      2.17
   -4   11    8     -0.35     -1.33
   -4   11    7     -0.38      0.68
   -4   11    6     -2.07      4.96
   -4   11    5      1.99     -1.22
   -4   11    4     -2.82     -0.45
   -4   11    3     -0.13     -0.03
   -4   11    2      1.83      1.59
   -4   11    1      3.60     -2.63
   -4   11    0      0.23     -0.45
   -4   10   14      0.64     -0.41
   -4   10   13     -0.11      0.31
   -4   10   12     -0.42     -1.36
   -4   10   11     -1.45     -0.45
   -4   10   10     -1.32     -0.83
   -4   10    9     -0.14      0.64
   -4   10    8     -0.58     -0.44
   -4   10    7     -0.09      0.64
   -4   10    6     -0.55      3.56
   -4   10    5      1.12     -4.72
   -4   10    4     -1.65      0.57
   -4   10    3     -0.24     -0.70
   -4   10    2      1.95     -4.67
   -4   10    1     -0.30     -1.72
   -4   10    0      0.95     -0.96
   -4    9   15     -0.05     -2.11
   -4    9   14      0.79     -0.47
   -4    9   13      0.36     -1.59
   -4    9   12     -1.22     -2.69
   -4    9   11     -1.23      1.33
   -4    9   10      0.94      1.08
   -4    9    9      0.51     -1.69
   -4    9    8     -1.14      3.12
   -4    9    7     -1.11     -4.15
   -4    9    6      0.87      1.23
   -4    9    5      1.32     -6.30
   -4    9    4     -0.57      0.21
   -4    9    3     -2.18      0.58
   -4    9    2     -2.99     -1.36
   -4    9    1     -0.07      7.06
   -4    9    0      3.12     -0.39
   -4    8   15     -0.06      0.55
   -4    8   14     -0.06      0.06
   -4    8   13     -0.35      1.92
   -4    8   12     -2.04      0.13
   -4    8   11     -0.71     -0.58
   -4    8   10      1.30     -0.05
   -4    8    9     -0.23     -1.35
   -4    8    8     -2.26     -0.10
   -4    8    7      0.19     -0.32
   -4    8    6      0.69      0.02
   -4    8    5      0.24      5.22
   -4    8    4      1.54     -0.34
   -4    8    3      0.00     -0.44
   -4    8    2     -4.46      0.93
   -4    8    1      0.36      3.96
   -4    8    0      5.40      0.94
   -5   22    2     -1.73     -1.83
   -5   22    1     -1.98     -0.70
   -5   22    0      1.12      0.05
   -5   21    5     -0.97     -1.05
   -5   21    4     -0.46      0.42
   -5   21    3      0.61      0.01
   -5   21    2     -0.28      1.88
   -5   21    1     -1.02      0.96
   -5   21    0      0.22     -0.23
   -5   20    7     -2.72     -0.58
   -5   20    6     -0.08      2.75
   -5   20    5     -0.53     -0.75
   -5   20    4      1.18      0.07
   -5   20    3      0.77      1.67
   -5   20    2     -1.37      3.14
   -5   20    1      1.07     -1.35
   -5   20    0      0.71     -2.38
   -5   19    8      1.91      0.35
   -5   19    7     -2.26      0.01
   -5   19    6      0.17      0.67
   -5   19    5     -1.61     -0.36
   -5   19    4     -0.57     -1.16
   -5   19    3      1.28     -0.58
   -5   19    2     -0.52      0.43
   -5   19    1      2.02      0.82
   -5   19    0      2.00     -2.21
   -5   18   10      0.69     -1.28
   -5   18    9      0.38      2.38
   -5   18    8     -0.58     -0.99
   -5   18    7     -1.10     -1.82
   -5   18    6      0.58      0.37
   -5   18    5     -0.94     -0.70
   -5   18    4     -0.97     -0.41
   -5   18    3      0.08     -2.32
   -5   18    2      0.98      3.28
   -5   18    1     -0.04      1.54
   -5   18    0      0.65      1.16
   -5   17   11     -0.79     -0.92
   -5   17   10      0.78     -0.80
   -5   17    9      0.57      0.51
   -5   17    8     -1.21      0.48
   -5   17    7     -1.74     -1.07
   -5   17    6      0.83      2.27
   -5   17    5      0.85     -0.49
   -5   17    4      0.01      2.15
   -5   17    3     -1.20     -1.35
   -5   17    2      0.10      0.17
   -5   17    1     -0.76      2.16
   -5   17    0     -0.70      1.29
   -5   16   11     -0.56      1.76
   -5   16   10      0.88      0.07
   -5   16    9      0.29     -0.02
   -5   16    8     -0.94      0.69
   -5   16    7     -1.03      1.72
   -5   16    6      0.53      1.52
   -5   16    5     -0.26      1.44
   -5   16    4     -0.89      0.89
   -5   16    3      0.63     -0.25
   -5   16    2     -3.03     -4.89
   -5   16    1     -1.17      2.24
   -5   16    0     -1.95     -0.17
   -5   15   12      2.10     -0.74
   -5   15   11      0.06      2.18
   -5   15   10      1.32      0.64
   -5   15    9      1.50     -0.37
   -5   15    8     -0.04     -3.06
   -5   15    7     -1.31      1.70
   -5   15    6      0.02      0.89
   -5   15    5      0.95      0.82
   -5   15    4     -1.05     -2.91
   -5   15    3      0.30     -1.94
   -5   15    2     -2.39     -2.42
   -5   15    1     -1.20     -0.83
   -5   15    0     -1.39      0.01
   -5   14   13     -1.27     -0.81
   -5   14   12      1.21     -5.21
   -5   14   11     -0.38      1.98
   -5   14   10      1.01      2.68
   -5   14    9      1.58     -2.10
   -5   14    8     -0.48     -1.22
   -5   14    7      1.30      1.29
   -5   14    6     -0.98     -1.33
   -5   14    5      1.17     -0.28
   -5   14    4      1.79     -1.53
   -5   14    3     -0.45     -1.44
   -5   14    2     -0.28     -3.28
   -5   14    1     -1.16     -2.44
   -5   14    0     -2.13     -0.06
   -5   13   13      1.32      1.88
   -5   13   12     -1.18     -3.67
   -5   13   11     -1.31     -1.29
   -5   13   10     -1.26      3.48
   -5   13    9      0.78      0.84
   -5   13    8     -1.15     -1.37
   -5   13    7      1.88      1.58
   -5   13    6      0.36      0.02
   -5   13    5      0.11     -4.29
   -5   13    4      0.26      4.33
   -5   13    3      0.90     -1.86
   -5   13    2      1.70     -3.35
   -5   13    1      1.27     -0.62
   -5   13    0     -0.63      0.29
   -5   12   14      0.05     -0.33
   -5   12   13     -1.35      1.55
   -5   12   12     -2.00      0.44
   -5   12   11     -0.23     -1.70
   -5   12   10     -1.03      0.76
   -5   12    9      0.46      2.60
   -5   12    8     -0.41     -0.72
   -5   12    7     -0.70      0.69
   -5   12    6      0.17      4.02
   -5   12    5     -0.24     -2.53
   -5   12    4     -0.97      0.22
   -5   12    3      0.12     -0.04
   -5   12    2      3.55      0.18
   -5   12    1      3.57     -2.33
   -5   12    0     -0.64      0.57
   -5   11   14      1.06     -1.23
   -5   11   13     -1.16      2.20
   -5   11   12     -0.57      1.22
   -5   11   11      0.22      0.76
   -5   11   10     -1.58     -2.65
   -5   11    9     -0.97      0.56
   -5   11    8      2.59      0.16
   -5   11    7     -0.52      1.46
   -5   11    6     -1.51      4.46
   -5   11    5      0.65      1.14
   -5   11    4     -0.75      0.41
   -5   11    3     -0.95      0.32
   -5   11    2      3.15     -1.01
   -5   11    1      2.46     -9.30
   -5   11    0     -5.09      0.25
   -5   10   15     -0.21      1.42
   -5   10   14      1.41      0.06
   -5   10   13      0.10     -0.55
   -5   10   12     -1.53      0.10
   -5   10   11      0.21      1.56
   -5   10   10     -1.04      0.02
   -5   10    9      0.04     -2.45
   -5   10    8      1.75      0.34
   -5   10    7      0.06      3.40
   -5   10    6      0.94     -0.32
   -5   10    5     -0.24     -1.67
   -5   10    4      1.39      0.70
   -5   10    3      0.45      1.38
   -5   10    2     -0.94     -0.42
   -5   10    1     -0.46     -5.47
   -5   10    0     -3.35     -0.49
   -6   22    3     -1.61      0.93
   -6   22    2     -1.85     -1.51
   -6   22    1     -3.32      0.80
   -6   22    0     -0.06      0.96
   -6   21    6     -2.11      2.93
   -6   21    5     -0.19     -0.39
   -6   21    4     -0.96      1.34
   -6   21    3     -0.03      1.20
   -6   21    2     -1.09      1.12
   -6   21    1     -2.38      1.42
   -6   21    0     -0.53     -0.96
   -6   20    7     -1.51      0.94
   -6   20    6     -0.41      3.49
   -6   20    5     -1.09     -2.24
   -6   20    4      1.42      0.31
   -6   20    3     -0.57      1.43
   -6   20    2     -0.64     -3.79
   -6   20    1      1.48      1.06
   -6   20    0     -1.34     -3.29
   -6   19    9      1.64      1.46
   -6   19    8     -1.91     -1.54
   -6   19    7     -1.29      1.80
   -6   19    6      0.98      0.76
   -6   19    5     -2.13     -2.27
   -6   19    4      0.35     -1.71
   -6   19    3      0.24     -0.51
   -6   19    2      0.05     -2.41
   -6   19    1      2.79      2.11
   -6   19    0     -1.86      0.95
   -6   18   10     -0.88     -2.26
   -6   18    9      1.96      1.07
   -6   18    8     -1.89     -1.21
   -6   18    7     -1.10     -0.40
   -6   18    6     -0.46      0.91
   -6   18    5      2.67     -0.40
   -6   18    4     -0.19      0.59
   -6   18    3     -1.75     -2.79
   -6   18    2      0.13      1.35
   -6   18    1      0.63      0.59
   -6   18    0     -2.91      4.52
   -6   17   11      1.13      0.68
   -6   17   10      0.97     -2.69
   -6   17    9     -0.68     -0.68
   -6   17    8     -1.24      1.22
   -6   17    7      0.11      1.11
   -6   17    6     -0.31      0.13
   -6   17    5      3.22      1.36
   -6   17    4      0.79      2.68
   -6   17    3     -0.92     -4.05
   -6   17    2     -0.30     -1.96
   -6   17    1     -0.19      1.89
   -6   17    0     -2.99      2.66
   -6   16   11      1.14      1.64
   -6   16   10      1.63     -1.29
   -6   16    9     -0.21      0.03
   -6   16    8     -0.03      0.39
   -6   16    7      0.80      1.95
   -6   16    6     -0.14      0.35
   -6   16    5      0.12      1.63
   -6   16    4     -0.58      0.60
   -6   16    3      1.17     -2.47
   -6   16    2     -1.71     -2.97
   -6   16    1     -0.27      0.48
   -6   16    0     -0.38      0.37
   -6   15   12      0.60     -2.85
   -6   15   11      0.97     -0.95
   -6   15   10      0.91      0.70
   -6   15    9      2.27     -0.02
   -6   15    8      0.36     -1.78
   -6   15    7      0.12      1.55
   -6   15    6      0.48      0.18
   -6   15    5     -0.15      0.87
   -6   15    4     -1.10     -0.99
   -6   15    3      0.18      1.27
   -6   15    2     -0.75     -0.49
   -6   15    1     -0.07     -1.80
   -6   15    0      0.66     -0.67
   -6   14   13      1.51      1.20
   -6   14   12      0.90     -3.33
   -6   14   11     -0.15     -1.74
   -6   14   10     -0.66      1.17
   -6   14    9     -0.55      0.28
   -6   14    8     -1.44      0.07
   -6   14    7      2.11      1.14
   -6   14    6      0.73     -0.81
   -6   14    5      2.40     -2.89
   -6   14    4     -0.77      1.48
   -6   14    3     -1.05      1.29
   -6   14    2     -1.88     -3.16
   -6   14    1      0.16     -0.08
   -6   14    0      1.14     -0.81
   -6   13   13      1.69      1.80
   -6   13   12     -1.13     -0.68
   -6   13   11     -0.94     -0.47
   -6   13   10     -0.77      0.37
   -6   13    9     -1.26      0.63
   -6   13    8     -1.48     -0.30
   -6   13    7      0.06      1.48
   -6   13    6      3.87      0.13
   -6   13    5      1.30     -3.90
   -6   13    4     -0.70      1.41
   -6   13    3      0.63     -0.78
   -6   13    2      0.51     -2.12
   -6   13    1      1.34     -0.60
   -6   13    0      1.19      0.40
   -6   12   14      0.91     -0.07
   -6   12   13     -0.30      2.45
   -6   12   12     -0.42     -0.27
   -6   12   11      0.03      1.50
   -6   12   10      0.06     -0.01
   -6   12    9      0.11     -0.04
   -6   12    8      0.14     -0.43
   -6   12    7     -0.23     -1.07
   -6   12    6     -0.11      0.60
   -6   12    5      0.37     -0.73
   -6   12    4     -0.15     -0.18
   -6   12    3     -0.10      1.15
   -6   12    2      3.41      0.39
   -6   12    1     -0.02     -4.54
   -6   12    0     -3.20      0.73
   -7   22    4     -2.30     -0.01
   -7   22    3     -1.70      0.72
   -7   22    2      1.24     -1.06
   -7   22    1      0.16      2.56
   -7   22    0      0.25      1.22
   -7   21    6     -2.58      1.58
   -7   21    5     -0.25     -2.00
   -7   21    4      0.39      1.01
   -7   21    3     -1.47      0.91
   -7   21    2     -0.52     -2.00
   -7   21    1      1.00      0.52
   -7   21    0      0.28     -0.58
   -7   20    8     -0.96     -0.92
   -7   20    7      1.41      3.95
   -7   20    6      0.83      0.11
   -7   20    5     -1.58     -4.02
   -7   20    4      0.28     -1.19
   -7   20    3     -1.79      0.78
   -7   20    2     -0.09     -4.42
   -7   20    1     -0.13      0.12
   -7   20    0     -0.61     -0.57
   -7   19    9      0.53      0.57
   -7   19    8     -2.55     -2.23
   -7   19    7      1.76      3.29
   -7   19    6      2.15     -0.78
   -7   19    5     -0.38     -1.76
   -7   19    4      0.17     -0.31
   -7   19    3     -1.99      0.18
   -7   19    2     -0.28     -1.09
   -7   19    1     -1.12      0.02
   -7   19    0     -2.44      2.45
   -7   18   10      0.53     -0.41
   -7   18    9     -0.24      0.80
   -7   18    8     -1.64     -1.19
   -7   18    7     -0.24      0.37
   -7   18    6      0.78      0.17
   -7   18    5      3.19      0.08
   -7   18    4     -0.04      2.80
   -7   18    3     -2.72     -2.50
   -7   18    2      0.29     -0.57
   -7   18    1     -1.11     -1.24
   -7   18    0     -1.96      2.73
   -7   17   11     -0.33      0.34
   -7   17   10     -0.01     -2.14
   -7   17    9     -1.86      0.82
   -7   17    8     -0.87      2.04
   -7   17    7      1.44      0.66
   -7   17    6      0.11     -1.83
   -7   17    5      1.39     -0.09
   -7   17    4      0.04      1.90
   -7   17    3     -0.40     -3.70
   -7   17    2     -0.26      0.16
   -7   17    1     -0.57     -1.17
   -7   17    0     -0.58      1.19
   -7   16   12     -3.56      0.85
   -7   16   11      0.90     -3.32
   -7   16   10     -2.04     -2.98
   -7   16    9      0.73      0.70
   -7   16    8      0.20      1.03
   -7   16    7      0.01     -0.05
   -7   16    6      0.61     -1.09
   -7   16    5     -0.43      1.17
   -7   16    4     -0.94     -0.83
   -7   16    3      1.33      0.00
   -7   16    2      0.04      2.07
   -7   16    1      0.69     -0.14
   -7   16    0      0.37      0.32
   -7   15   12      0.49     -0.10
   -7   15   11      0.89     -4.26
   -7   15   10     -0.90     -1.74
   -7   15    9      1.25     -0.33
   -7   15    8     -0.62     -0.05
   -7   15    7     -0.64     -0.59
   -7   15    6     -1.12      0.16
   -7   15    5      0.21      2.67
   -7   15    4     -0.10     -0.74
   -7   15    3      0.65      3.39
   -7   15    2     -0.48      0.68
   -7   15    1     -0.09      2.93
   -7   15    0      0.18     -0.79
   -7   14   13      0.84      1.10
   -7   14   12      1.88      0.78
   -7   14   11      0.16     -0.80
   -7   14   10     -0.17     -0.22
   -7   14    9     -0.20     -0.47
   -7   14    8     -0.83      0.18
   -7   14    7      0.51      0.16
   -7   14    6      0.26      0.16
   -7   14    5      0.09     -0.68
   -7   14    4     -2.42      0.66
   -7   14    3      0.10      0.51
   -7   14    2     -2.37     -0.16
   -7   14    1      0.46      2.50
   -7   14    0      2.39     -0.75
   -8   22    5     -1.15      0.41
   -8   22    4      0.38     -0.42
   -8   22    3     -0.13     -0.16
   -8   22    2      2.27      1.55
   -8   22    1      0.73      2.42
   -8   22    0      0.32      0.73
   -8   21    7      0.07      1.03
   -8   21    6     -0.55     -0.81
   -8   21    5     -0.58     -0.43
   -8   21    4      0.88     -1.16
   -8   21    3     -1.14     -0.75
   -8   21    2      1.17      0.07
   -8   21    1      0.74      0.17
   -8   21    0     -2.56     -0.31
   -8   20    8     -1.63     -0.52
   -8   20    7      0.83      2.94
   -8   20    6      2.12     -2.70
   -8   20    5     -2.06     -2.02
   -8   20    4     -0.65     -0.32
   -8   20    3     -0.73     -0.82
   -8   20    2      0.52     -0.87
   -8   20    1     -0.48      0.03
   -8   20    0      0.78      0.07
   -8   19    9     -1.31      2.81
   -8   19    8     -0.80     -0.24
   -8   19    7     -0.29      1.46
   -8   19    6      1.82     -0.27
   -8   19    5     -0.77     -1.04
   -8   19    4     -0.02      2.72
   -8   19    3     -2.64      0.12
   -8   19    2     -0.41     -1.22
   -8   19    1     -2.15     -1.55
   -8   19    0      1.68      0.73
   -8   18   10      2.51     -1.69
   -8   18    9     -1.07      2.24
   -8   18    8     -0.32      0.53
   -8   18    7     -0.78      1.07
   -8   18    6      1.28      1.10
   -8   18    5      0.35     -0.36
   -8   18    4      0.87      2.05
   -8   18    3     -1.74     -0.58
   -8   18    2     -1.02     -0.58
   -8   18    1     -2.24     -2.77
   -8   18    0      1.04     -0.39
   -8   17   11     -0.78      2.74
   -8   17   10     -2.05     -2.15
   -8   17    9     -0.50      0.39
   -8   17    8      0.27      1.20
   -8   17    7      0.24      0.28
   -8   17    6      0.59     -1.10
   -8   17    5      0.17      1.42
   -8   17    4     -0.73      0.15
   -8   17    3      0.66      0.48
   -8   17    2     -1.07      1.35
   -8   17    1     -0.97     -1.94
   -8   17    0      0.82     -0.12
   -8   16   12     -3.91     -0.37
   -8   16   11      0.32     -2.41
   -8   16   10     -4.02      0.06
   -8   16    9      0.04     -0.53
   -8   16    8      0.90     -0.19
   -8   16    7     -0.77     -1.73
   -8   16    6      0.49      0.01
   -8   16    5      0.02      3.19
   -8   16    4     -0.44      0.42
   -8   16    3      0.24      2.32
   -8   16    2      2.17     -0.65
   -8   16    1     -0.43      1.76
   -8   16    0     -0.95      0.60
   -9   23    1     -1.66      1.11
   -9   23    0     -0.09      0.06
   -9   22    5     -1.50      2.14
   -9   22    4      0.82     -0.18
   -9   22    3      0.62     -0.55
   -9   22    2      1.13      1.40
   -9   22    1      0.06      0.46
   -9   22    0     -3.41     -0.60
   -9   21    7     -0.57     -1.11
   -9   21    6      1.29      0.43
   -9   21    5     -0.78      1.38
   -9   21    4      0.48     -1.63
   -9   21    3      0.60      0.09
   -9   21    2      0.48      1.11
   -9   21    1     -0.06     -0.21
   -9   21    0     -0.79     -0.52
   -9   20    8     -0.79      1.81
   -9   20    7     -0.60      1.01
   -9   20    6      1.02     -1.33
   -9   20    5     -1.59      1.48
   -9   20    4      0.99      0.64
   -9   20    3      1.40      0.18
   -9   20    2     -0.33      1.58
   -9   20    1      0.05      0.05
   -9   20    0      1.62      0.45
   -9   19    9     -0.84      3.91
   -9   19    8      0.27      1.07
   -9   19    7     -0.83      2.05
   -9   19    6      0.68      0.66
   -9   19    5     -0.55      1.55
   -9   19    4      1.95      2.22
   -9   19    3     -0.64     -0.31
   -9   19    2      0.22      0.10
   -9   19    1     -0.87     -0.23
   -9   19    0      0.57     -0.65
   -9   18   10      3.80      0.11
   -9   18    9      0.23      2.30
   -9   18    8      0.48      0.13
   -9   18    7     -0.04      2.72
   -9   18    6      0.86      0.48
   -9   18    5      0.02      0.98
   -9   18    4      1.51      0.06
   -9   18    3     -0.11      0.55
   -9   18    2     -0.98      0.07
   -9   18    1      0.10     -1.73
   -9   18    0      1.18     -1.59
   -9   23    2      1.30      0.73
  -10   23    2     -0.39     -1.27
  -10   23    1     -0.17     -0.78
  -10   23    0     -0.79     -0.53
  -10   22    5      0.09      0.81
  -10   22    4     -2.13     -1.22
  -10   22    3      0.41     -0.31
  -10   22    2     -1.19     -0.07
  -10   22    1     -1.24     -2.26
  -10   22    0     -1.23     -0.74
  -10   21    7      0.16      0.73
  -10   21    6     -0.20      1.59
  -10   21    5      0.05      2.06
  -10   21    4     -0.26     -1.06
  -10   21    3      0.60      0.74
  -10   21    2     -2.08      1.50
  -10   21    1     -0.70     -0.77
  -10   21    0      1.29      0.04
  -10   20    8     -1.35      0.17
  -10   20    7      0.39      2.26
  -10   20    6     -0.37     -0.17
  -10   20    5     -0.33      4.40
  -10   20    4      2.57      1.89
  -10   20    3      0.57      0.91
  -10   20    2     -1.32      0.13
  -10   20    1      0.55      1.62
  -10   20    0     -0.83      0.51
  -11   23    2     -1.15     -0.90
  -11   23    1     -0.20     -1.27
  -11   23    0     -3.08     -0.05
  -11   22    5      0.09     -0.34
  -11   22    4     -3.40     -0.62
  -11   22    3     -0.26     -1.36
  -11   22    2     -3.07      0.29
  -11   22    1     -0.51     -3.08
  -11   22    0     -1.76      0.34
  -11   23    3     -0.12     -1.53
    0   14   12      5.75     -0.10
   -8   23    0      0.96      0.68
   -6   16   12     -0.19      2.84
   -4   21    5      1.54      1.91
   -2   21    2      1.44     -3.85
   -1   21    0      1.84      1.29
    0   21    0      0.78      1.26
   -4   22    0      1.45     -0.36
   -3   22    0      0.05     -0.59
   -2   22    0     -1.00     -0.51
   -1   22    0      0.40     -0.31
    0   22    0      1.21      0.64
   -7   23    0     -1.94      0.91
   -6   23    0     -0.35      0.18
   -5   23    0      0.56     -0.14
   -4   23    0     -0.68     -0.25
   -3   23    0     -1.19     -0.11
   -2   23    0     -0.22     -0.28
   -1   21    1      0.84     -1.57
    0   21    1      0.55     -1.37
   -4   22    1     -0.78     -0.28
   -3   22    1      1.28     -0.12
   -2   22    1      2.16     -0.78
   -1   22    1      1.54     -0.89
    0   22    1      0.08     -0.20
   -8   23    1      0.07      1.60
   -7   23    1     -0.48      0.20
   -6   23    1     -1.27     -0.27
   -5   23    1     -0.97      0.82
   -4   23    1     -0.34      1.53
   -3   23    1      0.30      0.22
   -2   23    1     -0.04      0.04
   -1   21    2      1.58     -3.43
    0   21    2      0.30      0.02
   -4   22    2     -0.05     -2.07
   -3   22    2      0.58     -1.56
   -2   22    2      1.95     -2.31
   -1   22    2      0.74     -1.38
    0   22    2      0.44     -0.03
   -8   23    2      2.06      0.22
   -7   23    2      0.60     -1.39
   -6   23    2     -1.85     -1.14
   -5   23    2     -1.39     -0.39
   -4   23    2     -0.62     -0.29
   -3   23    2      1.24     -0.58
    0   20    3     -3.01      0.17
   -2   21    3     -3.66      2.70
   -1   21    3     -2.41      0.76
    0   21    3     -1.23      0.48
   -5   22    3     -0.52      0.02
   -4   22    3     -1.05      0.52
   -3   22    3     -3.46      1.51
   -2   22    3     -1.21      1.10
   -1   22    3      1.08      0.02
  -10   23    3      1.05     -0.83
   -9   23    3      0.36     -0.55
   -8   23    3     -1.12      0.75
   -7   23    3     -1.60      0.98
   -6   23    3     -0.68      0.58
   -5   23    3      0.02      0.61
   -4   23    3     -0.34      0.28
   -3   23    3     -1.29     -0.05
    0   20    4     -1.01     -0.12
   -3   21    4      3.62     -1.82
   -2   21    4      1.78     -0.12
   -1   21    4     -0.36      0.33
    0   21    4     -1.13      0.23
   -6   22    4     -3.31     -0.59
   -5   22    4      0.22      0.18
   -4   22    4      2.89     -0.52
   -3   22    4      2.67     -0.22
   -2   22    4      0.62      0.59
   -1   22    4     -0.47      0.68
  -11   23    4     -2.62     -0.15
  -10   23    4     -1.64      0.50
   -9   23    4     -0.88     -0.22
   -8   23    4     -0.61     -0.75
   -7   23    4     -0.99     -0.82
   -6   23    4     -0.99     -0.19
   -5   23    4      0.23     -0.10
   -4   23    4      0.46     -0.53
   -1   20    5     -0.86     -0.94
    0   20    5     -0.23      1.48
   -3   21    5      3.06     -0.03
   -2   21    5     -0.01     -2.39
   -1   21    5     -0.11     -1.44
    0   21    5      0.31      0.18
   -7   22    5      0.05      0.50
   -6   22    5      0.57      0.87
   -5   22    5      0.66      1.42
   -4   22    5      3.37      1.46
   -3   22    5      1.90     -1.31
   -2   22    5     -0.20     -0.89
  -11   23    5     -0.38     -0.39
  -10   23    5     -1.89      0.49
   -9   23    5     -1.81      1.08
   -8   23    5      0.00      0.50
   -7   23    5      1.19      0.93
   -6   23    5      0.31      0.10
   -5   23    5      1.13      0.83
   -4   23    5      1.82      0.04
    0   19    6     -0.25      0.20
   -2   20    6      0.23     -0.05
   -1   20    6     -2.22      0.32
    0   20    6     -1.41      1.07
   -5   21    6      0.09      0.29
   -4   21    6      0.95     -0.30
   -3   21    6      1.07      0.73
   -2   21    6     -0.50     -0.45
   -1   21    6     -0.59      0.63
  -11   22    6      0.09      0.36
  -10   22    6      0.23      2.26
   -9   22    6     -1.22      0.92
   -8   22    6     -2.57      0.41
   -7   22    6     -3.03      0.86
   -6   22    6     -2.46      0.66
   -5   22    6     -1.15     -1.14
   -4   22    6      0.38      0.17
   -3   22    6      1.12     -0.09
  -11   23    6      0.09      0.37
  -10   23    6     -0.50      0.16
   -9   23    6     -1.70      0.27
   -8   23    6     -1.24     -0.19
   -7   23    6     -1.72     -0.15
   -6   23    6     -1.34     -0.32
   -1   19    7      2.06      1.47
    0   19    7      2.29     -0.22
   -3   20    7     -1.12      2.33
   -2   20    7     -0.83      2.15
   -1   20    7      1.17      0.71
    0   20    7      0.99     -0.49
   -7   21    7     -0.34      0.92
   -6   21    7     -0.24     -0.35
   -5   21    7     -0.38     -0.68
   -4   21    7     -0.96     -0.09
   -3   21    7     -1.60      0.67
   -2   21    7     -0.21      0.70
  -11   22    7     -0.37     -0.78
  -10   22    7      0.13     -1.81
   -9   22    7      0.36     -0.99
   -8   22    7      0.51      0.23
   -7   22    7     -0.22     -0.44
   -6   22    7      0.60     -0.16
   -5   22    7      1.25     -0.69
   -4   22    7      0.17     -0.73
  -11   23    7      0.54     -0.89
  -10   23    7      0.61     -0.62
   -9   23    7      1.49      0.60
   -8   23    7      0.98     -0.25
   -7   23    7     -0.55     -0.66
    0   18    8      2.59      0.40
   -2   19    8      1.21      0.20
   -1   19    8      2.92      0.07
    0   19    8      3.27     -0.85
   -6   20    8      0.24     -0.14
   -5   20    8      2.13      0.78
   -4   20    8     -0.31     -0.20
   -3   20    8     -0.77      0.41
   -2   20    8      0.20      0.69
   -1   20    8      0.90      0.61
  -10   21    8     -1.62      0.86
   -9   21    8     -1.11     -0.47
   -8   21    8     -0.84     -1.46
   -7   21    8      0.21     -0.57
   -6   21    8      0.42      0.02
   -5   21    8     -0.04     -0.52
   -4   21    8     -1.08     -0.52
   -3   21    8      0.27      0.67
  -11   22    8     -1.10     -0.16
  -10   22    8     -0.01      0.26
   -9   22    8     -0.57     -1.43
   -8   22    8     -0.70     -1.20
   -7   22    8     -0.70     -0.26
   -6   22    8      0.34      0.42
   -2   18    9      0.54     -2.77
   -1   18    9     -1.64     -1.36
    0   18    9     -3.37     -0.36
   -5   19    9      0.93      1.30
   -4   19    9      2.19     -0.41
   -3   19    9      0.59     -1.98
   -2   19    9     -0.27     -1.15
   -1   19    9     -0.88      0.43
    0   19    9     -1.83      0.20
  -10   20    9     -0.15      1.11
   -9   20    9     -1.85      2.08
   -8   20    9     -1.07      1.53
   -7   20    9     -0.01     -0.52
   -6   20    9     -0.43     -1.13
   -5   20    9      0.99      0.03
   -4   20    9      1.24      0.93
   -3   20    9     -1.11      0.04
   -2   20    9      0.03      0.02
  -10   21    9     -0.64     -2.22
   -9   21    9      0.42     -0.11
   -8   21    9      0.69      0.17
   -7   21    9     -0.93     -0.79
   -6   21    9     -1.59     -1.08
   -5   21    9      0.86      0.58
  -11   22    9     -0.19     -1.73
  -10   22    9      0.15     -1.20
   -9   22    9      0.97     -0.75
   -1   17   10     -0.85      0.38
    0   17   10     -0.72      0.37
   -4   18   10      1.49     -1.25
   -3   18   10      0.84      0.82
   -2   18   10      0.68      1.20
   -1   18   10     -0.11     -1.54
    0   18   10      0.30     -0.15
   -9   19   10      3.64     -0.91
   -8   19   10      1.63      0.06
   -7   19   10      0.10      0.02
   -6   19   10      0.30      0.09
   -5   19   10      1.14      0.43
   -4   19   10      0.79     -0.53
   -3   19   10      0.85      0.75
   -2   19   10      0.01     -0.40
   -1   19   10     -0.27     -0.68
  -10   20   10      1.14      0.20
   -9   20   10      0.54      0.52
   -8   20   10      0.33      0.57
   -7   20   10      0.25     -0.24
   -6   20   10      0.65      1.42
   -5   20   10      0.07      0.69
   -4   20   10     -0.60     -0.39
  -10   21   10      0.39      0.07
   -9   21   10     -0.31      0.74
   -8   21   10     -0.78     -0.04
   -7   21   10     -0.60     -0.13
   -1   16   11     -1.33      0.71
    0   16   11     -0.62     -0.35
   -4   17   11     -1.54      0.76
   -3   17   11     -1.48     -0.94
   -2   17   11     -1.40     -1.01
   -1   17   11      0.24      0.68
    0   17   11     -0.28      0.31
   -9   18   11     -0.07      5.26
   -8   18   11     -1.76      2.60
   -7   18   11     -0.78      1.17
   -6   18   11      0.08     -1.51
   -5   18   11     -0.45     -0.91
   -4   18   11      0.36      1.34
   -3   18   11      0.18     -0.06
   -2   18   11      0.31      0.18
   -1   18   11      0.12     -0.14
   -9   19   11      0.13      0.85
   -8   19   11     -0.22      1.01
   -7   19   11     -0.51      2.09
   -6   19   11     -0.81      0.45
   -5   19   11      0.39      1.06
   -4   19   11      1.20      0.80
  -10   20   11      0.08     -0.34
   -9   20   11      0.85     -0.71
   -8   20   11      0.39      0.91
   -7   20   11     -0.01      1.10
   -2   15   12      1.92      0.30
   -1   15   12      4.78      0.18
    0   15   12      4.36     -0.04
   -5   16   12      2.19      4.10
   -4   16   12      0.76      0.75
   -3   16   12      0.90     -0.52
   -2   16   12      1.31     -0.08
   -1   16   12      0.68      0.78
    0   16   12     -0.71     -0.01
   -8   17   12     -4.35      0.77
   -7   17   12     -2.94      1.81
   -6   17   12     -0.55      3.60
   -5   17   12     -0.72      1.78
   -4   17   12     -0.64     -0.31
   -3   17   12     -0.14     -0.55
   -2   17   12     -0.76      0.14
   -1   17   12     -0.79      0.51
   -9   18   12     -0.66      0.07
   -8   18   12     -1.17      0.37
   -7   18   12     -1.06      0.06
   -6   18   12     -1.01      0.09
   -5   18   12     -1.65     -0.32
   -4   18   12     -0.59     -0.17
   -9   19   12      1.33      0.15
   -8   19   12      0.14     -0.27
   -7   19   12      0.35     -0.46
    0   13   13      0.33     -0.18
   -3   14   13     -1.70     -0.77
   -2   14   13      0.41     -1.23
   -1   14   13      0.49     -0.89
    0   14   13     -0.16     -0.31
   -7   15   13      1.06      0.59
   -6   15   13     -0.96     -1.74
   -5   15   13     -2.08     -1.04
   -4   15   13     -0.99      1.67
   -3   15   13      0.08      0.74
   -2   15   13      0.04     -0.55
   -1   15   13     -0.65     -1.13
    0   15   13      0.00      0.16
   -8   16   13      0.04      1.49
   -7   16   13      1.44      0.37
   -6   16   13      0.73     -1.00
   -5   16   13      1.03      0.27
   -4   16   13      0.49      0.11
   -3   16   13     -0.26     -0.09
   -2   16   13     -0.98      0.13
   -1   16   13     -0.40     -0.03
   -8   17   13      1.13      1.03
   -7   17   13      1.22     -0.33
   -6   17   13      0.95     -0.35
   -5   17   13      1.04     -0.39
   -4   17   13      0.13     -0.54
    0   11   14     -3.74      0.16
   -2   12   14     -1.90     -0.88
   -1   12   14     -1.77     -1.71
    0   12   14     -0.55      0.21
   -6   13   14      1.43     -0.34
   -5   13   14     -1.43      0.47
   -4   13   14     -2.53     -1.04
   -3   13   14     -1.29     -1.18
   -2   13   14     -0.28      0.53
   -1   13   14      0.87     -0.29
    0   13   14      0.58      0.27
   -7   14   14      2.09     -0.31
   -6   14   14      0.76     -0.83
   -5   14   14     -0.95     -0.47
   -4   14   14      0.09     -0.61
   -3   14   14     -0.34      0.96
   -2   14   14     -0.08      0.50
   -1   14   14      0.33     -0.37
    0   14   14      0.45     -0.09
   -7   15   14      0.50     -0.45
   -6   15   14     -0.33      0.95
   -5   15   14      0.82      1.55
   -4   15   14      1.16      0.41
   -3   15   14     -0.30     -0.29
   -2   15   14     -0.25     -1.10
   -8   16   14     -0.38     -0.02
   -7   16   14     -0.79      0.56
   -6   16   14     -0.35      1.31
   -5   16   14      0.86      0.34
    0    9   15      0.40     -0.09
   -4   10   15      0.37     -1.31
   -3   10   15     -0.18     -0.61
   -2   10   15      0.46      1.62
   -1   10   15     -0.18      2.03
    0   10   15     -2.45      0.18
   -5   11   15      0.29      1.55
   -4   11   15      0.75     -0.79
   -3   11   15      0.11      0.06
   -2   11   15     -0.07      0.60
   -1   11   15     -1.39      1.26
    0   11   15     -0.29     -0.10
   -6   12   15     -0.02      1.24
   -5   12   15     -0.07     -0.33
   -4   12   15     -0.67     -0.53
   -3   12   15      0.50     -0.04
   -2   12   15      1.47     -0.41
   -1   12   15      0.39      0.12
    0   12   15      0.21     -0.04
   -6   13   15      0.02      0.02
   -5   13   15     -0.39     -0.97
   -4   13   15     -0.31     -0.44
   -3   13   15      1.45     -0.21
   -2   13   15      0.47     -0.02
   -1   13   15     -0.65     -0.41
   -7   14   15     -0.15      0.13
   -6   14   15     -0.04     -0.09
   -5   14   15     -0.23     -0.31
   -4   14   15     -0.08      0.08
   -1    6   16      0.60     -1.65
    0    6   16      1.97     -0.12
   -3    7   16     -1.26     -0.09
   -2    7   16     -0.31     -1.49
   -1    7   16      1.28     -0.65
    0    7   16      0.67     -0.19
   -4    8   16     -0.12     -0.05
   -3    8   16     -1.11      0.84
   -2    8   16     -0.97      0.03
   -1    8   16      0.19      0.02
    0    8   16      0.30     -0.13
   -4    9   16      0.38      0.94
   -3    9   16     -1.00      0.92
   -2    9   16      0.01      0.71
   -1    9   16      0.28     -0.36
    0    9   16     -0.62      0.21
   -5   10   16      1.12     -0.12
   -4   10   16      0.58     -0.04
   -3   10   16      0.28     -0.65
   -2   10   16      0.21     -0.27
   -1   10   16     -0.96      0.08
    0   10   16     -0.46      0.31
   -5   11   16      0.60     -0.24
   -4   11   16     -0.01     -1.23
   -3   11   16      0.36     -0.80
   -2   11   16      0.02      0.15
   -1   11   16     -0.21      0.79
   -6   12   16      0.04      0.04
   -5   12   16     -0.23      0.04
    0    0    0      0.00      0.00
# SQUEEZE RESULTS (Version =  71116)
# Note: Data are Listed for all Voids in the P1 Unit Cell
# i.e. Centre of Gravity, Solvent Accessible Volume,
# Recovered number of Electrons in the Void and
# Details about the Squeezed Material
loop_
  _platon_squeeze_void_nr
  _platon_squeeze_void_average_x
  _platon_squeeze_void_average_y
  _platon_squeeze_void_average_z
  _platon_squeeze_void_volume
  _platon_squeeze_void_count_electrons
  _platon_squeeze_void_content
   1  0.000  0.000 -0.012      1920       857 ' '
   2  0.333  0.667  0.250        12         0 ' '
   3  0.667  0.333  0.750        12         0 ' '
_platon_squeeze_void_probe_radius                  1.20
_platon_squeeze_details
 Some residual electron densities, which should be considered 
 as peaks from heavily disordered solvent molecules and 
 counterions, did not give a chemical meaningful result after 
 a careful refinement. Therefore, the contributions of the 
 disordered solvent molecules and counterions were removed 
 from the diffraction data using the SQUEEZE routine of PLATON 
 software and then final refinements were carried out. The 
 final platon.sqf file was attached to the CIF file and the 
 electron numbers in the void obtained from the platon.sqf 
 file has been used to calculate the guest solvent molecules 
 crystallizing in the pore.These molecules are further 
 estimated by TGA analysis combining with element analysis, 
 which showed that there are 4 NO3- anions and 12 free water 
 molecules in the unit cell. Since these anions and solvent 
 moleculars are absent from the model, the calculated 
 molecular formula would be incorrect.Finally,the results 
 were introduced to the formula unit directly which 
 consequently generates significant A-level and B-level 
 errors (e.g. density, chemical formula, density) in the 
 final CIF output.
)
TITL OO in P6(3)22
CELL   19.5930   19.5930   13.9270     90.00     90.00    120.00
SPGR P6322
# Solvent Accessible Volume =      1943
# Electrons Found in S.A.V. =       856
# Note: Atoms in Void as Cxxx and Qxxx all others
C101 0.819 0.643 0.754 !       1.49 eA-3
C102 0.799 0.606 0.761 !       1.44 eA-3
C103 0.307 0.141 0.704 !       1.35 eA-3
C104 0.891 0.926 0.717 !       1.35 eA-3
C105 0.857 0.860 0.498 !       1.35 eA-3
C106 0.828 0.135 0.857 !       1.35 eA-3
C107 0.924 0.843 0.240 !       1.33 eA-3
C108 0.965 0.968 0.060 !       1.30 eA-3
C109 0.893 0.887 0.314 !       1.27 eA-3
C110 0.841 0.878 0.735 !       1.26 eA-3
C111 0.911 0.894 0.409 !       1.25 eA-3
C112 0.236 0.137 0.947 !       1.24 eA-3
C113 0.108 0.271 0.032 !       1.24 eA-3
C114 0.129 0.781 0.169 !       1.24 eA-3
C115 0.030 0.874 0.765 !       1.19 eA-3
C116 0.120 0.940 0.772 !       1.16 eA-3
C117 0.187 0.080 0.314 !       1.16 eA-3
C118 0.998 0.999 0.405 !       1.16 eA-3
C119 0.255 0.035 0.092 !       1.15 eA-3
C120 0.904 0.061 0.624 !       1.15 eA-3
C121 0.849 0.858 0.642 !       1.14 eA-3
C122 1.003 0.221-0.006 !       1.14 eA-3
C123 0.030 0.245 0.912 !       1.14 eA-3
C124 0.890 0.889 0.502 !       1.13 eA-3
C125 0.264 0.121 0.585 !       1.13 eA-3
C126 0.979 0.201 0.863 !       1.11 eA-3
C127 0.634 0.814 0.199 !       1.11 eA-3
C128 0.059 0.234 0.001 !       1.11 eA-3
C129 0.865 0.903 0.656 !       1.09 eA-3
C130 0.280 0.129 0.893 !       1.09 eA-3
C131 0.077 0.203 0.187 !       1.09 eA-3
C132 0.964 0.954 0.397 !       1.08 eA-3
C133 0.065 0.282 0.835 !       1.08 eA-3
C134 0.073 0.263 0.094 !       1.05 eA-3
C135 0.955 0.952 0.503 !       1.05 eA-3
C136 0.037 0.280 0.086 !       1.04 eA-3
C137 0.127 0.870 0.454 !       1.03 eA-3
C138 0.939 0.950 0.141 !       1.03 eA-3
Q139 0.220 0.060 0.362 !       1.03 eA-3
C140 0.733 0.592 0.596 !       1.01 eA-3
C141 0.220 0.050 0.143 !       1.00 eA-3
C142 0.079 0.945 0.788 !       1.00 eA-3
C143 0.990 0.230 0.954 !       0.99 eA-3
C144 0.252 0.111 0.165 !       0.99 eA-3
C145 0.237 0.154 0.402 !       0.98 eA-3
C146 0.103 0.235 0.497 !       0.98 eA-3
C147 0.858 0.857 0.083 !       0.98 eA-3
C148 0.876 0.812 0.048 !       0.98 eA-3
C149 0.039 0.153 0.392 !       0.98 eA-3
C150 0.197 0.045 0.624 !       0.97 eA-3
C151 0.938 0.950 0.643 !       0.97 eA-3
Q152 0.126 0.357 0.381 !       0.97 eA-3
C153 0.030 0.185 0.530 !       0.96 eA-3
C154 0.270 0.126 0.752 !       0.96 eA-3
C155 0.810 0.096 0.392 !       0.96 eA-3
C156 0.089 0.199 0.846 !       0.96 eA-3
C157 0.772 0.812 0.836 !       0.96 eA-3
C158 0.943 1.001 0.234 !       0.95 eA-3
C159 0.640 0.842 0.039 !       0.94 eA-3
C160 0.088 0.207 0.018 !       0.94 eA-3
C161 0.954 0.974 0.221 !       0.93 eA-3
Q162 0.846 0.637 0.989 !       0.93 eA-3
C163 0.022 0.189 0.033 !       0.93 eA-3
Q164 0.579 0.738 0.273 !       0.92 eA-3
C165 0.937 0.889 0.646 !       0.91 eA-3
C166 0.010 0.940 0.063 !       0.91 eA-3
C167 0.820 0.108 0.698 !       0.91 eA-3
C168 0.206 0.063 0.930 !       0.90 eA-3
C169 0.937 0.923 0.831 !       0.90 eA-3
C170 0.812 0.781 0.957 !       0.90 eA-3
C171 0.913 0.108 0.966 !       0.89 eA-3
Q172 0.086 0.797 0.154 !       0.89 eA-3
C173 0.832 0.121 0.939 !       0.88 eA-3
C174 0.211 0.111 0.282 !       0.88 eA-3
C175 0.057 0.216 0.216 !       0.88 eA-3
C176 0.759 0.150 0.784 !       0.87 eA-3
C177 0.842 0.872 0.822 !       0.87 eA-3
C178 0.974 0.152 0.551 !       0.86 eA-3
C179 0.875 0.877 0.147 !       0.86 eA-3
C180 0.845 0.606 0.877 !       0.86 eA-3
C181 0.919 0.886 0.900 !       0.86 eA-3
C182 0.120 0.240 0.623 !       0.85 eA-3
C183 0.057 0.266 0.028 !       0.85 eA-3
C184 0.921 0.123 0.488 !       0.85 eA-3
C185 1.003 0.061-0.012 !       0.83 eA-3
C186 0.170 0.041 0.408 !       0.83 eA-3
C187 0.049 0.941 0.555 !       0.83 eA-3
C188 0.193 0.998 0.789 !       0.82 eA-3
C189 0.050 0.178 0.591 !       0.81 eA-3
Q190 0.124 0.779 0.673 !       0.79 eA-3
Q191 0.062 0.263 0.510 !       0.79 eA-3
Q192 0.800 0.826 0.566 !       0.78 eA-3
Q193 0.650 0.764 0.789 !       0.78 eA-3
C194 0.218 0.111 0.886 !       0.77 eA-3
C195 0.141 0.281 0.756 !       0.76 eA-3
Q196 0.061 0.229 0.569 !       0.76 eA-3
C197 0.081 0.183 0.265 !       0.76 eA-3
C198 0.192 0.029 0.097 !       0.76 eA-3
C199 0.139 0.160 0.169 !       0.76 eA-3
)
;
_shelx_fab_checksum              23524
loop_
_space_group_symop_operation_xyz
'x, y, z'
'-x, -y, z+1/2'
'-y, x-y, z'
'-x+y, -x, z'
'x-y, x, z+1/2'
'y, -x+y, z+1/2'
'x-y, -y, -z'
'-x, -x+y, -z'
'y, x, -z'
'-y, -x, -z+1/2'
'x, x-y, -z+1/2'
'-x+y, y, -z+1/2'
loop_
_atom_site_label
_atom_site_type_symbol
_atom_site_fract_x
_atom_site_fract_y
_atom_site_fract_z
_atom_site_U_iso_or_equiv
_atom_site_adp_type
_atom_site_occupancy
_atom_site_site_symmetry_order
_atom_site_calc_flag
_atom_site_refinement_flags_posn
_atom_site_refinement_flags_adp
_atom_site_refinement_flags_occupancy
Cu1 Cu 0.666667 0.333333 0.10146(9) 0.0591(4) Uani 1 3 d S T P
Cu2 Cu 0.73831(3) 0.26169(3) 0.250000 0.0619(4) Uani 1 2 d S T P
Cu3 Cu 0.54023(9) 0.000000 0.000000 0.0930(6) Uani 1 2 d S T P
N1 N 0.6292(4) 0.2198(3) 0.1013(4) 0.0657(17) Uani 1 1 d . . .
N2 N 0.6670(4) 0.1924(3) 0.1610(4) 0.0603(15) Uani 1 1 d . . .
C1 C 0.5841(7) 0.1618(4) 0.0448(5) 0.0746(19) Uani 1 1 d . . .
N3 N 0.5902(4) 0.0968(4) 0.0638(5) 0.0803(19) Uani 1 1 d . . .
C2 C 0.6424(5) 0.1186(5) 0.1372(5) 0.073(2) Uani 1 1 d . . .
C3 C 0.6661(7) 0.0704(5) 0.1893(8) 0.114(3) Uani 1 1 d D U .
H3 H 0.703829 0.104446 0.238117 0.137 Uiso 1 1 calc R U .
C4 C 0.5378(6) 0.1770(7) -0.0277(6) 0.139(4) Uani 1 1 d D U .
H4 H 0.548670 0.231221 -0.019325 0.167 Uiso 1 1 calc R U .
C7 C 0.6053(7) -0.0034(8) 0.2410(10) 0.207(6) Uani 1 1 d D U .
H7A H 0.631079 -0.028273 0.271789 0.311 Uiso 1 1 calc R U .
H7B H 0.578838 0.010529 0.288446 0.311 Uiso 1 1 calc R U .
H7C H 0.567538 -0.039200 0.195517 0.311 Uiso 1 1 calc R U .
C6 C 0.5582(7) 0.1678(9) -0.1303(7) 0.178(6) Uani 1 1 d D U .
H6A H 0.526569 0.178298 -0.173876 0.267 Uiso 1 1 calc R U .
H6B H 0.612928 0.204278 -0.142025 0.267 Uiso 1 1 calc R U .
H6C H 0.547891 0.114951 -0.139888 0.267 Uiso 1 1 calc R U .
C5 C 0.4492(6) 0.1222(9) -0.0233(8) 0.181(6) Uani 1 1 d D U .
H5A H 0.424289 0.136333 -0.072530 0.272 Uiso 1 1 calc R U .
H5B H 0.437370 0.068837 -0.032931 0.272 Uiso 1 1 calc R U .
H5C H 0.430000 0.126697 0.038436 0.272 Uiso 1 1 calc R U .
C8 C 0.7093(8) 0.0406(7) 0.1268(10) 0.208(7) Uani 1 1 d D U .
H8A H 0.723734 0.008903 0.164879 0.312 Uiso 1 1 calc R U .
H8B H 0.675481 0.009360 0.075335 0.312 Uiso 1 1 calc R U .
H8C H 0.755897 0.084566 0.100777 0.312 Uiso 1 1 calc R U .
loop_
_atom_site_aniso_label
_atom_site_aniso_U_11
_atom_site_aniso_U_22
_atom_site_aniso_U_33
_atom_site_aniso_U_23
_atom_site_aniso_U_13
_atom_site_aniso_U_12
Cu1 0.0647(5) 0.0647(5) 0.0480(7) 0.000 0.000 0.0324(3)
Cu2 0.0653(5) 0.0653(5) 0.0541(7) -0.0151(6) -0.0151(6) 0.0319(5)
Cu3 0.1187(10) 0.0660(9) 0.0767(10) -0.0310(8) -0.0155(4) 0.0330(4)
N1 0.075(4) 0.061(3) 0.055(3) -0.009(3) -0.018(3) 0.029(3)
N2 0.070(4) 0.051(3) 0.054(3) -0.013(3) -0.008(3) 0.025(3)
C1 0.088(6) 0.060(4) 0.064(4) -0.012(3) -0.006(5) 0.027(6)
N3 0.101(5) 0.074(5) 0.062(4) -0.018(3) -0.018(4) 0.041(4)
C2 0.079(5) 0.073(5) 0.060(5) -0.005(4) 0.002(4) 0.032(4)
C3 0.159(10) 0.083(6) 0.135(8) 0.022(6) 0.005(7) 0.086(7)
C4 0.163(9) 0.194(12) 0.070(6) -0.018(7) -0.065(7) 0.096(9)
C7 0.187(13) 0.228(14) 0.195(13) 0.097(13) 0.026(12) 0.095(11)
C6 0.205(14) 0.291(16) 0.091(7) 0.007(11) 0.000(9) 0.165(12)
C5 0.163(10) 0.275(17) 0.126(10) -0.001(12) -0.022(10) 0.125(11)
C8 0.257(17) 0.199(15) 0.209(15) 0.009(12) 0.059(13) 0.145(13)
loop_
_atom_type_symbol
_atom_type_description
_atom_type_scat_dispersion_real
_atom_type_scat_dispersion_imag
_atom_type_scat_source
C C 0.0033 0.0016 'International Tables Vol C Tables 4.2.6.8 and 6.1.1.4'
N N 0.0061 0.0033 'International Tables Vol C Tables 4.2.6.8 and 6.1.1.4'
Cu Cu 0.3201 1.2651 'International Tables Vol C Tables 4.2.6.8 and 6.1.1.4'
H H 0.0000 0.0000 'International Tables Vol C Tables 4.2.6.8 and 6.1.1.4'
O O 0.0106 0.0060 'International Tables Vol C Tables 4.2.6.8 and 6.1.1.4'
loop_
_geom_angle_atom_site_label_1
_geom_angle_atom_site_label_2
_geom_angle_atom_site_label_3
_geom_angle
_geom_angle_site_symmetry_1
_geom_angle_site_symmetry_3
N1 Cu1 N1 120.000(1) 3_655 4_665
N1 Cu1 N1 120.000(1) 3_655 .
N1 Cu1 N1 120.000(2) 4_665 .
N2 Cu2 N2 177.9(4) . 10_665
N3 Cu3 N3 178.1(5) 7 .
C1 N1 N2 106.7(6) . .
C1 N1 Cu1 134.2(5) . .
N2 N1 Cu1 117.9(4) . .
C2 N2 N1 107.4(6) . .
C2 N2 Cu2 134.5(6) . .
N1 N2 Cu2 118.0(4) . .
N1 C1 N3 111.1(8) . .
N1 C1 C4 117.0(8) . .
N3 C1 C4 131.9(8) . .
C1 N3 C2 104.9(7) . .
C1 N3 Cu3 127.6(5) . .
C2 N3 Cu3 127.4(6) . .
N2 C2 N3 109.9(7) . .
N2 C2 C3 122.1(8) . .
N3 C2 C3 127.9(8) . .
C2 C3 C7 120.4(10) . .
C2 C3 C8 112.9(10) . .
C7 C3 C8 103.16(12) . .
C2 C3 H3 106.5 . .
C7 C3 H3 106.5 . .
C8 C3 H3 106.5 . .
C1 C4 C6 113.2(10) . .
C1 C4 C5 115.3(10) . .
C6 C4 C5 103.24(12) . .
C1 C4 H4 108.3 . .
C6 C4 H4 108.3 . .
C5 C4 H4 108.3 . .
C3 C7 H7A 109.5 . .
C3 C7 H7B 109.5 . .
H7A C7 H7B 109.5 . .
C3 C7 H7C 109.5 . .
H7A C7 H7C 109.5 . .
H7B C7 H7C 109.5 . .
C4 C6 H6A 109.5 . .
C4 C6 H6B 109.5 . .
H6A C6 H6B 109.5 . .
C4 C6 H6C 109.5 . .
H6A C6 H6C 109.5 . .
H6B C6 H6C 109.5 . .
C4 C5 H5A 109.5 . .
C4 C5 H5B 109.5 . .
H5A C5 H5B 109.5 . .
C4 C5 H5C 109.5 . .
H5A C5 H5C 109.5 . .
H5B C5 H5C 109.5 . .
C3 C8 H8A 109.5 . .
C3 C8 H8B 109.5 . .
H8A C8 H8B 109.5 . .
C3 C8 H8C 109.5 . .
H8A C8 H8C 109.5 . .
H8B C8 H8C 109.5 . .
loop_
_geom_bond_atom_site_label_1
_geom_bond_atom_site_label_2
_geom_bond_distance
_geom_bond_site_symmetry_2
Cu1 N1 1.964(6) 3_655
Cu1 N1 1.964(6) 4_665
Cu1 N1 1.964(6) .
Cu2 N2 1.853(5) .
Cu2 N2 1.853(5) 10_665
Cu3 N3 1.868(6) 7
Cu3 N3 1.868(6) .
N1 C1 1.298(9) .
N1 N2 1.388(8) .
N2 C2 1.318(10) .
C1 N3 1.363(10) .
C1 C4 1.483(13) .
N3 C2 1.355(10) .
C2 C3 1.440(12) .
C3 C7 1.5194(14) .
C3 C8 1.5191(14) .
C3 H3 0.9800 .
C4 C6 1.5186(14) .
C4 C5 1.5190(14) .
C4 H4 0.9800 .
C7 H7A 0.9600 .
C7 H7B 0.9600 .
C7 H7C 0.9600 .
C6 H6A 0.9600 .
C6 H6B 0.9600 .
C6 H6C 0.9600 .
C5 H5A 0.9600 .
C5 H5B 0.9600 .
C5 H5C 0.9600 .
C8 H8A 0.9600 .
C8 H8B 0.9600 .
C8 H8C 0.9600 .
