#------------------------------------------------------------------------------
#$Date: 2017-06-22 03:33:54 +0300 (Thu, 22 Jun 2017) $
#$Revision: 198055 $
#$URL: file:///home/coder/svn-repositories/cod/cif/7/12/03/7120315.cif $
#------------------------------------------------------------------------------
#
# This file is available in the Crystallography Open Database (COD),
# http://www.crystallography.net/
#
# All data on this site have been placed in the public domain by the
# contributors.
#
data_7120315
loop_
_publ_author_name
'McDonald, Kyle Andrew'
'Ko, Nakeun'
'Noh, Kyungkyou'
'Bennion, Jonathan C.'
'Kim, Jaheon'
'Matzger, Adam'
_publ_section_title
;
 Thermal Decomposition Pathways of Nitro-functionalized Metal-Organic
 Frameworks
;
_journal_name_full               'Chem. Commun.'
_journal_paper_doi               10.1039/C7CC03354K
_journal_year                    2017
_chemical_compound_source
'copper nitrate, dinitrobiphenyl dicarboxylic acid'
_chemical_formula_moiety
'C18 H15 Cu N2 O9, 1.5(C2 H4.50 N0.50 O0.50), N0.50, N0.50'
_chemical_formula_sum            'C22 H24 Cu N4 O10'
_chemical_formula_weight         567.99
_chemical_melting_point          ?
_chemical_name_common            CuNbO-2
_chemical_name_systematic        CuNbO-2
_chemical_properties_physical    ', Moisture-sensitive'
_space_group_crystal_system      trigonal
_space_group_IT_number           148
_space_group_name_Hall           '-R 3'
_space_group_name_H-M_alt        'R -3 :H'
_symmetry_space_group_name_Hall  '-R 3'
_symmetry_space_group_name_H-M   'R -3 :H'
_atom_sites_solution_hydrogens   geom
_audit_creation_method           SHELXL-2014/7
_audit_update_record
;
2017-04-01 deposited with the CCDC.
2017-06-21 downloaded from the CCDC.
;
_cell_angle_alpha                90
_cell_angle_beta                 90
_cell_angle_gamma                120
_cell_formula_units_Z            18
_cell_length_a                   45.724(7)
_cell_length_b                   45.724(7)
_cell_length_c                   10.778(2)
_cell_measurement_reflns_used    22502
_cell_measurement_temperature    95(2)
_cell_measurement_theta_max      28.688
_cell_measurement_theta_min      1.737
_cell_volume                     19514(6)
_computing_cell_refinement
;
<i>HKL3000SM</i> (Otwinowski & Minor, 1997)
;
_computing_data_collection
;
<i>PAL BL2D-SMDC</i> (Shin <i>et al</i>., 2016<i>a</i>)
;
_computing_data_reduction
;
<i>HKL3000SM</i> (Otwinowski & Minor, 1997)
;
_computing_molecular_graphics    'Bruker SHELXTL'
_computing_publication_material  'Bruker SHELXTL'
_computing_structure_refinement  'SHELXL-2014/7 (Sheldrick, 2014)'
_computing_structure_solution    'SHELXS-97 (Sheldrick 2008)'
_diffrn_ambient_temperature      95(2)
_diffrn_measured_fraction_theta_full 0.985
_diffrn_measured_fraction_theta_max 0.985
_diffrn_measurement_device_type  'ADSC Q210 CCD area-detector'
_diffrn_measurement_method       'omega scan'
_diffrn_radiation_type           synchrotron
_diffrn_radiation_wavelength     0.800
_diffrn_reflns_av_R_equivalents  0.0301
_diffrn_reflns_av_unetI/netI     0.0275
_diffrn_reflns_Laue_measured_fraction_full 0.985
_diffrn_reflns_Laue_measured_fraction_max 0.985
_diffrn_reflns_limit_h_max       47
_diffrn_reflns_limit_h_min       -46
_diffrn_reflns_limit_k_max       54
_diffrn_reflns_limit_k_min       -54
_diffrn_reflns_limit_l_max       12
_diffrn_reflns_limit_l_min       -12
_diffrn_reflns_number            22484
_diffrn_reflns_point_group_measured_fraction_full 0.985
_diffrn_reflns_point_group_measured_fraction_max 0.985
_diffrn_reflns_theta_full        28.685
_diffrn_reflns_theta_max         28.688
_diffrn_reflns_theta_min         1.737
_diffrn_source                   synchrotron
_exptl_absorpt_coefficient_mu    0.742
_exptl_absorpt_correction_type   none
_exptl_crystal_colour            green
_exptl_crystal_density_diffrn    0.870
_exptl_crystal_description       block
_exptl_crystal_F_000             5274
_exptl_crystal_recrystallization_method 'solvothermal reaction in DMA'
_exptl_crystal_size_max          0.100
_exptl_crystal_size_mid          0.100
_exptl_crystal_size_min          0.050
_refine_diff_density_max         0.983
_refine_diff_density_min         -0.724
_refine_diff_density_rms         0.141
_refine_ls_extinction_coef       0.0101(9)
_refine_ls_extinction_expression Fc^*^=kFc[1+0.001xFc^2^\l^3^/sin(2\q)]^-1/4^
_refine_ls_extinction_method     'SHELXL-2014/7 (Sheldrick 2014'
_refine_ls_goodness_of_fit_ref   1.510
_refine_ls_hydrogen_treatment    constr
_refine_ls_matrix_type           full
_refine_ls_number_parameters     536
_refine_ls_number_reflns         7726
_refine_ls_number_restraints     135
_refine_ls_restrained_S_all      1.516
_refine_ls_R_factor_all          0.1055
_refine_ls_R_factor_gt           0.0998
_refine_ls_shift/su_max          0.000
_refine_ls_shift/su_mean         0.000
_refine_ls_structure_factor_coef Fsqd
_refine_ls_weighting_details
'w=1/[\s^2^(Fo^2^)+(0.2000P)^2^] where P=(Fo^2^+2Fc^2^)/3'
_refine_ls_weighting_scheme      calc
_refine_ls_wR_factor_gt          0.3196
_refine_ls_wR_factor_ref         0.3247
_reflns_Friedel_coverage         0.000
_reflns_number_gt                6708
_reflns_number_total             7726
_reflns_threshold_expression     'I > 2\s(I)'
_cod_data_source_file            c7cc03354k3.cif
_cod_data_source_block           cunbo2_sq
_cod_depositor_comments
;
The following automatic conversions were performed:

'_chemical_melting_point' value 'none' was changed to '?' - the value
is undefined or not given.

Automatic conversion script
Id: cif_fix_values 4973 2017-02-22 13:04:09Z antanas 
;
_cod_original_cell_volume        19514(7)
_cod_database_code               7120315
_shelx_shelxl_version_number     2014/7
_shelx_space_group_comment
;
The symmetry employed for this shelxl refinement is uniquely defined
by the following loop, which should always be used as a source of
symmetry information in preference to the above space-group names.
They are only intended as comments.
;
_shelx_estimated_absorpt_t_min   0.929
_shelx_estimated_absorpt_t_max   0.964
_shelx_res_file
;

    cunbo2_sq.res created by SHELXL-2014/7


TITL CuNbO2 in R-3 148 18
CELL 0.80000  45.7239  45.7239  10.7780  90.000  90.000 120.000
ZERR   18.00   0.0065   0.0065   0.0022   0.000   0.000   0.000
LATT 3
SYMM -Y, X-Y, Z
SYMM -X+Y, -X, Z
SFAC C  H  N  O  Cu
DISP O 0.015 0.008 44.819
DISP N 0.009 0.004 26.514
DISP H -0 0 0.629
DISP Cu 0.283 1.59 7146.804
DISP C 0.005 0.002 14.981
UNIT 396 432 72 180 18
L.S. 50 0   38
ACTA
OMIT -3  10   2
OMIT  3   7   2
OMIT  3  32   1
OMIT -3  21   0
OMIT -3  35   1
OMIT  3  16   2
BOND
SIZE 0.10 0.10 0.05
TEMP -178
FMAP 2
PLAN 20
SHEL 999 0.833
EADP C22B C22D
EADP C21B C21D
EADP C22A C22C
EADP C21A C21C
SIMU C15' N3'
SIMU C15 N3
ISOR C15 C15'
ISOR 0.01 O6 C20a C20b C20c C20d
DFIX 1.54 0.01 C15 C16 C19A C20A C19B C20B C19C C20C C19D C20D
DFIX 1.47 0.01 N3 C17 N3 C18
DFIX 1.35 0.01 C15 N3
DFIX 1.23 0.01 O9 C15 O10 C19a O10 C19b
DFIX 2.5 C17 C18 C21A C22A C21B C22B C21C C22C C21D C22D
ABIN
WGHT    0.200000
EXTI    0.010092
FVAR       0.10611
CU1   5    0.154716    0.309458    0.420793    11.00000    0.03782    0.05997 =
         0.05417   -0.00654   -0.00319    0.02994
O1    4    0.114508    0.288916    0.318539    11.00000    0.05231    0.07773 =
         0.08934   -0.00012   -0.02858    0.02163
O2    4    0.134616    0.329278    0.170628    11.00000    0.04784    0.07007 =
         0.08602   -0.00147   -0.02410    0.01581
O3    4   -0.114523    0.174726   -0.318139    11.00000    0.05375    0.08808 =
         0.08374   -0.02911   -0.02845    0.03259
O4    4   -0.134644    0.194583   -0.170651    11.00000    0.04910    0.08669 =
         0.08395   -0.02533   -0.02582    0.03128
C1    1    0.016928    0.251909    0.032748    11.00000    0.05302    0.06793 =
         0.06873   -0.00757   -0.01068    0.02889
C2    1    0.022076    0.239117    0.139721    11.00000    0.05578    0.07590 =
         0.08184   -0.00231   -0.02001    0.01328
PART 1
AFIX  43
H2    2    0.004073    0.218736    0.172341    10.50000   -1.20000
AFIX   0
PART 0
C3    1    0.052580    0.254782    0.202285    11.00000    0.06496    0.10116 =
         0.08304    0.02146   -0.02772    0.00883
AFIX  43
H3    2    0.055396    0.245421    0.276949    11.00000   -1.20000
AFIX   0
C4    1    0.078608    0.283962    0.154878    11.00000    0.04916    0.06858 =
         0.07404    0.00275   -0.01721    0.02533
C5    1    0.074150    0.298103    0.045757    11.00000    0.04524    0.06624 =
         0.07156    0.00147   -0.00568    0.01943
AFIX  43
H5    2    0.091901    0.318626    0.012983    11.00000   -1.20000
AFIX   0
C6    1    0.043041    0.281129   -0.012331    11.00000    0.04955    0.06914 =
         0.06708    0.00320   -0.01412    0.02603
PART 1
AFIX  43
H6    2    0.039774    0.290251   -0.086782    10.50000   -1.20000
AFIX   0
PART 0
C7    1    0.112052    0.302459    0.219120    11.00000    0.05034    0.08340 =
         0.07649    0.00307   -0.01205    0.03425
C8    1   -0.016921    0.234898   -0.030933    11.00000    0.05051    0.06339 =
         0.07084   -0.00787   -0.01297    0.02337
C9    1   -0.022122    0.217041   -0.139827    11.00000    0.05931    0.11478 =
         0.08396   -0.02856   -0.02468    0.04799
PART 1
AFIX  43
H9    2   -0.003967    0.215187   -0.174029    10.50000   -1.20000
AFIX   0
PART 0
C10   1   -0.052661    0.201856   -0.200447    11.00000    0.06825    0.13222 =
         0.08585   -0.04646   -0.03099    0.05253
AFIX  43
H10   2   -0.055654    0.189058   -0.273586    11.00000   -1.20000
AFIX   0
C11   1   -0.078917    0.205296   -0.154564    11.00000    0.05184    0.06169 =
         0.07367   -0.01654   -0.01702    0.02301
C12   1   -0.074166    0.223959   -0.046125    11.00000    0.04186    0.07106 =
         0.07078   -0.00777   -0.00539    0.02298
AFIX  43
H12   2   -0.091914    0.226757   -0.013477    11.00000   -1.20000
AFIX   0
C13   1   -0.042919    0.238377    0.013158    11.00000    0.04989    0.06268 =
         0.06702   -0.01937   -0.01602    0.02267
PART 1
AFIX  43
H13   2   -0.039651    0.251063    0.086826    10.50000   -1.20000
AFIX   0
PART 0
C14   1   -0.111832    0.190504   -0.219551    11.00000    0.05293    0.05820 =
         0.08046   -0.01540   -0.01024    0.01937
PART 2
N1    3   -0.002093    0.203809    0.184170    10.50000    0.06287    0.09738 =
         0.07587    0.00782   -0.02964    0.03459
O5    4   -0.027534    0.188996    0.136675    10.50000    0.07319    0.12067 =
         0.16865    0.07287   -0.03113   -0.01116
O6    4    0.003199    0.196192    0.284761    10.50000    0.10227    0.14962 =
         0.17163    0.04906   -0.05069   -0.02175
N1'   3    0.041450    0.294284   -0.134083    10.50000    0.04718    0.07129 =
         0.06851    0.00212    0.00063    0.01168
O5'   4    0.015632    0.291382   -0.168228    10.50000    0.05883    0.09003 =
         0.09185    0.01141   -0.02123    0.02389
O6'   4    0.068002    0.307481   -0.194842    10.50000    0.08843    0.09800 =
         0.06150   -0.00632   -0.00338    0.02181
N2    3    0.001904    0.206406   -0.185357    10.50000    0.06143    0.08949 =
         0.07443   -0.04051   -0.03031    0.02880
O7    4    0.027483    0.216521   -0.136082    10.50000    0.06489    0.19210 =
         0.15624   -0.07885   -0.01726    0.07447
O8    4   -0.004098    0.191724   -0.279776    10.50000    0.11219    0.44344 =
         0.22956   -0.21838   -0.09189    0.19108
N2'   3   -0.041685    0.252466    0.134722    10.50000    0.05556    0.08461 =
         0.06912   -0.00132   -0.00728    0.03782
O7'   4   -0.015304    0.276050    0.168900    10.50000    0.06264    0.09902 =
         0.09863   -0.03318   -0.02281    0.03586
O8'   4   -0.067417    0.239534    0.196459    10.50000    0.07912    0.11390 =
         0.06551    0.00743    0.00206    0.04702
PART 3
O9    4   -0.037941    0.265721    0.312411    10.50000    0.08803    0.08546 =
         0.07658   -0.00306    0.00208    0.04298
N3    3    0.005192    0.284258    0.451311    10.50000    0.18560    0.08933 =
         0.34830   -0.11395   -0.15400    0.07184
C15   1   -0.008300    0.285441    0.342145    10.50000    0.15836    0.15750 =
         0.23015   -0.11338   -0.11499    0.11990
C16   1    0.015255    0.319284    0.277739    10.50000    0.10118    0.08404 =
         0.13843    0.00106    0.03704    0.03177
AFIX  33
H16A  2    0.037370    0.330155    0.318545    10.50000   -1.50000
H16B  2    0.017914    0.315205    0.190301    10.50000   -1.50000
H16C  2    0.005475    0.334038    0.283371    10.50000   -1.50000
AFIX   0
C17   1   -0.011289    0.249848    0.503921    10.50000    1.06718    0.33625 =
         0.04721    0.00535   -0.00842    0.57375
AFIX  33
H17A  2   -0.000661    0.250193    0.583285    10.50000   -1.50000
H17B  2   -0.035329    0.241850    0.517180    10.50000   -1.50000
H17C  2   -0.008818    0.234657    0.446223    10.50000   -1.50000
AFIX   0
C18   1    0.041042    0.305809    0.481967    10.50000    0.19083    0.47936 =
         0.32607   -0.34118   -0.20387    0.24523
AFIX  33
H18A  2    0.045212    0.300641    0.566146    10.50000   -1.50000
H18B  2    0.054808    0.301604    0.422832    10.50000   -1.50000
H18C  2    0.047056    0.329578    0.477402    10.50000   -1.50000
AFIX   0
SAME O9 N3 C15 C16 C17 C18 O9 N3 C15 C16 C17 C18
PART 4
O9'   4    0.038207    0.303707    0.686420    10.50000    0.07924    0.09601 =
         0.08139    0.00345   -0.00005    0.04567
N3'   3   -0.008257    0.271965    0.564476    10.50000    0.15163    0.20896 =
         0.12779    0.06904   -0.03369    0.07401
C15'  1    0.008667    0.294028    0.653679    10.50000    0.21258    0.11988 =
         0.13661    0.05862   -0.04940    0.04430
C16'  1   -0.017106    0.302027    0.721103    10.50000    0.10933    0.15845 =
         0.11591    0.04053    0.03901    0.09695
AFIX  33
H16D  2   -0.038575    0.291321    0.675873    10.50000   -1.50000
H16E  2   -0.020864    0.293221    0.806034    10.50000   -1.50000
H16F  2   -0.007911    0.326516    0.723348    10.50000   -1.50000
AFIX   0
C18'  1   -0.041221    0.264539    0.517778    10.50000    0.11906    0.16181 =
         0.12149    0.04876   -0.04563    0.00057
AFIX  33
H18D  2   -0.048493    0.247446    0.452242    10.50000   -1.50000
H18E  2   -0.057683    0.255990    0.585660    10.50000   -1.50000
H18F  2   -0.039630    0.285192    0.484064    10.50000   -1.50000
AFIX   0
C17'  1    0.012971    0.268415    0.466887    10.50000    0.73135    0.09528 =
         0.25773    0.01315    0.35363    0.10965
AFIX  33
H17D  2   -0.001673    0.251671    0.405447    10.50000   -1.50000
H17E  2    0.026900    0.290234    0.425929    10.50000   -1.50000
H17F  2    0.027611    0.261013    0.505274    10.50000   -1.50000
AFIX   0
PART 0
O10   4    0.135366    0.270225    0.552772    11.00000    0.10055    0.11264 =
         0.13265    0.06653    0.03708    0.06170
N4AB  3    0.106782    0.213904    0.611598    10.50000    0.08252    0.06995 =
         0.12491    0.01606    0.01155    0.03269
PART 1
C19A  1    0.109637    0.243999    0.582905    10.25000    0.11302    0.07277 =
         0.07913   -0.01440   -0.00707    0.06774
C20A  1    0.075106    0.242257    0.598744    10.25000    0.25356    0.25207 =
         0.24910    0.00614   -0.00907    0.13769
AFIX  33
H20A  2    0.057958    0.219311    0.622847    10.25000   -1.50000
H20B  2    0.076948    0.258196    0.663264    10.25000   -1.50000
H20C  2    0.068579    0.248163    0.520136    10.25000   -1.50000
AFIX   0
C21A  1    0.130180    0.203467    0.560314    10.25000    0.45763    0.08683 =
         0.20986   -0.05776   -0.19732    0.14462
AFIX  33
H21A  2    0.124021    0.181005    0.591841    10.25000   -1.50000
H21B  2    0.128682    0.202773    0.469555    10.25000   -1.50000
H21C  2    0.153336    0.219710    0.585572    10.25000   -1.50000
AFIX   0
C22A  1    0.077081    0.187102    0.677088    10.25000    0.12181    0.11721 =
         0.18763   -0.01363    0.00180    0.09178
AFIX  33
H22A  2    0.079968    0.167440    0.688844    10.25000   -1.50000
H22B  2    0.074845    0.195517    0.758108    10.25000   -1.50000
H22C  2    0.056716    0.180559    0.627779    10.25000   -1.50000
AFIX   0
PART 2
C19B  1    0.133621    0.243870    0.584187    10.25000    0.05644    0.08516 =
         0.09309   -0.01376   -0.02738    0.01397
C20B  1    0.170629    0.254621    0.612374    10.25000    0.06452    0.11514 =
         0.10535    0.03731   -0.01274    0.05146
AFIX  33
H20D  2    0.172071    0.234886    0.639001    10.25000   -1.50000
H20E  2    0.184293    0.264244    0.537491    10.25000   -1.50000
H20F  2    0.179105    0.271582    0.678589    10.25000   -1.50000
AFIX   0
C21B  1    0.072345    0.201201    0.559104    10.25000    0.36103    0.07893 =
         0.34772   -0.08362    0.30094   -0.08079
AFIX  33
H21D  2    0.056938    0.178724    0.592802    10.25000   -1.50000
H21E  2    0.064222    0.216688    0.581440    10.25000   -1.50000
H21F  2    0.073235    0.199839    0.468561    10.25000   -1.50000
AFIX   0
C22B  1    0.109975    0.186668    0.681327    10.25000    0.06411    0.11393 =
         0.16917    0.00857   -0.01274    0.02028
AFIX  33
H22D  2    0.087534    0.166769    0.692026    10.25000   -1.50000
H22E  2    0.124323    0.180416    0.633951    10.25000   -1.50000
H22F  2    0.120123    0.195292    0.762878    10.25000   -1.50000
AFIX   0
SAME N4AB C19A C20A C21A C22A C19B C20B C21B C22B
PART 0
N4CD  3    0.131909    0.264490    0.771149    10.50000    0.25722    0.53543 =
         0.05728   -0.06380   -0.03527    0.28200
PART 3
C19C  1    0.124330    0.268449    0.656612    10.25000    0.18509    0.08073 =
         0.08288    0.03618    0.05612    0.07463
C20C  1    0.088391    0.262094    0.630883    10.25000    0.06498    0.11477 =
         0.09111    0.02238    0.04461    0.04222
AFIX  33
H20G  2    0.076913    0.260201    0.709770    10.25000   -1.50000
H20H  2    0.089811    0.280955    0.582814    10.25000   -1.50000
H20I  2    0.075639    0.241093    0.583736    10.25000   -1.50000
AFIX   0
C21C  1    0.167216    0.277022    0.810948    10.25000    0.45763    0.08683 =
         0.20986   -0.05776   -0.19732    0.14462
AFIX  33
H21G  2    0.167549    0.271654    0.898782    10.25000   -1.50000
H21H  2    0.177059    0.266163    0.761171    10.25000   -1.50000
H21I  2    0.180401    0.301541    0.799226    10.25000   -1.50000
AFIX   0
C22C  1    0.107144    0.253000    0.873527    10.25000    0.12181    0.11721 =
         0.18763   -0.01363    0.00180    0.09178
AFIX  33
H22G  2    0.117941    0.251783    0.950382    10.25000   -1.50000
H22H  2    0.098972    0.268986    0.884259    10.25000   -1.50000
H22I  2    0.088085    0.230606    0.853881    10.25000   -1.50000
AFIX   0
PART 4
C19D  1    0.146567    0.269240    0.661351    10.25000    0.10518    0.08086 =
         0.11238    0.01185   -0.04000    0.04788
C20D  1    0.177755    0.266292    0.628589    10.25000    0.21039    0.22636 =
         0.19975    0.00153   -0.00389    0.10490
AFIX  33
H20J  2    0.188817    0.265300    0.705073    10.25000   -1.50000
H20K  2    0.170726    0.245703    0.580072    10.25000   -1.50000
H20L  2    0.193582    0.285996    0.579758    10.25000   -1.50000
AFIX   0
C21D  1    0.107207    0.275620    0.801915    10.25000    0.36103    0.07893 =
         0.34772   -0.08362    0.30094   -0.08079
AFIX  33
H21J  2    0.099647    0.269525    0.887935    10.25000   -1.50000
H21K  2    0.117991    0.300159    0.791943    10.25000   -1.50000
H21L  2    0.087735    0.264497    0.746104    10.25000   -1.50000
AFIX   0
C22D  1    0.145053    0.255253    0.886001    10.25000    0.06411    0.11393 =
         0.16917    0.00857   -0.01274    0.02028
AFIX  33
H22J  2    0.130736    0.252886    0.957328    10.25000   -1.50000
H22K  2    0.144576    0.233854    0.871657    10.25000   -1.50000
H22L  2    0.168293    0.273083    0.902824    10.25000   -1.50000
PART 0
AFIX   0
HKLF 4

REM  CuNbO2 in R-3 148 18
REM R1 =  0.0998 for    6708 Fo > 4sig(Fo)  and  0.1055 for all    7726 data
REM    536 parameters refined using    135 restraints

END

WGHT      0.2000      0.0000

REM Highest difference peak  0.983,  deepest hole -0.724,  1-sigma level  0.141
Q1    1   0.1629  0.3295  0.3638  11.00000  0.05    0.98
Q2    1   0.1534  0.3045  0.8465  11.00000  0.05    0.96
Q3    1  -0.0209  0.0241  0.9208  11.00000  0.05    0.90
Q4    1   0.1366  0.2997  0.3626  11.00000  0.05    0.80
Q5    1  -0.1123  0.1770 -0.2610  11.00000  0.05    0.79
Q6    1   0.1736  0.3211  0.4654  11.00000  0.05    0.78
Q7    1   0.1650  0.3036  0.3673  11.00000  0.05    0.77
Q8    1   0.1442  0.3177  0.4645  11.00000  0.05    0.74
Q9    1   0.1463  0.2904  0.4774  11.00000  0.05    0.70
Q10   1   0.0158  0.2409  0.0467  11.00000  0.05    0.65
Q11   1   0.1880  0.2785  0.7496  11.00000  0.05    0.63
Q12   1   0.0901  0.2787  0.7462  11.00000  0.05    0.63
Q13   1   0.1547  0.2261  0.8792  11.00000  0.05    0.63
Q14   1   0.1362  0.3377  0.0958  11.00000  0.05    0.63
Q15   1  -0.1375  0.2013 -0.1108  11.00000  0.05    0.62
Q16   1   0.0729  0.2276  0.8844  11.00000  0.05    0.60
Q17   1   0.0120  0.2883  0.4179  11.00000  0.05    0.59
Q18   1   0.0000  0.0000  0.7531  10.33333  0.05    0.59
Q19   1  -0.0134  0.2812  0.6030  11.00000  0.05    0.54
Q20   1   0.0184  0.2840  0.6028  11.00000  0.05    0.50
;
_shelx_res_checksum              9016
_shelx_fab_file
;
   -1    1    1     61.46      0.00
   -2    2    2     61.50      0.00
   -3    3    3    -15.11      0.00
   -4    4    4     -4.26      0.00
   -5    5    5     -0.83      0.00
   -6    6    6     14.38      0.00
   -7    7    7     -2.39      0.00
   -8    8    8      1.04      0.00
   -9    9    9     -1.28      0.00
  -10   10   10     -2.30      0.00
  -11   11   11      0.87      0.00
  -12   12   12      2.42      0.00
    0    2    1     83.51      0.00
   -1    3    2     48.47      0.00
   -2    4    3     -6.45      0.00
   -3    5    4     -6.81      0.00
   -4    6    5      2.05      0.00
   -5    7    6      8.56      0.00
   -6    8    7     -5.12      0.00
   -7    9    8      4.37      0.00
   -8   10    9     -1.22      0.00
   -9   11   10      0.22      0.00
  -10   12   11     -1.15      0.00
  -11   13   12      0.37      0.00
    1    3    1     52.29      0.00
    0    4    2      5.95      0.00
   -1    5    3     -2.76      0.00
   -2    6    4     -3.77      0.00
   -3    7    5      1.68      0.00
   -4    8    6      2.52      0.00
   -5    9    7     -2.63      0.00
   -6   10    8      0.75      0.00
   -7   11    9      0.00      0.00
   -8   12   10      0.38      0.00
   -9   13   11     -1.81      0.00
  -10   14   12     -3.43      0.00
   -3    6    0     69.15      0.00
    2    4    1     -6.62      0.00
    1    5    2     -8.64      0.00
    0    6    3    -26.40      0.00
   -1    7    4      2.92      0.00
   -2    8    5     -0.62      0.00
   -3    9    6      4.89      0.00
   -4   10    7      3.56      0.00
   -5   11    8     -6.07      0.00
   -6   12    9     -3.04      0.00
   -7   13   10     -1.29      0.00
   -8   14   11     -1.25      0.00
   -9   15   12     -1.57      0.00
    3    5    1      1.86      0.00
    2    6    2      2.21      0.00
    1    7    3    -47.98      0.00
    0    8    4      9.63      0.00
   -1    9    5     -2.99      0.00
   -2   10    6      7.98      0.00
   -3   11    7     -2.65      0.00
   -4   12    8     -3.27      0.00
   -5   13    9     -7.83      0.00
   -6   14   10      1.42      0.00
   -7   15   11      0.02      0.00
   -8   16   12      1.29      0.00
   -5   10    0    -24.59      0.00
    4    6    1     -7.60      0.00
    3    7    2     -7.51      0.00
    2    8    3    -31.89      0.00
    1    9    4      2.42      0.00
    0   10    5     -1.96      0.00
   -1   11    6      7.24      0.00
   -2   12    7      1.74      0.00
   -3   13    8     -1.22      0.00
   -4   14    9     -4.24      0.00
   -5   15   10      1.36      0.00
   -6   16   11      0.14      0.00
   -7   17   12      0.62      0.00
   -6   12    0     30.95      0.00
    5    7    1    -34.27      0.00
    4    8    2     -6.62      0.00
    3    9    3    -11.33      0.00
    2   10    4    -12.63      0.00
    1   11    5      4.13      0.00
    0   12    6      3.18      0.00
   -1   13    7     17.03      0.00
   -2   14    8     -1.15      0.00
   -3   15    9      1.32      0.00
   -4   16   10     -2.26      0.00
   -5   17   11      0.20      0.00
   -6   18   12      0.64      0.00
   -7   14    0     55.61      0.00
    6    8    1     -5.33      0.00
    5    9    2      5.61      0.00
    4   10    3      1.32      0.00
    3   11    4     -4.97      0.00
    2   12    5      1.56      0.00
    1   13    6      6.77      0.00
    0   14    7      6.76      0.00
   -1   15    8      4.32      0.00
   -2   16    9      1.90      0.00
   -3   17   10     -0.37      0.00
   -4   18   11      0.60      0.00
   -5   19   12      2.66      0.00
   -8   16    0      5.12      0.00
    7    9    1     16.14      0.00
    6   10    2      8.01      0.00
    5   11    3      5.69      0.00
    4   12    4      5.77      0.00
    3   13    5     -3.43      0.00
    2   14    6     12.65      0.00
    1   15    7     -8.67      0.00
    0   16    8      3.92      0.00
   -1   17    9      0.40      0.00
   -2   18   10      0.43      0.00
   -3   19   11      0.26      0.00
   -9   18    0      4.61      0.00
    8   10    1     -1.05      0.00
    7   11    2      5.74      0.00
    6   12    3     -3.41      0.00
    5   13    4     -4.34      0.00
    4   14    5     -2.54      0.00
    3   15    6      3.89      0.00
    2   16    7     -2.04      0.00
    1   17    8     -3.98      0.00
    0   18    9     -0.70      0.00
   -1   19   10     -3.50      0.00
   -2   20   11      1.02      0.00
  -10   20    0     11.20      0.00
    9   11    1     -2.99      0.00
    8   12    2      0.39      0.00
    7   13    3     -9.15      0.00
    6   14    4     -6.95      0.00
    5   15    5     -3.74      0.00
    4   16    6     -2.48      0.00
    3   17    7      0.35      0.00
    2   18    8     -5.55      0.00
    1   19    9      1.06      0.00
    0   20   10     -0.22      0.00
   -1   21   11      3.17      0.00
  -11   22    0    -17.69      0.00
   10   12    1      9.39      0.00
    9   13    2     -1.93      0.00
    8   14    3     -9.55      0.00
    7   15    4      5.41      0.00
    6   16    5     -3.39      0.00
    5   17    6      2.11      0.00
    4   18    7     -1.39      0.00
    3   19    8     -1.41      0.00
    2   20    9      4.13      0.00
    1   21   10      5.74      0.00
    0   22   11      3.22      0.00
  -12   24    0     -4.39      0.00
   11   13    1      0.99      0.00
   10   14    2     -6.17      0.00
    9   15    3     -1.56      0.00
    8   16    4      6.44      0.00
    7   17    5      1.79      0.00
    6   18    6      0.64      0.00
    5   19    7      3.43      0.00
    4   20    8      1.53      0.00
    3   21    9      5.87      0.00
    2   22   10      1.19      0.00
    1   23   11      3.13      0.00
  -13   26    0     21.98      0.00
   12   14    1     -7.34      0.00
   11   15    2     -6.52      0.00
   10   16    3      5.82      0.00
    9   17    4      2.24      0.00
    8   18    5      5.94      0.00
    7   19    6     -2.32      0.00
    6   20    7     -0.17      0.00
    5   21    8      1.77      0.00
    4   22    9      4.57      0.00
    3   23   10     -0.40      0.00
  -14   28    0      5.22      0.00
   13   15    1      3.17      0.00
   12   16    2     -1.58      0.00
   11   17    3      3.30      0.00
   10   18    4      6.23      0.00
    9   19    5      3.01      0.00
    8   20    6      1.13      0.00
    7   21    7     -3.28      0.00
    6   22    8     -0.10      0.00
    5   23    9      0.79      0.00
    4   24   10      5.90      0.00
  -15   30    0     -0.61      0.00
   14   16    1      3.24      0.00
   13   17    2     -4.00      0.00
   12   18    3      5.51      0.00
   11   19    4      1.72      0.00
   10   20    5     -0.79      0.00
    9   21    6      3.34      0.00
    8   22    7      0.25      0.00
    7   23    8     -1.49      0.00
    6   24    9     -0.34      0.00
    5   25   10      1.07      0.00
  -16   32    0      4.80      0.00
   15   17    1     -1.84      0.00
   14   18    2     -2.80      0.00
   13   19    3      2.69      0.00
   12   20    4     -3.03      0.00
   11   21    5      1.68      0.00
   10   22    6      1.25      0.00
    9   23    7     -0.15      0.00
    8   24    8     -3.83      0.00
    7   25    9     -1.01      0.00
    6   26   10     -5.35      0.00
  -17   34    0     -6.40      0.00
   16   18    1      2.17      0.00
   15   19    2      1.56      0.00
   14   20    3     -3.43      0.00
   13   21    4      2.71      0.00
   12   22    5      2.60      0.00
   11   23    6      0.15      0.00
   10   24    7     -0.92      0.00
    9   25    8     -5.83      0.00
    8   26    9     -2.91      0.00
  -18   36    0     -5.27      0.00
   17   19    1      0.17      0.00
   16   20    2     -0.91      0.00
   15   21    3      2.05      0.00
   14   22    4      0.15      0.00
   13   23    5      0.77      0.00
   12   24    6      1.64      0.00
   11   25    7      1.01      0.00
   10   26    8     -3.83      0.00
    9   27    9     -2.96      0.00
  -19   38    0      5.23      0.00
   18   20    1     -0.13      0.00
   17   21    2     -2.50      0.00
   16   22    3      3.64      0.00
   15   23    4     -3.28      0.00
   14   24    5     -1.11      0.00
   13   25    6      1.30      0.00
   12   26    7      1.78      0.00
   11   27    8     -1.83      0.00
   10   28    9     -2.65      0.00
  -20   40    0      1.23      0.00
   19   21    1      3.73      0.00
   18   22    2      0.31      0.00
   17   23    3     -0.93      0.00
   16   24    4      0.65      0.00
   15   25    5     -2.92      0.00
   14   26    6      0.13      0.00
   13   27    7     -1.38      0.00
   12   28    8     -0.06      0.00
  -21   42    0     -2.90      0.00
   20   22    1      1.34      0.00
   19   23    2      0.62      0.00
   18   24    3     -1.60      0.00
   17   25    4      1.16      0.00
   16   26    5     -1.17      0.00
   15   27    6      1.44      0.00
   14   28    7     -2.49      0.00
   13   29    8      2.47      0.00
  -22   44    0      3.02      0.00
   21   23    1     -0.46      0.00
   20   24    2     -2.32      0.00
   19   25    3      0.21      0.00
   18   26    4      0.13      0.00
   17   27    5      1.82      0.00
   16   28    6      3.55      0.00
   15   29    7      1.98      0.00
  -23   46    0      3.52      0.00
   22   24    1     -0.39      0.00
   21   25    2     -1.54      0.00
   20   26    3      0.81      0.00
   19   27    4      0.09      0.00
   18   28    5      2.00      0.00
   17   29    6      2.81      0.00
  -24   48    0      0.24      0.00
   23   25    1     -1.54      0.00
   22   26    2      0.36      0.00
   21   27    3     -1.69      0.00
   20   28    4      0.01      0.00
   19   29    5     -0.04      0.00
   18   30    6      1.49      0.00
  -25   50    0      2.60      0.00
   24   26    1     -2.43      0.00
   23   27    2      0.10      0.00
   22   28    3     -0.69      0.00
   21   29    4     -1.10      0.00
   20   30    5     -1.92      0.00
  -26   52    0      2.97      0.00
   25   27    1     -2.18      0.00
   24   28    2      0.68      0.00
   23   29    3      2.18      0.00
   26   28    1      0.24      0.00
  -11   10   12     -0.26      0.00
  -10    9   11      1.71      0.00
   -9    8   10      0.03      0.00
   -8    7    9     -1.21      0.00
   -7    6    8     -2.73      0.00
   -6    5    7     -5.54      0.00
   -5    4    6     -4.01      0.00
   -4    3    5      8.09      0.00
   -3    2    4      4.06      0.00
    1    1    3     -3.20      0.00
    0    1    2     52.30      0.00
   -2    3    1    -31.49      0.00
   -3    4    2     32.10      0.00
   -4    5    3    -15.84      0.00
   -5    6    4      6.92      0.00
   -6    7    5     -3.20      0.00
   -7    8    6     21.13      0.00
   -8    9    7     -0.15      0.00
   -9   10    8      2.31      0.00
  -10   11    9     -0.11      0.00
  -11   12   10     -2.56      0.00
  -12   13   11     -1.11      0.00
  -13   14   12      1.12      0.00
  -12    9   12     -0.50      0.00
  -11    8   11     -0.29      0.00
  -10    7   10      0.08      0.00
   -9    6    9     -2.25      0.00
   -8    5    8      2.15      0.00
   -7    4    7    -12.50      0.00
    3    3    6      5.23      0.00
    2    3    5     -0.88      0.00
    1    3    4     14.36      0.00
    0    3    3     -9.95      0.00
    0    3    0     55.59      0.00
   -1    4    1     76.55      0.00
   -2    5    2    -25.99      0.00
   -3    6    3     12.26      0.00
   -4    7    4    -10.71      0.00
   -5    8    5      5.94      0.00
   -6    9    6      1.75      0.00
   -7   10    7      4.61      0.00
   -8   11    8      1.11      0.00
   -9   12    9      1.98      0.00
  -10   13   10     -0.27      0.00
  -11   14   11     -1.98      0.00
  -12   15   12     -3.16      0.00
  -13    8   12     -3.43      0.00
  -12    7   11     -3.25      0.00
  -11    6   10     -1.69      0.00
    5    5    9      0.78      0.00
    4    5    8     -2.24      0.00
    3    5    7      0.88      0.00
    2    5    6      1.82      0.00
    1    5    5      4.57      0.00
    0    5    4      8.48      0.00
   -3    5    1     -1.87      0.00
   -4    5    0     -6.89      0.00
    0    5    1     17.41      0.00
   -1    6    2    -12.33      0.00
   -2    7    3    -11.11      0.00
   -3    8    4     -4.63      0.00
   -4    9    5      1.05      0.00
   -5   10    6      2.93      0.00
   -6   11    7      3.69      0.00
   -7   12    8     -1.05      0.00
   -8   13    9     -0.79      0.00
   -9   14   10     -0.57      0.00
  -10   15   11     -1.07      0.00
  -11   16   12     -3.24      0.00
    7    7   12     -1.63      0.00
    6    7   11     -2.68      0.00
    5    7   10     -0.60      0.00
    4    7    9     -0.36      0.00
    3    7    8     -4.43      0.00
    2    7    7      3.94      0.00
    1    7    6      6.86      0.00
    0    7    5      7.23      0.00
   -3    7    2    -47.95      0.00
   -4    7    1     37.34      0.00
   -5    7    0     79.30      0.00
    1    6    1    -32.46      0.00
    0    7    2     21.05      0.00
   -1    8    3    -51.56      0.00
   -2    9    4     11.25      0.00
   -3   10    5     -5.73      0.00
   -4   11    6      2.66      0.00
   -5   12    7     -1.56      0.00
   -6   13    8     -1.31      0.00
   -7   14    9     -4.65      0.00
   -8   15   10      1.37      0.00
   -9   16   11      0.83      0.00
  -10   17   12     -0.85      0.00
    6    9   12      1.63      0.00
    5    9   11     -0.34      0.00
    4    9   10      2.23      0.00
    3    9    9     -3.87      0.00
    2    9    8      0.09      0.00
    1    9    7      0.14      0.00
    0    9    6     18.26      0.00
   -3    9    3    -27.97      0.00
   -4    9    2     -8.28      0.00
   -5    9    1    -11.96      0.00
   -6    9    0      8.12      0.00
    2    7    1      1.21      0.00
    1    8    2     -0.06      0.00
    0    9    3    -34.41      0.00
   -1   10    4      3.26      0.00
   -2   11    5     -1.21      0.00
   -3   12    6     -7.80      0.00
   -4   13    7     -5.64      0.00
   -5   14    8      2.15      0.00
   -6   15    9     -1.53      0.00
   -7   16   10      3.68      0.00
   -8   17   11     -0.52      0.00
   -9   18   12     -0.79      0.00
    5   11   12      0.76      0.00
    4   11   11      1.26      0.00
    3   11   10     -0.67      0.00
    2   11    9      0.58      0.00
    1   11    8      1.32      0.00
    0   11    7     14.33      0.00
   -3   11    4     -0.98      0.00
   -4   11    3    -12.87      0.00
   -5   11    2    -12.32      0.00
   -6   11    1    -37.32      0.00
   -7   11    0    -21.91      0.00
    3    8    1    -17.99      0.00
    2    9    2     -6.86      0.00
    1   10    3    -16.79      0.00
    0   11    4     -7.78      0.00
   -1   12    5      2.52      0.00
   -2   13    6     -2.21      0.00
   -3   14    7     -0.98      0.00
   -4   15    8      3.12      0.00
   -5   16    9      2.95      0.00
   -6   17   10      0.98      0.00
   -7   18   11     -2.53      0.00
   -8   19   12     -0.83      0.00
    4   13   12      0.93      0.00
    3   13   11      1.63      0.00
    2   13   10     -1.05      0.00
    1   13    9      4.95      0.00
    0   13    8      2.13      0.00
   -3   13    5      3.92      0.00
   -4   13    4    -15.26      0.00
   -5   13    3      0.67      0.00
   -6   13    2    -19.77      0.00
   -7   13    1    -11.93      0.00
   -8   13    0     35.51      0.00
    4    9    1    -18.76      0.00
    3   10    2      6.76      0.00
    2   11    3    -12.08      0.00
    1   12    4     -1.87      0.00
    0   13    5     -2.34      0.00
   -1   14    6      6.91      0.00
   -2   15    7      1.33      0.00
   -3   16    8      3.37      0.00
   -4   17    9      3.65      0.00
   -5   18   10     -0.56      0.00
   -6   19   11     -1.07      0.00
   -7   20   12      0.25      0.00
    3   15   12      3.19      0.00
    2   15   11     -0.13      0.00
    1   15   10      2.70      0.00
    0   15    9      2.08      0.00
   -3   15    6      9.36      0.00
   -4   15    5      0.13      0.00
   -5   15    4     -2.80      0.00
   -6   15    3    -15.14      0.00
   -7   15    2     -0.82      0.00
   -8   15    1      5.42      0.00
   -9   15    0     19.32      0.00
    5   10    1     22.08      0.00
    4   11    2      7.00      0.00
    3   12    3     12.01      0.00
    2   13    4      4.26      0.00
    1   14    5     -2.02      0.00
    0   15    6      6.17      0.00
   -1   16    7     -8.65      0.00
   -2   17    8      4.37      0.00
   -3   18    9      3.92      0.00
   -4   19   10      2.42      0.00
   -5   20   11      1.07      0.00
    1   17   11     -0.55      0.00
    0   17   10     -0.79      0.00
   -3   17    7     -4.27      0.00
   -4   17    6     10.37      0.00
   -5   17    5      1.92      0.00
   -6   17    4     -2.61      0.00
   -7   17    3    -15.96      0.00
   -8   17    2      0.24      0.00
   -9   17    1     -7.76      0.00
  -10   17    0     -9.62      0.00
    6   11    1     13.43      0.00
    5   12    2      8.06      0.00
    4   13    3      7.76      0.00
    3   14    4      3.85      0.00
    2   15    5      1.58      0.00
    1   16    6      3.60      0.00
    0   17    7     -7.94      0.00
   -1   18    8     -2.44      0.00
   -2   19    9      4.14      0.00
   -3   20   10      2.09      0.00
   -4   21   11      0.74      0.00
    0   19   11      2.76      0.00
   -3   19    8      0.32      0.00
   -4   19    7     -0.49      0.00
   -5   19    6      0.63      0.00
   -6   19    5      1.98      0.00
   -7   19    4    -11.22      0.00
   -8   19    3     -2.30      0.00
   -9   19    2     -8.05      0.00
  -10   19    1    -18.46      0.00
  -11   19    0      8.85      0.00
    7   12    1    -14.68      0.00
    6   13    2      7.21      0.00
    5   14    3    -13.10      0.00
    4   15    4     -1.89      0.00
    3   16    5     -2.37      0.00
    2   17    6     -1.05      0.00
    1   18    7      1.38      0.00
    0   19    8     -6.54      0.00
   -1   20    9      2.95      0.00
   -2   21   10      0.27      0.00
   -3   22   11      0.12      0.00
   -3   21    9      5.84      0.00
   -4   21    8     -0.05      0.00
   -5   21    7      0.77      0.00
   -6   21    6      1.47      0.00
   -7   21    5     -2.54      0.00
   -8   21    4     -0.79      0.00
   -9   21    3     -6.76      0.00
  -10   21    2      5.88      0.00
  -11   21    1    -11.53      0.00
  -12   21    0     -2.26      0.00
    8   13    1      1.25      0.00
    7   14    2     -3.38      0.00
    6   15    3     -8.96      0.00
    5   16    4     -3.11      0.00
    4   17    5     -2.56      0.00
    3   18    6     -2.50      0.00
    2   19    7     -0.64      0.00
    1   20    8     -0.97      0.00
    0   21    9      3.22      0.00
   -1   22   10      2.73      0.00
   -2   23   11      1.42      0.00
   -3   23   10      2.11      0.00
   -4   23    9      1.60      0.00
   -5   23    8      3.25      0.00
   -6   23    7      1.33      0.00
   -7   23    6      1.13      0.00
   -8   23    5      0.21      0.00
   -9   23    4      6.29      0.00
  -10   23    3     -6.95      0.00
  -11   23    2      8.17      0.00
  -12   23    1     -5.45      0.00
  -13   23    0    -16.72      0.00
    9   14    1     12.00      0.00
    8   15    2     -6.70      0.00
    7   16    3      0.24      0.00
    6   17    4      1.19      0.00
    5   18    5      1.42      0.00
    4   19    6      2.41      0.00
    3   20    7     -0.29      0.00
    2   21    8      1.25      0.00
    1   22    9      4.36      0.00
    0   23   10      0.06      0.00
   -1   24   11      2.76      0.00
   -3   25   11      3.79      0.00
   -4   25   10      1.74      0.00
   -5   25    9     -1.06      0.00
   -6   25    8     -1.31      0.00
   -7   25    7      1.72      0.00
   -8   25    6     -1.67      0.00
   -9   25    5      4.18      0.00
  -10   25    4      0.37      0.00
  -11   25    3      6.95      0.00
  -12   25    2    -11.37      0.00
  -13   25    1     -0.36      0.00
  -14   25    0      6.16      0.00
   10   15    1     -9.16      0.00
    9   16    2      2.49      0.00
    8   17    3      0.25      0.00
    7   18    4      1.22      0.00
    6   19    5      2.16      0.00
    5   20    6      0.66      0.00
    4   21    7      3.20      0.00
    3   22    8      1.61      0.00
    2   23    9      1.92      0.00
    1   24   10     -5.19      0.00
    0   25   11      1.96      0.00
   -5   27   10     -0.31      0.00
   -6   27    9     -0.60      0.00
   -7   27    8     -2.06      0.00
   -8   27    7      0.05      0.00
   -9   27    6     -0.33      0.00
  -10   27    5      4.44      0.00
  -11   27    4      2.44      0.00
  -12   27    3      7.21      0.00
  -13   27    2     -7.24      0.00
  -14   27    1     -1.60      0.00
  -15   27    0      8.21      0.00
   11   16    1     -4.82      0.00
   10   17    2      3.94      0.00
    9   18    3     -1.72      0.00
    8   19    4      3.36      0.00
    7   20    5      0.81      0.00
    6   21    6     -2.72      0.00
    5   22    7      0.14      0.00
    4   23    8      1.65      0.00
    3   24    9     -0.36      0.00
    2   25   10     -1.03      0.00
   -6   29   10     -1.34      0.00
   -7   29    9     -0.34      0.00
   -8   29    8      2.63      0.00
   -9   29    7     -1.61      0.00
  -10   29    6     -0.77      0.00
  -11   29    5      1.62      0.00
  -12   29    4      8.10      0.00
  -13   29    3      0.38      0.00
  -14   29    2      2.87      0.00
  -15   29    1     -7.14      0.00
  -16   29    0     -4.89      0.00
   12   17    1      6.47      0.00
   11   18    2     -1.87      0.00
   10   19    3      1.68      0.00
    9   20    4      0.21      0.00
    8   21    5     -0.62      0.00
    7   22    6      1.83      0.00
    6   23    7     -0.56      0.00
    5   24    8     -0.33      0.00
    4   25    9      0.49      0.00
    3   26   10     -0.13      0.00
   -7   31   10     -1.23      0.00
   -8   31    9      1.61      0.00
   -9   31    8     -1.37      0.00
  -10   31    7     -0.33      0.00
  -11   31    6     -1.60      0.00
  -12   31    5     -1.32      0.00
  -13   31    4      2.53      0.00
  -14   31    3      0.45      0.00
  -15   31    2     -1.99      0.00
  -16   31    1     -5.13      0.00
  -17   31    0      1.16      0.00
   13   18    1     -3.13      0.00
   12   19    2     -1.66      0.00
   11   20    3      1.97      0.00
   10   21    4     -6.31      0.00
    9   22    5      0.74      0.00
    8   23    6      1.51      0.00
    7   24    7     -0.65      0.00
    6   25    8     -0.53      0.00
    5   26    9      0.90      0.00
    4   27   10     -4.53      0.00
   -8   33   10     -2.75      0.00
   -9   33    9      1.06      0.00
  -10   33    8     -2.70      0.00
  -11   33    7      1.90      0.00
  -12   33    6     -0.53      0.00
  -13   33    5      0.58      0.00
  -14   33    4      0.64      0.00
  -15   33    3     -4.11      0.00
  -16   33    2      1.78      0.00
  -17   33    1     -2.95      0.00
  -18   33    0      1.00      0.00
   14   19    1     -0.15      0.00
   13   20    2     -2.44      0.00
   12   21    3     -1.35      0.00
   11   22    4     -0.32      0.00
   10   23    5      0.08      0.00
    9   24    6     -3.68      0.00
    8   25    7     -2.56      0.00
    7   26    8     -1.90      0.00
    6   27    9      1.69      0.00
  -10   35    9     -1.01      0.00
  -11   35    8      1.38      0.00
  -12   35    7      0.99      0.00
  -13   35    6      3.11      0.00
  -14   35    5      1.53      0.00
  -15   35    4      3.69      0.00
  -16   35    3     -6.11      0.00
  -17   35    2      4.44      0.00
  -18   35    1     -2.18      0.00
  -19   35    0     -7.08      0.00
   15   20    1      2.78      0.00
   14   21    2     -1.52      0.00
   13   22    3      1.70      0.00
   12   23    4      1.37      0.00
   11   24    5     -1.18      0.00
   10   25    6     -3.08      0.00
    9   26    7     -0.71      0.00
    8   27    8     -1.29      0.00
    7   28    9      2.72      0.00
  -11   37    9      2.63      0.00
  -12   37    8      1.54      0.00
  -13   37    7      0.36      0.00
  -14   37    6      3.13      0.00
  -15   37    5      0.00      0.00
  -16   37    4      0.18      0.00
  -17   37    3      0.76      0.00
  -18   37    2     -2.13      0.00
  -19   37    1      1.69      0.00
  -20   37    0     -1.77      0.00
   16   21    1     -4.67      0.00
   15   22    2      2.06      0.00
   14   23    3      3.01      0.00
   13   24    4     -3.65      0.00
   12   25    5     -1.10      0.00
   11   26    6      0.59      0.00
   10   27    7      2.18      0.00
    9   28    8      1.06      0.00
    8   29    9      3.00      0.00
  -13   39    8     -0.40      0.00
  -14   39    7      1.11      0.00
  -15   39    6     -1.81      0.00
  -16   39    5      1.13      0.00
  -17   39    4     -1.42      0.00
  -18   39    3      2.03      0.00
  -19   39    2     -1.42      0.00
  -20   39    1      3.48      0.00
  -21   39    0      4.23      0.00
   17   22    1     -1.23      0.00
   16   23    2      0.97      0.00
   15   24    3      0.29      0.00
   14   25    4     -0.47      0.00
   13   26    5     -3.92      0.00
   12   27    6      2.29      0.00
   11   28    7      1.32      0.00
   10   29    8      1.70      0.00
  -14   41    8     -4.07      0.00
  -15   41    7     -1.63      0.00
  -16   41    6     -2.06      0.00
  -17   41    5      2.39      0.00
  -18   41    4     -0.55      0.00
  -19   41    3     -0.10      0.00
  -20   41    2      2.52      0.00
  -21   41    1      0.34      0.00
  -22   41    0     -0.41      0.00
   18   23    1      3.84      0.00
   17   24    2      0.40      0.00
   16   25    3     -0.71      0.00
   15   26    4      2.29      0.00
   14   27    5     -3.70      0.00
   13   28    6      2.58      0.00
   12   29    7     -0.63      0.00
   11   30    8      4.70      0.00
  -16   43    7     -5.34      0.00
  -17   43    6      0.09      0.00
  -18   43    5      1.77      0.00
  -19   43    4     -0.06      0.00
  -20   43    3      1.11      0.00
  -21   43    2      0.23      0.00
  -22   43    1     -1.46      0.00
  -23   43    0     -0.02      0.00
   19   24    1      1.00      0.00
   18   25    2     -0.13      0.00
   17   26    3      0.98      0.00
   16   27    4      0.27      0.00
   15   28    5      0.43      0.00
   14   29    6      4.64      0.00
   13   30    7      0.80      0.00
  -18   45    6      1.36      0.00
  -19   45    5      0.92      0.00
  -20   45    4      0.73      0.00
  -21   45    3      0.55      0.00
  -22   45    2     -0.96      0.00
  -23   45    1      0.20      0.00
  -24   45    0      4.14      0.00
   20   25    1     -0.35      0.00
   19   26    2      0.00      0.00
   18   27    3      2.27      0.00
   17   28    4     -1.15      0.00
   16   29    5      3.11      0.00
   15   30    6      5.27      0.00
  -19   47    6      2.09      0.00
  -20   47    5     -0.40      0.00
  -21   47    4     -0.67      0.00
  -22   47    3     -1.46      0.00
  -23   47    2      0.62      0.00
  -24   47    1     -0.44      0.00
  -25   47    0      1.45      0.00
   21   26    1      0.41      0.00
   20   27    2      1.32      0.00
   19   28    3     -0.46      0.00
   18   29    4     -0.05      0.00
   17   30    5      2.08      0.00
   16   31    6      1.65      0.00
  -21   49    5     -2.22      0.00
  -22   49    4     -2.16      0.00
  -23   49    3     -0.56      0.00
  -24   49    2      0.53      0.00
  -25   49    1     -2.52      0.00
  -26   49    0      0.69      0.00
   22   27    1     -1.51      0.00
   21   28    2     -0.13      0.00
   20   29    3     -1.29      0.00
   19   30    4      1.28      0.00
   18   31    5      0.00      0.00
  -23   51    4     -1.86      0.00
  -24   51    3      1.27      0.00
  -25   51    2      0.32      0.00
  -26   51    1     -2.13      0.00
  -27   51    0      2.21      0.00
   23   28    1     -2.80      0.00
   22   29    2      0.55      0.00
   21   30    3      1.23      0.00
   20   31    4      1.74      0.00
  -25   53    3      0.44      0.00
  -26   53    2     -0.64      0.00
  -27   53    1     -0.99      0.00
  -28   53    0      0.11      0.00
   24   29    1     -0.06      0.00
   23   30    2      0.97      0.00
   -9    9   12     -2.61      0.00
   -8    8   11      0.44      0.00
   -7    7   10      0.00      0.00
   -6    6    9      1.08      0.00
   -5    5    8     -1.50      0.00
   -4    4    7     -0.61      0.00
   -3    3    6    -15.23      0.00
   -2    2    5      3.48      0.00
   -1    1    4     -1.37      0.00
   -5    5    2     25.70      0.00
   -6    6    3    -13.86      0.00
   -7    7    4     35.66      0.00
   -8    8    5      4.38      0.00
   -9    9    6     20.58      0.00
  -10   10    7     -1.24      0.00
  -11   11    8     -8.30      0.00
  -12   12    9     -2.63      0.00
  -13   13   10     -2.49      0.00
  -14   14   11      0.63      0.00
  -15   15   12      0.81      0.00
  -10    8   12      0.98      0.00
   -9    7   11     -1.93      0.00
   -8    6   10      1.85      0.00
   -7    5    9     -1.16      0.00
   -6    4    8      0.23      0.00
   -5    3    7     -6.54      0.00
    2    2    6     -1.98      0.00
    1    2    5     -6.64      0.00
    0    2    4     11.68      0.00
   -1    2    3     -0.76      0.00
   -3    2    1    -50.88      0.00
   -4    6    2    -21.37      0.00
   -5    7    3     14.11      0.00
   -6    8    4     15.02      0.00
   -7    9    5      9.44      0.00
   -8   10    6      7.50      0.00
   -9   11    7      3.23      0.00
  -10   12    8     -8.69      0.00
  -11   13    9      1.98      0.00
  -12   14   10     -0.68      0.00
  -13   15   11     -0.48      0.00
  -14   16   12     -1.46      0.00
  -11    7   12     -0.86      0.00
  -10    6   11     -4.32      0.00
   -9    5   10      0.31      0.00
    4    4    9     -0.53      0.00
    3    4    8      1.95      0.00
    2    4    7     -3.03      0.00
    1    4    6      3.68      0.00
    0    4    5     -7.13      0.00
   -1    4    4     15.80      0.00
   -1    5    0    -10.81      0.00
   -2    6    1     18.45      0.00
   -4    8    3     23.06      0.00
   -5    9    4     -3.06      0.00
   -6   10    5     13.02      0.00
   -7   11    6      1.48      0.00
   -8   12    7      3.19      0.00
   -9   13    8     -4.12      0.00
  -10   14    9      0.35      0.00
  -11   15   10     -0.07      0.00
  -12   16   11     -0.75      0.00
  -13   17   12     -2.48      0.00
    6    6   12     -2.93      0.00
    5    6   11     -2.81      0.00
    4    6   10     -1.30      0.00
    3    6    9      1.90      0.00
    2    6    8     -0.17      0.00
    1    6    7      6.41      0.00
    0    6    6     -1.74      0.00
   -1    6    5      5.68      0.00
   -5    6    1     95.32      0.00
    0    6    0     50.50      0.00
   -1    7    1    -29.59      0.00
   -2    8    2     -5.58      0.00
   -4   10    4      5.24      0.00
   -5   11    5      5.66      0.00
   -6   12    6      9.55      0.00
   -7   13    7     -2.48      0.00
   -8   14    8      0.18      0.00
   -9   15    9     -4.11      0.00
  -10   16   10     -0.05      0.00
  -11   17   11      1.82      0.00
  -12   18   12     -1.52      0.00
    5    8   12      1.53      0.00
    4    8   11     -1.20      0.00
    3    8   10      0.70      0.00
    2    8    9      0.70      0.00
    1    8    8     -0.61      0.00
    0    8    7      2.46      0.00
   -1    8    6      8.57      0.00
   -5    8    2     -1.82      0.00
   -7    8    0     72.29      0.00
    0    8    1    -16.45      0.00
   -1    9    2     -3.13      0.00
   -2   10    3    -35.14      0.00
   -4   12    5     -0.04      0.00
   -5   13    6     -0.48      0.00
   -6   14    7     -1.89      0.00
   -7   15    8      2.71      0.00
   -8   16    9      0.20      0.00
   -9   17   10      0.68      0.00
  -10   18   11      1.22      0.00
  -11   19   12      0.53      0.00
    4   10   12      1.95      0.00
    3   10   11     -1.00      0.00
    2   10   10      0.07      0.00
    1   10    9      1.63      0.00
    0   10    8      1.12      0.00
   -1   10    7      0.18      0.00
   -5   10    3     13.12      0.00
   -6   10    2     20.85      0.00
   -7   10    1     -9.79      0.00
   -8   10    0      0.70      0.00
    1    9    1     -3.89      0.00
    0   10    2    -18.17      0.00
   -1   11    3    -17.18      0.00
   -2   12    4    -14.70      0.00
   -4   14    6     -6.41      0.00
   -5   15    7     -0.32      0.00
   -6   16    8      6.60      0.00
   -7   17    9      3.78      0.00
   -8   18   10      0.16      0.00
   -9   19   11     -2.66      0.00
  -10   20   12      1.82      0.00
    3   12   12     -1.18      0.00
    2   12   11     -0.65      0.00
    1   12   10     -1.56      0.00
    0   12    9      5.78      0.00
   -1   12    8     -0.53      0.00
   -5   12    4     -1.75      0.00
   -6   12    3      7.36      0.00
   -7   12    2     -5.71      0.00
   -8   12    1     18.41      0.00
   -9   12    0    -12.63      0.00
    2   10    1    -20.89      0.00
    1   11    2    -13.06      0.00
    0   12    3    -29.52      0.00
   -1   13    4     -3.54      0.00
   -2   14    5     -1.16      0.00
   -4   16    7     -2.24      0.00
   -5   17    8      6.97      0.00
   -6   18    9      0.17      0.00
   -7   19   10     -1.25      0.00
   -8   20   11     -1.87      0.00
    2   14   12      0.36      0.00
    1   14   11      1.18      0.00
    0   14   10      1.88      0.00
   -1   14    9      3.96      0.00
   -5   14    5     -2.34      0.00
   -6   14    4     -4.17      0.00
   -7   14    3    -10.67      0.00
   -8   14    2     -1.57      0.00
   -9   14    1     40.65      0.00
  -10   14    0     15.89      0.00
    3   11    1     -2.49      0.00
    2   12    2     -6.17      0.00
    1   13    3    -18.05      0.00
    0   14    4      1.34      0.00
   -1   15    5     -3.89      0.00
   -2   16    6     10.25      0.00
   -4   18    8      4.49      0.00
   -5   19    9     -0.63      0.00
   -6   20   10      0.93      0.00
   -7   21   11      2.45      0.00
    1   16   12      2.11      0.00
    0   16   11      0.96      0.00
   -1   16   10      2.83      0.00
   -5   16    6      3.53      0.00
   -6   16    5     -3.85      0.00
   -7   16    4     -2.91      0.00
   -8   16    3    -25.08      0.00
   -9   16    2     14.34      0.00
  -10   16    1     11.20      0.00
  -11   16    0     -2.49      0.00
    4   12    1     17.18      0.00
    3   13    2     -2.84      0.00
    2   14    3      4.53      0.00
    1   15    4     -3.45      0.00
    0   16    5      7.21      0.00
   -1   17    6     -1.23      0.00
   -2   18    7     -4.58      0.00
   -4   20    9      4.50      0.00
   -5   21   10      3.95      0.00
   -6   22   11      2.77      0.00
   -1   18   11      0.02      0.00
   -5   18    7     -1.53      0.00
   -6   18    6      2.69      0.00
   -7   18    5      0.25      0.00
   -8   18    4     -8.16      0.00
   -9   18    3     -9.20      0.00
  -10   18    2     -6.94      0.00
  -11   18    1      6.39      0.00
  -12   18    0     -6.30      0.00
    5   13    1     -6.81      0.00
    4   14    2      0.71      0.00
    3   15    3     -8.80      0.00
    2   16    4     -1.04      0.00
    1   17    5      5.24      0.00
    0   18    6      1.57      0.00
   -1   19    7     -1.36      0.00
   -2   20    8     -3.17      0.00
   -4   22   10      2.32      0.00
   -5   23   11      0.42      0.00
   -5   20    8      1.12      0.00
   -6   20    7      0.06      0.00
   -7   20    6      1.49      0.00
   -8   20    5     -0.04      0.00
   -9   20    4     -4.82      0.00
  -10   20    3      0.86      0.00
  -11   20    2     -5.16      0.00
  -12   20    1      5.17      0.00
  -13   20    0     11.19      0.00
    6   14    1    -15.86      0.00
    5   15    2      3.68      0.00
    4   16    3    -18.23      0.00
    3   17    4     -3.27      0.00
    2   18    5     -2.84      0.00
    1   19    6      1.37      0.00
    0   20    7      1.24      0.00
   -1   21    8      0.44      0.00
   -2   22    9      3.00      0.00
   -4   24   11      0.87      0.00
   -5   22    9      4.62      0.00
   -6   22    8      2.85      0.00
   -7   22    7      0.27      0.00
   -8   22    6      2.67      0.00
   -9   22    5      0.16      0.00
  -10   22    4      1.65      0.00
  -11   22    3     -5.09      0.00
  -12   22    2     17.31      0.00
  -13   22    1    -12.96      0.00
  -14   22    0      4.46      0.00
    7   15    1      9.33      0.00
    6   16    2     -1.51      0.00
    5   17    3     -2.80      0.00
    4   18    4     -7.23      0.00
    3   19    5      3.40      0.00
    2   20    6     -2.73      0.00
    1   21    7      0.07      0.00
    0   22    8      2.95      0.00
   -1   23    9      4.19      0.00
   -2   24   10      2.09      0.00
   -5   24   10     -0.30      0.00
   -6   24    9      1.47      0.00
   -7   24    8      3.02      0.00
   -8   24    7      0.48      0.00
   -9   24    6      0.15      0.00
  -10   24    5      1.18      0.00
  -11   24    4      0.42      0.00
  -12   24    3     -3.57      0.00
  -13   24    2      0.70      0.00
  -14   24    1     -2.52      0.00
  -15   24    0     -4.70      0.00
    8   16    1      6.99      0.00
    7   17    2      1.55      0.00
    6   18    3      1.39      0.00
    5   19    4     -7.00      0.00
    4   20    5      6.60      0.00
    3   21    6      0.95      0.00
    2   22    7      0.93      0.00
    1   23    8      0.61      0.00
    0   24    9      2.21      0.00
   -1   25   10     -1.51      0.00
   -5   26   11      2.44      0.00
   -6   26   10     -0.93      0.00
   -7   26    9     -1.04      0.00
   -8   26    8     -2.52      0.00
   -9   26    7      1.54      0.00
  -10   26    6      0.18      0.00
  -11   26    5      1.02      0.00
  -12   26    4     -2.02      0.00
  -13   26    3      2.84      0.00
  -14   26    2    -15.80      0.00
  -15   26    1      7.66      0.00
  -16   26    0     -1.76      0.00
    9   17    1     -6.34      0.00
    8   18    2      7.10      0.00
    7   19    3     -6.46      0.00
    6   20    4     -0.98      0.00
    5   21    5     -0.78      0.00
    4   22    6     -1.07      0.00
    3   23    7      2.59      0.00
    2   24    8     -0.03      0.00
    1   25    9     -2.82      0.00
    0   26   10     -0.31      0.00
   -7   28   10     -0.72      0.00
   -8   28    9      1.07      0.00
   -9   28    8     -1.81      0.00
  -10   28    7     -2.89      0.00
  -11   28    6      2.17      0.00
  -12   28    5      2.83      0.00
  -13   28    4      1.44      0.00
  -14   28    3      0.10      0.00
  -15   28    2     -1.21      0.00
  -16   28    1    -12.03      0.00
  -17   28    0     -2.00      0.00
   10   18    1     -0.07      0.00
    9   19    2      1.25      0.00
    8   20    3     -3.03      0.00
    7   21    4      1.61      0.00
    6   22    5     -2.09      0.00
    5   23    6     -2.00      0.00
    4   24    7      0.80      0.00
    3   25    8     -0.70      0.00
    2   26    9     -1.38      0.00
    1   27   10      1.16      0.00
   -8   30   10      0.67      0.00
   -9   30    9     -0.57      0.00
  -10   30    8      0.29      0.00
  -11   30    7     -5.27      0.00
  -12   30    6      0.32      0.00
  -13   30    5     -0.49      0.00
  -14   30    4      5.31      0.00
  -15   30    3     -3.29      0.00
  -16   30    2      4.08      0.00
  -17   30    1    -12.21      0.00
  -18   30    0     -4.46      0.00
   11   19    1     -2.35      0.00
   10   20    2      2.98      0.00
    9   21    3     -0.39      0.00
    8   22    4     -3.76      0.00
    7   23    5      3.33      0.00
    6   24    6      1.97      0.00
    5   25    7     -0.34      0.00
    4   26    8     -0.44      0.00
    3   27    9     -0.39      0.00
   -9   32   10     -0.28      0.00
  -10   32    9     -1.88      0.00
  -11   32    8     -1.30      0.00
  -12   32    7     -0.94      0.00
  -13   32    6     -3.00      0.00
  -14   32    5     -2.10      0.00
  -15   32    4      3.61      0.00
  -16   32    3     -0.02      0.00
  -17   32    2      0.93      0.00
  -18   32    1      2.85      0.00
  -19   32    0      0.69      0.00
   12   20    1     -3.93      0.00
   11   21    2      3.33      0.00
   10   22    3     -1.00      0.00
    9   23    4     -1.46      0.00
    8   24    5      1.55      0.00
    7   25    6     -0.64      0.00
    6   26    7     -0.72      0.00
    5   27    8     -0.42      0.00
    4   28    9      0.18      0.00
  -11   34    9     -0.51      0.00
  -12   34    8      0.77      0.00
  -13   34    7      1.08      0.00
  -14   34    6     -1.36      0.00
  -15   34    5      1.63      0.00
  -16   34    4      3.44      0.00
  -17   34    3     -1.20      0.00
  -18   34    2      6.01      0.00
  -19   34    1      1.20      0.00
  -20   34    0      2.20      0.00
   13   21    1      4.31      0.00
   12   22    2     -1.33      0.00
   11   23    3      4.18      0.00
   10   24    4      1.80      0.00
    9   25    5     -1.62      0.00
    8   26    6     -3.22      0.00
    7   27    7     -0.52      0.00
    6   28    8     -1.16      0.00
    5   29    9      1.33      0.00
  -12   36    9      0.87      0.00
  -13   36    8      2.80      0.00
  -14   36    7      0.64      0.00
  -15   36    6      2.77      0.00
  -16   36    5     -0.50      0.00
  -17   36    4      3.36      0.00
  -18   36    3     -2.11      0.00
  -19   36    2      3.62      0.00
  -20   36    1     -1.58      0.00
  -21   36    0     -2.69      0.00
   14   22    1      2.35      0.00
   13   23    2      2.61      0.00
   12   24    3      2.49      0.00
   11   25    4     -1.62      0.00
   10   26    5      1.39      0.00
    9   27    6     -0.93      0.00
    8   28    7      1.25      0.00
    7   29    8      0.97      0.00
    6   30    9     -1.22      0.00
  -13   38    9      6.01      0.00
  -14   38    8      1.24      0.00
  -15   38    7      1.13      0.00
  -16   38    6      0.32      0.00
  -17   38    5     -0.68      0.00
  -18   38    4     -1.29      0.00
  -19   38    3      1.48      0.00
  -20   38    2     -1.39      0.00
  -21   38    1      1.83      0.00
  -22   38    0      0.38      0.00
   15   23    1     -2.78      0.00
   14   24    2      2.93      0.00
   13   25    3     -1.27      0.00
   12   26    4     -1.03      0.00
   11   27    5     -0.02      0.00
   10   28    6      1.86      0.00
    9   29    7      0.05      0.00
    8   30    8      1.41      0.00
  -15   40    8      0.08      0.00
  -16   40    7      0.87      0.00
  -17   40    6     -2.39      0.00
  -18   40    5      1.80      0.00
  -19   40    4     -3.39      0.00
  -20   40    3      1.81      0.00
  -21   40    2      2.25      0.00
  -22   40    1     -0.19      0.00
  -23   40    0      3.02      0.00
   16   24    1      0.65      0.00
   15   25    2     -1.59      0.00
   14   26    3      0.79      0.00
   13   27    4      2.00      0.00
   12   28    5     -3.79      0.00
   11   29    6      1.16      0.00
   10   30    7     -1.37      0.00
    9   31    8      1.67      0.00
  -16   42    8      0.47      0.00
  -17   42    7     -1.36      0.00
  -18   42    6     -0.04      0.00
  -19   42    5      0.18      0.00
  -20   42    4     -0.95      0.00
  -21   42    3      0.89      0.00
  -22   42    2      2.94      0.00
  -23   42    1     -2.84      0.00
  -24   42    0     -0.05      0.00
   17   25    1      2.58      0.00
   16   26    2     -2.07      0.00
   15   27    3      2.18      0.00
   14   28    4      1.07      0.00
   13   29    5     -2.14      0.00
   12   30    6      1.21      0.00
   11   31    7      0.35      0.00
  -18   44    7     -2.78      0.00
  -19   44    6      1.64      0.00
  -20   44    5      0.02      0.00
  -21   44    4      0.67      0.00
  -22   44    3      1.26      0.00
  -23   44    2     -0.25      0.00
  -24   44    1      0.62      0.00
  -25   44    0      0.93      0.00
   18   26    1      0.07      0.00
   17   27    2      0.61      0.00
   16   28    3      1.60      0.00
   15   29    4     -1.43      0.00
   14   30    5      1.00      0.00
   13   31    6      4.56      0.00
  -20   46    6      1.42      0.00
  -21   46    5      1.00      0.00
  -22   46    4     -0.47      0.00
  -23   46    3      0.58      0.00
  -24   46    2      0.17      0.00
  -25   46    1      1.29      0.00
  -26   46    0      1.63      0.00
   19   27    1      0.93      0.00
   18   28    2      2.51      0.00
   17   29    3     -2.02      0.00
   16   30    4     -1.35      0.00
   15   31    5      1.42      0.00
   14   32    6      2.40      0.00
  -21   48    6     -0.33      0.00
  -22   48    5     -0.10      0.00
  -23   48    4     -1.10      0.00
  -24   48    3     -0.77      0.00
  -25   48    2      0.63      0.00
  -26   48    1     -1.38      0.00
  -27   48    0     -0.06      0.00
   20   28    1      0.04      0.00
   19   29    2      0.18      0.00
   18   30    3     -3.08      0.00
   17   31    4     -1.01      0.00
   16   32    5     -1.01      0.00
  -23   50    5     -3.63      0.00
  -24   50    4      0.38      0.00
  -25   50    3      0.65      0.00
  -26   50    2     -0.13      0.00
  -27   50    1     -1.01      0.00
  -28   50    0      0.00      0.00
   21   29    1     -3.54      0.00
   20   30    2     -0.20      0.00
   19   31    3      0.11      0.00
   18   32    4     -0.75      0.00
  -25   52    4      1.57      0.00
  -26   52    3      1.33      0.00
  -27   52    2     -0.82      0.00
  -28   52    1      0.06      0.00
  -29   52    0     -1.06      0.00
   22   30    1     -1.62      0.00
   21   31    2      1.78      0.00
   20   32    3      1.93      0.00
  -28   54    2     -1.93      0.00
  -29   54    1      0.08      0.00
  -30   54    0     -1.94      0.00
   -8    7   12      1.09      0.00
   -7    6   11      0.41      0.00
   -6    5   10      2.12      0.00
   -5    4    9     -1.07      0.00
   -4    3    8      2.55      0.00
   -3    2    7      0.65      0.00
    1    1    6      3.86      0.00
    0    1    5     -4.91      0.00
    1    2    2     43.86      0.00
   -6    7    2     15.64      0.00
   -7    8    3      4.74      0.00
   -8    9    4     21.74      0.00
   -9   10    5      7.47      0.00
  -10   11    6      2.52      0.00
  -11   12    7     -1.03      0.00
  -12   13    8    -14.06      0.00
  -13   14    9      2.45      0.00
  -14   15   10     -0.55      0.00
  -15   16   11      1.30      0.00
  -16   17   12     -0.34      0.00
   -9    6   12      1.74      0.00
   -8    5   11     -2.86      0.00
   -7    4   10      1.61      0.00
    3    3    9     -0.90      0.00
    2    3    8     -1.61      0.00
    1    3    7      7.49      0.00
    0    3    6      5.40      0.00
   -1    3    5     -7.05      0.00
   -2    3    4      3.18      0.00
   -4    3    2     26.06      0.00
   -6    9    3     32.29      0.00
   -7   10    4      2.93      0.00
   -8   11    5      4.80      0.00
   -9   12    6     -1.04      0.00
  -10   13    7     -2.01      0.00
  -11   14    8     -7.49      0.00
  -12   15    9      3.65      0.00
  -13   16   10      0.82      0.00
  -14   17   11      0.09      0.00
  -15   18   12     -0.58      0.00
    5    5   12     -0.18      0.00
    4    5   11     -3.40      0.00
    3    5   10     -0.02      0.00
    2    5    9     -0.42      0.00
    1    5    8      1.91      0.00
    0    5    7      7.25      0.00
   -1    5    6      2.29      0.00
   -2    5    5      0.21      0.00
   -6    5    1     78.99      0.00
   -2    7    0     68.76      0.00
   -3    8    1     -0.28      0.00
   -6   11    4      0.76      0.00
   -7   12    5      8.56      0.00
   -8   13    6      2.42      0.00
   -9   14    7     -4.33      0.00
  -10   15    8     -4.06      0.00
  -11   16    9     -2.25      0.00
  -12   17   10      0.29      0.00
  -13   18   11      1.44      0.00
  -14   19   12     -1.52      0.00
    4    7   12      1.05      0.00
    3    7   11     -1.54      0.00
    2    7   10      0.57      0.00
    1    7    9     -0.20      0.00
    0    7    8      3.50      0.00
   -1    7    7      4.69      0.00
   -2    7    6      2.42      0.00
   -1    8    0     64.99      0.00
   -2    9    1     -1.43      0.00
   -3   10    2     -9.93      0.00
   -6   13    5      2.72      0.00
   -7   14    6      5.70      0.00
   -8   15    7     -5.11      0.00
   -9   16    8     -2.22      0.00
  -10   17    9     -1.90      0.00
  -11   18   10     -1.29      0.00
  -12   19   11      2.33      0.00
  -13   20   12      0.16      0.00
    3    9   12      3.20      0.00
    2    9   11     -0.99      0.00
    1    9   10     -0.08      0.00
    0    9    9      1.88      0.00
   -1    9    8      1.52      0.00
   -2    9    7      3.62      0.00
   -7    9    2      4.54      0.00
   -8    9    1     41.35      0.00
    0    9    0     47.31      0.00
   -1   10    1     -4.76      0.00
   -2   11    2     -5.83      0.00
   -3   12    3     -7.66      0.00
   -6   15    6      0.30      0.00
   -7   16    7     -0.78      0.00
   -8   17    8      2.45      0.00
   -9   18    9      2.49      0.00
  -10   19   10     -2.34      0.00
  -11   20   11     -0.74      0.00
    2   11   12      0.27      0.00
    1   11   11     -1.72      0.00
    0   11   10     -0.91      0.00
   -1   11    9      3.71      0.00
   -2   11    8     -0.02      0.00
   -7   11    3     13.20      0.00
   -8   11    2      0.79      0.00
   -9   11    1     -3.06      0.00
  -10   11    0    -16.17      0.00
    0   11    1    -13.06      0.00
   -1   12    2    -11.98      0.00
   -2   13    3    -10.34      0.00
   -3   14    4     -8.11      0.00
   -6   17    7      1.00      0.00
   -7   18    8      4.81      0.00
   -8   19    9     -1.17      0.00
   -9   20   10     -2.78      0.00
  -10   21   11     -1.86      0.00
    1   13   12     -1.12      0.00
    0   13   11      0.38      0.00
   -1   13   10     -0.10      0.00
   -2   13    9      1.40      0.00
   -7   13    4      2.75      0.00
   -8   13    3     -7.60      0.00
   -9   13    2      0.78      0.00
  -10   13    1     53.18      0.00
  -11   13    0    -21.15      0.00
    1   12    1    -15.57      0.00
    0   13    2    -16.97      0.00
   -1   14    3    -17.41      0.00
   -2   15    4      3.25      0.00
   -3   16    5     -3.12      0.00
   -6   19    8      3.63      0.00
   -7   20    9     -7.30      0.00
   -8   21   10     -0.83      0.00
   -9   22   11      2.12      0.00
    0   15   12      2.02      0.00
   -1   15   11      3.24      0.00
   -2   15   10     -0.66      0.00
   -7   15    5     -3.32      0.00
   -8   15    4      1.96      0.00
   -9   15    3    -11.26      0.00
  -10   15    2     11.57      0.00
  -11   15    1     31.75      0.00
  -12   15    0      2.59      0.00
    2   13    1     -1.36      0.00
    1   14    2     -4.44      0.00
    0   15    3     -6.38      0.00
   -1   16    4     -2.43      0.00
   -2   17    5      0.76      0.00
   -3   18    6     -0.62      0.00
   -6   21    9     -2.19      0.00
   -7   22   10      2.20      0.00
   -8   23   11      3.45      0.00
   -1   17   12      3.23      0.00
   -2   17   11      1.62      0.00
   -7   17    6      3.07      0.00
   -8   17    5     -2.92      0.00
   -9   17    4     -2.07      0.00
  -10   17    3     -5.82      0.00
  -11   17    2      3.76      0.00
  -12   17    1      5.44      0.00
  -13   17    0     -8.01      0.00
    3   14    1     -0.88      0.00
    2   15    2     -1.53      0.00
    1   16    3      2.15      0.00
    0   17    4     -5.84      0.00
   -1   18    5      6.72      0.00
   -2   19    6     -4.82      0.00
   -3   20    7     -1.21      0.00
   -6   23   10      0.72      0.00
   -7   24   11      1.11      0.00
   -7   19    7     -0.92      0.00
   -8   19    6      3.61      0.00
   -9   19    5     -0.72      0.00
  -10   19    4     -2.41      0.00
  -11   19    3     -0.25      0.00
  -12   19    2     -9.16      0.00
  -13   19    1     25.20      0.00
  -14   19    0     -9.64      0.00
    4   15    1    -16.97      0.00
    3   16    2      1.45      0.00
    2   17    3    -10.26      0.00
    1   18    4     -4.65      0.00
    0   19    5     -2.45      0.00
   -1   20    6      3.66      0.00
   -2   21    7     -3.51      0.00
   -3   22    8      1.39      0.00
   -6   25   11      0.68      0.00
   -7   21    8     -0.09      0.00
   -8   21    7      0.37      0.00
   -9   21    6      2.69      0.00
  -10   21    5      1.02      0.00
  -11   21    4     -1.20      0.00
  -12   21    3      2.22      0.00
  -13   21    2      3.98      0.00
  -14   21    1      6.22      0.00
  -15   21    0     11.70      0.00
    5   16    1     -7.95      0.00
    4   17    2      7.96      0.00
    3   18    3    -12.02      0.00
    2   19    4     -7.22      0.00
    1   20    5     -4.42      0.00
    0   21    6     -2.45      0.00
   -1   22    7     -1.17      0.00
   -2   23    8      1.76      0.00
   -3   24    9      1.73      0.00
   -7   23    9      1.99      0.00
   -8   23    8      1.14      0.00
   -9   23    7      1.17      0.00
  -10   23    6      1.06      0.00
  -11   23    5      2.52      0.00
  -12   23    4     -0.68      0.00
  -13   23    3     -4.67      0.00
  -14   23    2     10.32      0.00
  -15   23    1    -13.27      0.00
  -16   23    0     12.45      0.00
    6   17    1      8.65      0.00
    5   18    2      4.21      0.00
    4   19    3     -0.83      0.00
    3   20    4    -11.83      0.00
    2   21    5     10.36      0.00
    1   22    6     -8.35      0.00
    0   23    7     -0.71      0.00
   -1   24    8      0.13      0.00
   -2   25    9      4.28      0.00
   -3   26   10      2.22      0.00
   -7   25   10     -2.16      0.00
   -8   25    9      0.03      0.00
   -9   25    8      3.30      0.00
  -10   25    7      3.31      0.00
  -11   25    6      0.24      0.00
  -12   25    5      0.50      0.00
  -13   25    4      1.14      0.00
  -14   25    3    -10.56      0.00
  -15   25    2     -4.13      0.00
  -16   25    1      7.43      0.00
  -17   25    0     -4.38      0.00
    7   18    1      6.52      0.00
    6   19    2      0.24      0.00
    5   20    3     -5.11      0.00
    4   21    4     -8.02      0.00
    3   22    5      9.54      0.00
    2   23    6     -2.79      0.00
    1   24    7     -0.75      0.00
    0   25    8     -0.93      0.00
   -1   26    9     -0.03      0.00
   -2   27   10      4.71      0.00
   -7   27   11      0.13      0.00
   -8   27   10      0.06      0.00
   -9   27    9     -0.22      0.00
  -10   27    8      1.42      0.00
  -11   27    7      3.55      0.00
  -12   27    6      5.28      0.00
  -13   27    5      0.44      0.00
  -14   27    4      0.03      0.00
  -15   27    3     -4.01      0.00
  -16   27    2     -9.01      0.00
  -17   27    1      2.52      0.00
  -18   27    0     -1.06      0.00
    8   19    1     -0.27      0.00
    7   20    2     -1.92      0.00
    6   21    3     -6.34      0.00
    5   22    4      0.91      0.00
    4   23    5     -2.89      0.00
    3   24    6     -0.97      0.00
    2   25    7      0.39      0.00
    1   26    8     -0.37      0.00
    0   27    9     -0.37      0.00
   -1   28   10      6.28      0.00
   -9   29   10      1.14      0.00
  -10   29    9      1.57      0.00
  -11   29    8      0.39      0.00
  -12   29    7     -0.87      0.00
  -13   29    6      8.09      0.00
  -14   29    5      1.31      0.00
  -15   29    4     -0.26      0.00
  -16   29    3     -2.12      0.00
  -17   29    2     -0.02      0.00
  -18   29    1    -15.77      0.00
  -19   29    0      2.16      0.00
    9   20    1     -3.42      0.00
    8   21    2      2.12      0.00
    7   22    3     -1.88      0.00
    6   23    4      1.15      0.00
    5   24    5      1.31      0.00
    4   25    6     -0.69      0.00
    3   26    7      0.34      0.00
    2   27    8      0.34      0.00
    1   28    9      1.38      0.00
    0   29   10      2.56      0.00
  -10   31   10      0.63      0.00
  -11   31    9     -2.61      0.00
  -12   31    8      1.78      0.00
  -13   31    7     -1.54      0.00
  -14   31    6      2.28      0.00
  -15   31    5     -1.55      0.00
  -16   31    4      3.77      0.00
  -17   31    3     -2.92      0.00
  -18   31    2      2.59      0.00
  -19   31    1     -1.59      0.00
  -20   31    0     -3.95      0.00
   10   21    1     -3.58      0.00
    9   22    2      5.50      0.00
    8   23    3     -2.67      0.00
    7   24    4     -0.32      0.00
    6   25    5      4.54      0.00
    5   26    6      1.46      0.00
    4   27    7      1.29      0.00
    3   28    8     -0.19      0.00
    2   29    9     -0.05      0.00
  -11   33   10     -0.11      0.00
  -12   33    9     -3.16      0.00
  -13   33    8      0.94      0.00
  -14   33    7      0.98      0.00
  -15   33    6     -1.45      0.00
  -16   33    5      0.94      0.00
  -17   33    4      4.13      0.00
  -18   33    3      1.53      0.00
  -19   33    2      2.53      0.00
  -20   33    1      9.24      0.00
  -21   33    0      1.88      0.00
   11   22    1     -1.26      0.00
   10   23    2      1.70      0.00
    9   24    3      2.79      0.00
    8   25    4     -0.46      0.00
    7   26    5     -2.11      0.00
    6   27    6      1.79      0.00
    5   28    7      1.14      0.00
    4   29    8     -0.65      0.00
    3   30    9     -0.28      0.00
  -13   35    9     -1.25      0.00
  -14   35    8      0.47      0.00
  -15   35    7      2.02      0.00
  -16   35    6      0.04      0.00
  -17   35    5      2.40      0.00
  -18   35    4      3.43      0.00
  -19   35    3      0.10      0.00
  -20   35    2      4.73      0.00
  -21   35    1     -1.88      0.00
  -22   35    0      3.82      0.00
   12   23    1      1.90      0.00
   11   24    2      1.80      0.00
   10   25    3      2.70      0.00
    9   26    4     -1.27      0.00
    8   27    5     -0.40      0.00
    7   28    6      0.72      0.00
    6   29    7      2.35      0.00
    5   30    8      0.16      0.00
    4   31    9     -4.88      0.00
  -14   37    9     -0.79      0.00
  -15   37    8      0.27      0.00
  -16   37    7      1.03      0.00
  -17   37    6      0.59      0.00
  -18   37    5     -1.06      0.00
  -19   37    4      2.13      0.00
  -20   37    3     -1.58      0.00
  -21   37    2      0.95      0.00
  -22   37    1     -5.52      0.00
  -23   37    0     -1.84      0.00
   13   24    1      2.26      0.00
   12   25    2      1.38      0.00
   11   26    3     -3.50      0.00
   10   27    4      0.23      0.00
    9   28    5      3.55      0.00
    8   29    6      0.76      0.00
    7   30    7      1.93      0.00
    6   31    8      1.95      0.00
  -15   39    9      1.93      0.00
  -16   39    8     -1.11      0.00
  -17   39    7      0.06      0.00
  -18   39    6     -0.46      0.00
  -19   39    5      0.00      0.00
  -20   39    4     -2.56      0.00
  -21   39    3      1.42      0.00
  -22   39    2     -0.90      0.00
  -23   39    1     -1.14      0.00
  -24   39    0     -0.80      0.00
   14   25    1      1.56      0.00
   13   26    2     -2.45      0.00
   12   27    3     -0.45      0.00
   11   28    4      0.93      0.00
   10   29    5      0.58      0.00
    9   30    6      0.16      0.00
    8   31    7     -1.98      0.00
    7   32    8      3.14      0.00
  -17   41    8      1.00      0.00
  -18   41    7     -0.04      0.00
  -19   41    6     -0.26      0.00
  -20   41    5      0.09      0.00
  -21   41    4     -2.56      0.00
  -22   41    3      0.41      0.00
  -23   41    2      2.04      0.00
  -24   41    1     -2.80      0.00
  -25   41    0      1.53      0.00
   15   26    1      2.18      0.00
   14   27    2     -3.85      0.00
   13   28    3      3.53      0.00
   12   29    4      0.69      0.00
   11   30    5     -2.20      0.00
   10   31    6     -1.95      0.00
    9   32    7      0.41      0.00
  -19   43    7     -0.06      0.00
  -20   43    6      0.40      0.00
  -21   43    5     -1.10      0.00
  -22   43    4      0.21      0.00
  -23   43    3     -1.94      0.00
  -24   43    2      1.86      0.00
  -25   43    1     -1.82      0.00
  -26   43    0      0.79      0.00
   16   27    1      0.37      0.00
   15   28    2     -1.43      0.00
   14   29    3      1.36      0.00
   13   30    4     -0.83      0.00
   12   31    5     -0.85      0.00
   11   32    6      1.02      0.00
   10   33    7      2.64      0.00
  -20   45    7      1.02      0.00
  -21   45    6     -0.44      0.00
  -22   45    5      0.22      0.00
  -23   45    4     -0.18      0.00
  -24   45    3     -0.01      0.00
  -25   45    2     -0.04      0.00
  -26   45    1      1.42      0.00
  -27   45    0      0.67      0.00
   17   28    1      0.19      0.00
   16   29    2      1.15      0.00
   15   30    3     -3.94      0.00
   14   31    4     -1.45      0.00
   13   32    5     -0.21      0.00
   12   33    6      3.30      0.00
  -22   47    6     -1.08      0.00
  -23   47    5      1.36      0.00
  -24   47    4     -1.36      0.00
  -25   47    3      0.43      0.00
  -26   47    2     -0.68      0.00
  -27   47    1     -0.33      0.00
  -28   47    0      0.76      0.00
   18   29    1      0.32      0.00
   17   30    2     -0.94      0.00
   16   31    3     -6.10      0.00
   15   32    4     -1.94      0.00
   14   33    5     -2.85      0.00
   13   34    6     -1.12      0.00
  -24   49    5     -0.29      0.00
  -25   49    4      0.25      0.00
  -26   49    3     -0.72      0.00
  -27   49    2     -0.69      0.00
  -28   49    1     -0.06      0.00
  -29   49    0     -0.69      0.00
   19   30    1     -3.70      0.00
   18   31    2     -1.97      0.00
   17   32    3     -2.40      0.00
   16   33    4     -4.41      0.00
   15   34    5     -3.64      0.00
  -26   51    4      3.35      0.00
  -27   51    3      0.45      0.00
  -28   51    2     -0.69      0.00
  -29   51    1      1.66      0.00
  -30   51    0     -1.75      0.00
   20   31    1     -2.97      0.00
   19   32    2      0.59      0.00
   18   33    3      1.60      0.00
  -28   53    3     -0.35      0.00
  -29   53    2     -0.47      0.00
  -30   53    1      0.43      0.00
  -31   53    0     -1.36      0.00
   21   32    1      0.18      0.00
   -6    6   12      1.46      0.00
   -5    5   11      2.15      0.00
   -4    4   10      5.34      0.00
   -3    3    9     -0.78      0.00
   -2    2    8      3.58      0.00
   -1    1    7    -10.70      0.00
    0    0    6     16.00      0.00
   -7    7    1    164.01      0.00
   -9    9    3     -0.05      0.00
  -10   10    4      3.29      0.00
  -11   11    5      4.34      0.00
  -12   12    6     -1.77      0.00
  -13   13    7      1.75      0.00
  -14   14    8     -6.95      0.00
  -15   15    9      4.88      0.00
  -16   16   10     -2.88      0.00
  -17   17   11     -0.90      0.00
   -7    5   12      0.16      0.00
   -6    4   11      1.25      0.00
   -5    3   10      3.88      0.00
    2    2    9     -0.01      0.00
    1    2    8     -2.34      0.00
    0    2    7      2.41      0.00
   -1    2    6      3.41      0.00
    2    2    3    -13.21      0.00
    2    3    2    -29.95      0.00
   -8   10    3      7.88      0.00
   -9   11    4     -3.20      0.00
  -10   12    5     -1.86      0.00
  -11   13    6      0.33      0.00
  -12   14    7     -1.01      0.00
  -13   15    8      2.09      0.00
  -14   16    9      7.98      0.00
  -15   17   10     -1.21      0.00
  -16   18   11     -0.83      0.00
    4    4   12     -0.51      0.00
    3    4   11     -1.27      0.00
    2    4   10      0.78      0.00
    1    4    9      0.74      0.00
    0    4    8     -4.13      0.00
   -1    4    7      7.66      0.00
   -2    4    6     -4.28      0.00
   -3    4    5      8.37      0.00
   -5    4    3    -16.01      0.00
   -6    4    2    -25.00      0.00
   -7    4    1     20.40      0.00
   -8   12    4     -2.86      0.00
   -9   13    5     -1.10      0.00
  -10   14    6     -1.04      0.00
  -11   15    7     -0.29      0.00
  -12   16    8      2.01      0.00
  -13   17    9      3.26      0.00
  -14   18   10      0.30      0.00
  -15   19   11     -0.56      0.00
    3    6   12      0.30      0.00
    2    6   11     -3.15      0.00
    1    6   10      2.47      0.00
    0    6    9     -1.43      0.00
   -1    6    8      2.90      0.00
   -2    6    7     -5.35      0.00
   -3    6    6      4.11      0.00
   -7    6    2     15.92      0.00
   -3    9    0      4.85      0.00
   -4   10    1    -15.90      0.00
   -8   14    5      3.81      0.00
   -9   15    6     -2.99      0.00
  -10   16    7     -0.41      0.00
  -11   17    8     -5.84      0.00
  -12   18    9     -0.70      0.00
  -13   19   10     -1.11      0.00
  -14   20   11      0.47      0.00
    2    8   12      0.11      0.00
    1    8   11     -1.66      0.00
    0    8   10      2.06      0.00
   -1    8    9      0.06      0.00
   -2    8    8      2.54      0.00
   -3    8    7     -2.31      0.00
   -9    8    1     46.95      0.00
   -2   10    0     -0.21      0.00
   -3   11    1    -17.42      0.00
   -4   12    2     -4.80      0.00
   -8   16    6      1.96      0.00
   -9   17    7     -6.01      0.00
  -10   18    8     -2.24      0.00
  -11   19    9     -0.78      0.00
  -12   20   10     -1.53      0.00
  -13   21   11     -0.79      0.00
    1   10   12     -0.55      0.00
    0   10   11     -0.94      0.00
   -1   10   10      0.78      0.00
   -2   10    9      2.77      0.00
   -3   10    8     -2.95      0.00
   -9   10    2    -50.21      0.00
  -10   10    1    -34.88      0.00
   -1   11    0    -15.89      0.00
   -2   12    1    -22.07      0.00
   -3   13    2     12.72      0.00
   -4   14    3      5.99      0.00
   -8   18    7     -5.06      0.00
   -9   19    8      1.61      0.00
  -10   20    9      0.67      0.00
  -11   21   10     -2.27      0.00
  -12   22   11     -1.95      0.00
    0   12   12     -1.11      0.00
   -1   12   11      0.36      0.00
   -2   12   10      1.76      0.00
   -3   12    9     -3.02      0.00
   -9   12    3    -11.30      0.00
  -10   12    2     -9.75      0.00
  -11   12    1    -11.32      0.00
    0   12    0    -43.66      0.00
   -1   13    1    -13.80      0.00
   -2   14    2     -4.81      0.00
   -3   15    3     16.52      0.00
   -4   16    4      5.12      0.00
   -8   20    8     -0.95      0.00
   -9   21    9     -3.14      0.00
  -10   22   10     -1.23      0.00
  -11   23   11      0.08      0.00
   -1   14   12      0.31      0.00
   -2   14   11      3.20      0.00
   -3   14   10     -0.49      0.00
   -9   14    4      2.52      0.00
  -10   14    3     -7.92      0.00
  -11   14    2      6.03      0.00
  -12   14    1     20.21      0.00
  -13   14    0    -20.97      0.00
    0   14    1     -3.87      0.00
   -1   15    2     -3.28      0.00
   -2   16    3      9.34      0.00
   -3   17    4      5.86      0.00
   -4   18    5     -0.97      0.00
   -8   22    9     -4.40      0.00
   -9   23   10      2.67      0.00
  -10   24   11      0.96      0.00
   -2   16   12      2.38      0.00
   -3   16   11      3.01      0.00
   -9   16    5      2.49      0.00
  -10   16    4      4.29      0.00
  -11   16    3      8.44      0.00
  -12   16    2     -8.99      0.00
  -13   16    1     -7.60      0.00
  -14   16    0      4.12      0.00
    1   15    1     -1.84      0.00
    0   16    2      9.84      0.00
   -1   17    3      5.04      0.00
   -2   18    4      3.14      0.00
   -3   19    5     -0.85      0.00
   -4   20    6     -4.47      0.00
   -8   24   10      0.99      0.00
   -9   25   11     -0.01      0.00
   -3   18   12      4.20      0.00
   -9   18    6      4.64      0.00
  -10   18    5      0.15      0.00
  -11   18    4      1.64      0.00
  -12   18    3      5.64      0.00
  -13   18    2     -7.78      0.00
  -14   18    1      0.64      0.00
  -15   18    0    -14.58      0.00
    2   16    1    -11.91      0.00
    1   17    2      5.36      0.00
    0   18    3      6.34      0.00
   -1   19    4     -2.73      0.00
   -2   20    5      0.68      0.00
   -3   21    6     -0.74      0.00
   -4   22    7     -1.32      0.00
   -8   26   11      0.40      0.00
   -9   20    7     -4.79      0.00
  -10   20    6      2.56      0.00
  -11   20    5     -0.66      0.00
  -12   20    4      0.39      0.00
  -13   20    3      4.11      0.00
  -14   20    2     -0.21      0.00
  -15   20    1     18.54      0.00
  -16   20    0    -17.53      0.00
    3   17    1    -12.59      0.00
    2   18    2      5.01      0.00
    1   19    3     -1.78      0.00
    0   20    4     -6.11      0.00
   -1   21    5     -7.21      0.00
   -2   22    6      2.36      0.00
   -3   23    7     -2.51      0.00
   -4   24    8      1.37      0.00
   -9   22    8     -5.02      0.00
  -10   22    7      0.22      0.00
  -11   22    6     -1.48      0.00
  -12   22    5      0.36      0.00
  -13   22    4      2.11      0.00
  -14   22    3      6.95      0.00
  -15   22    2      1.90      0.00
  -16   22    1     -3.12      0.00
  -17   22    0      7.94      0.00
    4   18    1     -4.42      0.00
    3   19    2     10.60      0.00
    2   20    3     -1.53      0.00
    1   21    4     -6.50      0.00
    0   22    5      0.04      0.00
   -1   23    6     -6.58      0.00
   -2   24    7     -0.39      0.00
   -3   25    8      0.29      0.00
   -4   26    9      2.12      0.00
   -9   24    9     -0.37      0.00
  -10   24    8     -0.59      0.00
  -11   24    7      1.25      0.00
  -12   24    6     -3.00      0.00
  -13   24    5      0.98      0.00
  -14   24    4      6.13      0.00
  -15   24    3     -2.99      0.00
  -16   24    2      8.41      0.00
  -17   24    1     -7.53      0.00
  -18   24    0      5.70      0.00
    5   19    1      3.59      0.00
    4   20    2      3.14      0.00
    3   21    3      0.11      0.00
    2   22    4     -5.43      0.00
    1   23    5     17.17      0.00
    0   24    6     -8.53      0.00
   -1   25    7     -0.11      0.00
   -2   26    8     -0.49      0.00
   -3   27    9      1.52      0.00
   -4   28   10      2.11      0.00
   -9   26   10      0.80      0.00
  -10   26    9     -1.95      0.00
  -11   26    8      4.99      0.00
  -12   26    7      1.18      0.00
  -13   26    6      0.19      0.00
  -14   26    5      0.15      0.00
  -15   26    4      9.84      0.00
  -16   26    3     -5.32      0.00
  -17   26    2      4.25      0.00
  -18   26    1      7.61      0.00
  -19   26    0     -2.98      0.00
    6   20    1      4.83      0.00
    5   21    2     -6.44      0.00
    4   22    3     -1.41      0.00
    3   23    4     -1.29      0.00
    2   24    5      9.25      0.00
    1   25    6      0.86      0.00
    0   26    7     -0.61      0.00
   -1   27    8     -0.10      0.00
   -2   28    9      0.39      0.00
   -3   29   10      5.07      0.00
   -9   28   11      2.14      0.00
  -10   28   10      2.22      0.00
  -11   28    9     -0.20      0.00
  -12   28    8      1.85      0.00
  -13   28    7      2.01      0.00
  -14   28    6      6.62      0.00
  -15   28    5      0.49      0.00
  -16   28    4      4.84      0.00
  -17   28    3      4.18      0.00
  -18   28    2     -5.74      0.00
  -19   28    1     -0.81      0.00
  -20   28    0      5.21      0.00
    7   21    1     -1.26      0.00
    6   22    2     -0.16      0.00
    5   23    3     -0.11      0.00
    4   24    4      1.90      0.00
    3   25    5     -0.58      0.00
    2   26    6      2.27      0.00
    1   27    7      0.50      0.00
    0   28    8      2.09      0.00
   -1   29    9      2.05      0.00
   -2   30   10      3.96      0.00
  -11   30   10      0.59      0.00
  -12   30    9      1.71      0.00
  -13   30    8      0.23      0.00
  -14   30    7     -0.09      0.00
  -15   30    6      4.28      0.00
  -16   30    5      1.10      0.00
  -17   30    4      0.11      0.00
  -18   30    3      2.02      0.00
  -19   30    2     -1.46      0.00
  -20   30    1     -8.60      0.00
  -21   30    0      1.04      0.00
    8   22    1     -0.59      0.00
    7   23    2      3.61      0.00
    6   24    3     -1.44      0.00
    5   25    4      2.54      0.00
    4   26    5      3.33      0.00
    3   27    6     -0.64      0.00
    2   28    7      2.23      0.00
    1   29    8      0.64      0.00
    0   30    9      2.04      0.00
  -12   32   10      1.70      0.00
  -13   32    9     -1.09      0.00
  -14   32    8      1.71      0.00
  -15   32    7     -1.84      0.00
  -16   32    6     -0.94      0.00
  -17   32    5      0.01      0.00
  -18   32    4      2.36      0.00
  -19   32    3     -3.26      0.00
  -20   32    2      3.85      0.00
  -21   32    1      3.81      0.00
  -22   32    0     -4.36      0.00
    9   23    1     -0.85      0.00
    8   24    2     -1.05      0.00
    7   25    3      1.27      0.00
    6   26    4     -1.51      0.00
    5   27    5     -0.58      0.00
    4   28    6      1.96      0.00
    3   29    7      0.81      0.00
    2   30    8      0.57      0.00
    1   31    9      1.38      0.00
  -13   34   10      2.55      0.00
  -14   34    9     -1.05      0.00
  -15   34    8     -0.35      0.00
  -16   34    7     -0.11      0.00
  -17   34    6     -1.27      0.00
  -18   34    5      0.13      0.00
  -19   34    4      1.58      0.00
  -20   34    3     -1.68      0.00
  -21   34    2      3.01      0.00
  -22   34    1      2.75      0.00
  -23   34    0      1.22      0.00
   10   24    1     -4.80      0.00
    9   25    2      1.55      0.00
    8   26    3      1.19      0.00
    7   27    4     -3.68      0.00
    6   28    5     -5.57      0.00
    5   29    6      2.71      0.00
    4   30    7      0.71      0.00
    3   31    8      2.41      0.00
    2   32    9     -1.97      0.00
  -15   36    9     -1.10      0.00
  -16   36    8     -1.56      0.00
  -17   36    7      0.37      0.00
  -18   36    6     -2.51      0.00
  -19   36    5     -0.71      0.00
  -20   36    4      0.50      0.00
  -21   36    3     -2.24      0.00
  -22   36    2      0.15      0.00
  -23   36    1     -8.70      0.00
  -24   36    0      0.73      0.00
   11   25    1     -2.20      0.00
   10   26    2      1.58      0.00
    9   27    3     -4.36      0.00
    8   28    4      0.75      0.00
    7   29    5     -2.04      0.00
    6   30    6      0.72      0.00
    5   31    7      4.80      0.00
    4   32    8      1.50      0.00
  -16   38    9     -4.40      0.00
  -17   38    8     -1.61      0.00
  -18   38    7     -1.16      0.00
  -19   38    6     -1.94      0.00
  -20   38    5     -2.25      0.00
  -21   38    4      0.31      0.00
  -22   38    3     -0.68      0.00
  -23   38    2     -3.16      0.00
  -24   38    1     -4.42      0.00
  -25   38    0     -3.93      0.00
   12   26    1      3.03      0.00
   11   27    2     -3.27      0.00
   10   28    3     -2.40      0.00
    9   29    4      1.01      0.00
    8   30    5      2.42      0.00
    7   31    6     -0.64      0.00
    6   32    7      2.40      0.00
    5   33    8      4.74      0.00
  -18   40    8     -1.87      0.00
  -19   40    7     -0.46      0.00
  -20   40    6     -0.42      0.00
  -21   40    5     -1.11      0.00
  -22   40    4     -0.56      0.00
  -23   40    3      1.62      0.00
  -24   40    2     -2.30      0.00
  -25   40    1      1.66      0.00
  -26   40    0     -1.88      0.00
   13   27    1      4.35      0.00
   12   28    2     -2.46      0.00
   11   29    3      2.62      0.00
   10   30    4     -1.05      0.00
    9   31    5      1.09      0.00
    8   32    6     -1.89      0.00
    7   33    7     -0.33      0.00
  -19   42    8     -0.33      0.00
  -20   42    7      0.42      0.00
  -21   42    6     -0.57      0.00
  -22   42    5     -0.09      0.00
  -23   42    4      0.37      0.00
  -24   42    3     -1.78      0.00
  -25   42    2      1.46      0.00
  -26   42    1     -0.41      0.00
  -27   42    0      1.87      0.00
   14   28    1      0.59      0.00
   13   29    2      0.64      0.00
   12   30    3      2.34      0.00
   11   31    4     -0.65      0.00
   10   32    5     -1.55      0.00
    9   33    6     -0.17      0.00
    8   34    7      3.54      0.00
  -21   44    7      1.10      0.00
  -22   44    6     -1.52      0.00
  -23   44    5      0.35      0.00
  -24   44    4      1.42      0.00
  -25   44    3     -2.43      0.00
  -26   44    2      2.34      0.00
  -27   44    1     -1.14      0.00
  -28   44    0      1.53      0.00
   15   29    1     -0.54      0.00
   14   30    2      1.06      0.00
   13   31    3     -1.65      0.00
   12   32    4     -1.23      0.00
   11   33    5     -0.34      0.00
   10   34    6      2.75      0.00
  -22   46    7      1.14      0.00
  -23   46    6     -1.74      0.00
  -24   46    5      1.58      0.00
  -25   46    4      0.97      0.00
  -26   46    3      0.33      0.00
  -27   46    2     -0.79      0.00
  -28   46    1     -1.21      0.00
  -29   46    0      1.67      0.00
   16   30    1      0.88      0.00
   15   31    2     -1.49      0.00
   14   32    3     -3.70      0.00
   13   33    4     -1.69      0.00
   12   34    5     -2.55      0.00
   11   35    6      0.84      0.00
  -24   48    6      1.04      0.00
  -25   48    5      2.13      0.00
  -26   48    4     -1.08      0.00
  -27   48    3     -0.07      0.00
  -28   48    2     -1.83      0.00
  -29   48    1     -1.09      0.00
  -30   48    0      0.76      0.00
   17   31    1     -2.32      0.00
   16   32    2     -2.03      0.00
   15   33    3     -2.40      0.00
   14   34    4     -3.05      0.00
   13   35    5     -5.08      0.00
  -26   50    5     -0.31      0.00
  -27   50    4      0.51      0.00
  -28   50    3     -1.06      0.00
  -29   50    2     -0.60      0.00
  -30   50    1      1.26      0.00
  -31   50    0     -1.75      0.00
   18   32    1     -2.63      0.00
   17   33    2     -0.29      0.00
   16   34    3      0.65      0.00
   15   35    4     -1.94      0.00
  -28   52    4      2.72      0.00
  -29   52    3     -1.14      0.00
  -30   52    2     -0.45      0.00
  -31   52    1      0.94      0.00
  -32   52    0     -0.31      0.00
   19   33    1      0.78      0.00
   18   34    2      0.88      0.00
  -31   54    2      0.10      0.00
  -32   54    1     -0.59      0.00
  -33   54    0      1.59      0.00
   -5    4   12     -0.23      0.00
   -4    3   11     -0.48      0.00
   -3    2   10      4.36      0.00
    1    1    9     -0.03      0.00
    0    1    8      0.72      0.00
    1    4    3     -5.86      0.00
  -10   11    3     -2.26      0.00
  -11   12    4     -2.01      0.00
  -12   13    5     -2.81      0.00
  -13   14    6      4.92      0.00
  -14   15    7     -0.54      0.00
  -15   16    8      4.95      0.00
  -16   17    9      6.42      0.00
  -17   18   10     -2.77      0.00
  -18   19   11     -0.25      0.00
    3    3   12     -1.54      0.00
    2    3   11     -0.32      0.00
    1    3   10     -0.70      0.00
    0    3    9      1.70      0.00
   -1    3    8     -2.01      0.00
   -2    3    7      1.52      0.00
   -5    3    4     -6.69      0.00
    3    3    3     11.28      0.00
    3    4    2    -43.93      0.00
  -10   13    4     -6.55      0.00
  -11   14    5      1.95      0.00
  -12   15    6      5.03      0.00
  -13   16    7      3.44      0.00
  -14   17    8     10.18      0.00
  -15   18    9      4.82      0.00
  -16   19   10      0.61      0.00
  -17   20   11      0.02      0.00
    2    5   12     -0.29      0.00
    1    5   11     -3.20      0.00
    0    5   10      0.05      0.00
   -1    5    9      0.29      0.00
   -2    5    8     -1.02      0.00
   -3    5    7     -6.12      0.00
   -4    5    6     -4.61      0.00
   -6    5    4      9.51      0.00
   -7    5    3     19.63      0.00
   -8    5    2     -3.75      0.00
   -9    5    1      1.10      0.00
  -10   15    5      5.59      0.00
  -11   16    6     -0.76      0.00
  -12   17    7      7.97      0.00
  -13   18    8     -0.61      0.00
  -14   19    9      1.96      0.00
  -15   20   10      0.69      0.00
  -16   21   11      0.80      0.00
    1    7   12     -1.01      0.00
    0    7   11     -3.52      0.00
   -1    7   10      1.88      0.00
   -2    7    9     -1.26      0.00
   -3    7    8      2.74      0.00
   -4    7    7    -14.29      0.00
   -8    7    3      6.88      0.00
   -9    7    2      5.70      0.00
  -10    7    1     -0.70      0.00
   -4   11    0    -15.61      0.00
   -5   12    1    -35.18      0.00
  -10   17    6     -0.47      0.00
  -11   18    7      0.87      0.00
  -12   19    8     -5.06      0.00
  -13   20    9     -1.75      0.00
  -14   21   10      0.47      0.00
  -15   22   11      0.09      0.00
    0    9   12     -3.19      0.00
   -1    9   11     -1.56      0.00
   -2    9   10      1.11      0.00
   -3    9    9      2.17      0.00
   -4    9    8     -1.41      0.00
  -10    9    2    -45.77      0.00
  -11    9    1     -3.72      0.00
   -3   12    0    -13.52      0.00
   -4   13    1    -19.29      0.00
   -5   14    2      6.03      0.00
  -10   19    7     -8.01      0.00
  -11   20    8      1.68      0.00
  -12   21    9     -1.64      0.00
  -13   22   10      0.47      0.00
  -14   23   11     -1.00      0.00
   -1   11   12     -1.51      0.00
   -2   11   11     -0.13      0.00
   -3   11   10      1.82      0.00
   -4   11    9     -1.24      0.00
  -12   11    1    -12.05      0.00
   -2   13    0    -21.33      0.00
   -3   14    1     -3.94      0.00
   -4   15    2     10.04      0.00
   -5   16    3      7.10      0.00
  -10   21    8     -0.89      0.00
  -11   22    9      1.29      0.00
  -12   23   10     -1.03      0.00
  -13   24   11      0.65      0.00
   -2   13   12      0.79      0.00
   -3   13   11      1.75      0.00
   -4   13   10      1.70      0.00
  -11   13    3     -1.78      0.00
  -12   13    2     29.67      0.00
  -13   13    1      3.86      0.00
   -1   14    0    -16.31      0.00
   -2   15    1     10.29      0.00
   -3   16    2     -3.17      0.00
   -4   17    3     14.29      0.00
   -5   18    4     -4.22      0.00
  -10   23    9     -0.07      0.00
  -11   24   10      2.20      0.00
  -12   25   11      0.65      0.00
   -3   15   12      0.45      0.00
   -4   15   11      2.20      0.00
  -11   15    4      0.44      0.00
  -12   15    3      7.78      0.00
  -13   15    2      3.94      0.00
  -14   15    1      5.78      0.00
    0   15    0     12.91      0.00
   -1   16    1     13.55      0.00
   -2   17    2      1.64      0.00
   -3   18    3     -4.95      0.00
   -4   19    4      0.56      0.00
   -5   20    5     -4.14      0.00
  -10   25   10      3.74      0.00
  -11   26   11     -0.18      0.00
   -4   17   12      1.28      0.00
  -11   17    5      4.29      0.00
  -12   17    4      0.18      0.00
  -13   17    3      8.54      0.00
  -14   17    2    -12.61      0.00
  -15   17    1     -5.98      0.00
  -16   17    0     17.86      0.00
    0   17    1     -3.84      0.00
   -1   18    2      7.26      0.00
   -2   19    3     -8.64      0.00
   -3   20    4      0.95      0.00
   -4   21    5     -0.92      0.00
   -5   22    6      0.32      0.00
  -10   27   11      2.25      0.00
  -11   19    6      3.77      0.00
  -12   19    5     -3.00      0.00
  -13   19    4     -5.84      0.00
  -14   19    3      2.22      0.00
  -15   19    2      7.43      0.00
  -16   19    1      3.93      0.00
  -17   19    0     -9.07      0.00
    1   18    1     -8.01      0.00
    0   19    2     -2.58      0.00
   -1   20    3     -1.55      0.00
   -2   21    4     -9.38      0.00
   -3   22    5     -0.01      0.00
   -4   23    6      1.12      0.00
   -5   24    7      1.77      0.00
  -11   21    7     -3.10      0.00
  -12   21    6      0.17      0.00
  -13   21    5     -4.13      0.00
  -14   21    4     -3.93      0.00
  -15   21    3      2.30      0.00
  -16   21    2      2.60      0.00
  -17   21    1     10.34      0.00
  -18   21    0    -10.22      0.00
    2   19    1     -0.87      0.00
    1   20    2     -1.04      0.00
    0   21    3     -0.40      0.00
   -1   22    4    -11.99      0.00
   -2   23    5     -7.64      0.00
   -3   24    6      0.40      0.00
   -4   25    7     -0.09      0.00
   -5   26    8      0.13      0.00
  -11   23    8     -0.86      0.00
  -12   23    7      1.35      0.00
  -13   23    6     -2.79      0.00
  -14   23    5     -2.41      0.00
  -15   23    4      1.38      0.00
  -16   23    3      3.10      0.00
  -17   23    2     -3.04      0.00
  -18   23    1     -3.73      0.00
  -19   23    0      3.70      0.00
    3   20    1     -2.15      0.00
    2   21    2      6.81      0.00
    1   22    3     -1.26      0.00
    0   23    4     -2.74      0.00
   -1   24    5      1.31      0.00
   -2   25    6     -5.52      0.00
   -3   26    7      0.55      0.00
   -4   27    8      0.60      0.00
   -5   28    9     -0.71      0.00
  -11   25    9      0.23      0.00
  -12   25    8      3.74      0.00
  -13   25    7     -1.89      0.00
  -14   25    6     -1.12      0.00
  -15   25    5      0.00      0.00
  -16   25    4      5.61      0.00
  -17   25    3     -0.13      0.00
  -18   25    2      8.87      0.00
  -19   25    1     -5.54      0.00
  -20   25    0      1.05      0.00
    4   21    1     -2.07      0.00
    3   22    2     -3.13      0.00
    2   23    3      1.81      0.00
    1   24    4     -0.14      0.00
    0   25    5     11.66      0.00
   -1   26    6     -2.85      0.00
   -2   27    7      0.31      0.00
   -3   28    8     -2.50      0.00
   -4   29    9     -0.70      0.00
   -5   30   10     -0.70      0.00
  -11   27   10      2.35      0.00
  -12   27    9     -1.47      0.00
  -13   27    8      4.08      0.00
  -14   27    7     -0.55      0.00
  -15   27    6      2.49      0.00
  -16   27    5      0.53      0.00
  -17   27    4      8.65      0.00
  -18   27    3      1.45      0.00
  -19   27    2      2.17      0.00
  -20   27    1      5.21      0.00
  -21   27    0     -0.40      0.00
    5   22    1     -1.27      0.00
    4   23    2     -3.75      0.00
    3   24    3      3.49      0.00
    2   25    4     -4.75      0.00
    1   26    5      5.08      0.00
    0   27    6      3.49      0.00
   -1   28    7     -0.95      0.00
   -2   29    8     -0.59      0.00
   -3   30    9     -1.28      0.00
   -4   31   10      0.35      0.00
  -12   29   10      0.88      0.00
  -13   29    9      1.15      0.00
  -14   29    8     -0.01      0.00
  -15   29    7      2.96      0.00
  -16   29    6      2.21      0.00
  -17   29    5      0.95      0.00
  -18   29    4      2.52      0.00
  -19   29    3      5.36      0.00
  -20   29    2     -8.22      0.00
  -21   29    1     -0.95      0.00
  -22   29    0      3.29      0.00
    6   23    1      1.89      0.00
    5   24    2      3.24      0.00
    4   25    3     -0.16      0.00
    3   26    4     -0.58      0.00
    2   27    5      0.78      0.00
    1   28    6      0.07      0.00
    0   29    7      0.30      0.00
   -1   30    8     -1.00      0.00
   -2   31    9     -1.60      0.00
  -13   31   10      1.31      0.00
  -14   31    9      3.10      0.00
  -15   31    8      0.32      0.00
  -16   31    7     -0.42      0.00
  -17   31    6     -2.03      0.00
  -18   31    5      2.04      0.00
  -19   31    4     -2.11      0.00
  -20   31    3     -1.27      0.00
  -21   31    2      0.90      0.00
  -22   31    1     -4.82      0.00
  -23   31    0      0.79      0.00
    7   24    1      3.77      0.00
    6   25    2     -2.14      0.00
    5   26    3      1.55      0.00
    4   27    4      1.19      0.00
    3   28    5      1.21      0.00
    2   29    6     -1.98      0.00
    1   30    7     -1.56      0.00
    0   31    8     -2.72      0.00
   -1   32    9     -0.36      0.00
  -14   33   10      4.22      0.00
  -15   33    9      1.47      0.00
  -16   33    8      1.96      0.00
  -17   33    7     -2.05      0.00
  -18   33    6     -2.13      0.00
  -19   33    5     -1.29      0.00
  -20   33    4      0.27      0.00
  -21   33    3     -6.30      0.00
  -22   33    2      7.10      0.00
  -23   33    1      2.84      0.00
  -24   33    0     -0.60      0.00
    8   25    1     -0.70      0.00
    7   26    2     -0.60      0.00
    6   27    3      1.18      0.00
    5   28    4     -2.43      0.00
    4   29    5     -3.25      0.00
    3   30    6     -0.20      0.00
    2   31    7     -4.08      0.00
    1   32    8      1.28      0.00
    0   33    9     -1.57      0.00
  -16   35    9      2.25      0.00
  -17   35    8      0.36      0.00
  -18   35    7     -0.62      0.00
  -19   35    6     -2.41      0.00
  -20   35    5     -2.88      0.00
  -21   35    4     -0.83      0.00
  -22   35    3     -2.71      0.00
  -23   35    2      1.17      0.00
  -24   35    1      0.41      0.00
  -25   35    0      1.89      0.00
    9   26    1     -2.97      0.00
    8   27    2      4.77      0.00
    7   28    3     -4.52      0.00
    6   29    4      1.06      0.00
    5   30    5     -7.26      0.00
    4   31    6      0.96      0.00
    3   32    7      0.35      0.00
    2   33    8     -0.31      0.00
  -17   37    9      0.38      0.00
  -18   37    8      0.09      0.00
  -19   37    7     -1.12      0.00
  -20   37    6     -3.81      0.00
  -21   37    5     -2.31      0.00
  -22   37    4     -1.54      0.00
  -23   37    3     -0.09      0.00
  -24   37    2     -2.86      0.00
  -25   37    1     -1.20      0.00
  -26   37    0      0.58      0.00
   10   27    1     -0.65      0.00
    9   28    2      0.05      0.00
    8   29    3     -2.61      0.00
    7   30    4      2.25      0.00
    6   31    5     -2.17      0.00
    5   32    6      0.77      0.00
    4   33    7      3.64      0.00
    3   34    8     -1.81      0.00
  -18   39    9     -3.33      0.00
  -19   39    8      0.93      0.00
  -20   39    7     -0.18      0.00
  -21   39    6     -1.61      0.00
  -22   39    5     -2.88      0.00
  -23   39    4      0.78      0.00
  -24   39    3      1.65      0.00
  -25   39    2     -1.88      0.00
  -26   39    1      5.85      0.00
  -27   39    0     -1.12      0.00
   11   28    1      3.47      0.00
   10   29    2     -2.52      0.00
    9   30    3      0.79      0.00
    8   31    4     -0.99      0.00
    7   32    5      3.71      0.00
    6   33    6     -1.80      0.00
    5   34    7     -0.06      0.00
    4   35    8      3.74      0.00
  -20   41    8     -1.30      0.00
  -21   41    7      2.41      0.00
  -22   41    6     -0.30      0.00
  -23   41    5     -1.03      0.00
  -24   41    4      0.30      0.00
  -25   41    3      0.83      0.00
  -26   41    2      0.20      0.00
  -27   41    1      7.30      0.00
  -28   41    0      0.70      0.00
   12   29    1      2.02      0.00
   11   30    2      2.01      0.00
   10   31    3     -0.05      0.00
    9   32    4     -0.97      0.00
    8   33    5     -0.23      0.00
    7   34    6     -0.07      0.00
    6   35    7     -1.83      0.00
  -21   43    8     -2.82      0.00
  -22   43    7      2.31      0.00
  -23   43    6     -0.46      0.00
  -24   43    5     -0.06      0.00
  -25   43    4     -0.41      0.00
  -26   43    3     -1.30      0.00
  -27   43    2      2.40      0.00
  -28   43    1      1.29      0.00
  -29   43    0      1.60      0.00
   13   30    1     -1.61      0.00
   12   31    2      2.82      0.00
   11   32    3     -1.18      0.00
   10   33    4     -1.30      0.00
    9   34    5     -2.16      0.00
    8   35    6      2.21      0.00
  -23   45    7      1.07      0.00
  -24   45    6     -0.99      0.00
  -25   45    5      0.46      0.00
  -26   45    4      1.90      0.00
  -27   45    3     -1.70      0.00
  -28   45    2      1.14      0.00
  -29   45    1     -2.62      0.00
  -30   45    0      1.87      0.00
   14   31    1      0.16      0.00
   13   32    2     -1.71      0.00
   12   33    3     -0.49      0.00
   11   34    4     -4.02      0.00
   10   35    5     -0.98      0.00
    9   36    6     -0.51      0.00
  -25   47    6      1.51      0.00
  -26   47    5      1.48      0.00
  -27   47    4      0.57      0.00
  -28   47    3     -1.71      0.00
  -29   47    2     -1.76      0.00
  -30   47    1     -1.96      0.00
  -31   47    0      1.69      0.00
   15   32    1     -0.30      0.00
   14   33    2     -1.94      0.00
   13   34    3      0.15      0.00
   12   35    4     -4.76      0.00
   11   36    5     -5.03      0.00
  -27   49    5      0.22      0.00
  -28   49    4     -2.95      0.00
  -29   49    3     -1.70      0.00
  -30   49    2     -0.55      0.00
  -31   49    1     -0.80      0.00
  -32   49    0     -0.60      0.00
   16   33    1     -1.72      0.00
   15   34    2      0.24      0.00
   14   35    3     -0.40      0.00
   13   36    4     -1.37      0.00
  -29   51    4     -1.21      0.00
  -30   51    3     -2.60      0.00
  -31   51    2      0.20      0.00
  -32   51    1     -0.15      0.00
  -33   51    0     -0.54      0.00
   17   34    1      0.29      0.00
   16   35    2     -1.22      0.00
   15   36    3      1.17      0.00
  -31   53    3     -2.54      0.00
  -32   53    2     -1.53      0.00
  -33   53    1     -0.14      0.00
  -34   53    0      1.81      0.00
   18   35    1     -1.40      0.00
   -3    3   12     -0.86      0.00
   -2    2   11     -2.75      0.00
   -1    1   10      0.26      0.00
    0    0    9     -0.50      0.00
  -12   12    3      8.98      0.00
  -13   13    4     11.19      0.00
  -14   14    5    -14.19      0.00
  -15   15    6      5.18      0.00
  -16   16    7    -10.50      0.00
  -17   17    8     -5.42      0.00
  -18   18    9     -1.82      0.00
  -19   19   10      0.04      0.00
  -20   20   11      0.85      0.00
    2    2   12     -0.74      0.00
    1    2   11     -3.34      0.00
    0    2   10     -1.02      0.00
   -1    2    9      0.12      0.00
    2    4    4    -12.44      0.00
    2    5    3     -9.16      0.00
  -12   14    4      2.54      0.00
  -13   15    5      0.40      0.00
  -14   16    6      3.35      0.00
  -15   17    7     -2.90      0.00
  -16   18    8      1.12      0.00
  -17   19    9      0.38      0.00
  -18   20   10      1.03      0.00
  -19   21   11      0.73      0.00
    1    4   12      0.49      0.00
    0    4   11     -3.65      0.00
   -1    4   10     -2.31      0.00
   -2    4    9      0.39      0.00
   -3    4    8      2.73      0.00
   -6    4    5     -0.41      0.00
   -7    4    4    -13.06      0.00
    4    4    3     24.04      0.00
    4    5    2     -8.57      0.00
  -12   16    5     11.25      0.00
  -13   17    6      1.80      0.00
  -14   18    7      6.25      0.00
  -15   19    8      1.55      0.00
  -16   20    9      2.25      0.00
  -17   21   10      3.00      0.00
  -18   22   11      1.04      0.00
    0    6   12     -0.12      0.00
   -1    6   11     -2.75      0.00
   -2    6   10     -2.27      0.00
   -3    6    9     -0.37      0.00
   -4    6    8      0.59      0.00
   -5    6    7     -5.08      0.00
   -7    6    5     -4.97      0.00
   -8    6    4     18.43      0.00
   -9    6    3     28.24      0.00
  -10    6    2     11.91      0.00
  -11    6    1    -31.76      0.00
  -12   18    6      4.04      0.00
  -13   19    7      2.94      0.00
  -14   20    8     -1.98      0.00
  -15   21    9      0.32      0.00
  -16   22   10      2.33      0.00
  -17   23   11      1.10      0.00
   -1    8   12     -1.73      0.00
   -2    8   11     -2.55      0.00
   -3    8   10     -1.51      0.00
   -4    8    9      0.76      0.00
   -5    8    8      3.26      0.00
   -9    8    4     22.72      0.00
  -10    8    3      3.40      0.00
  -11    8    2      0.08      0.00
  -12    8    1      1.63      0.00
   -5   13    0     35.96      0.00
   -6   14    1     -4.00      0.00
  -12   20    7     -3.39      0.00
  -13   21    8      1.29      0.00
  -14   22    9     -1.14      0.00
  -15   23   10      1.06      0.00
  -16   24   11     -0.12      0.00
   -2   10   12     -1.18      0.00
   -3   10   11     -2.09      0.00
   -4   10   10      0.11      0.00
   -5   10    9      1.07      0.00
  -11   10    3     -2.91      0.00
  -12   10    2     -6.81      0.00
  -13   10    1     33.68      0.00
   -4   14    0      6.37      0.00
   -5   15    1     19.26      0.00
   -6   16    2      7.39      0.00
  -12   22    8      4.60      0.00
  -13   23    9      0.43      0.00
  -14   24   10     -0.66      0.00
  -15   25   11      0.92      0.00
   -3   12   12      2.37      0.00
   -4   12   11     -0.94      0.00
   -5   12   10     -0.46      0.00
  -13   12    2     28.42      0.00
  -14   12    1     20.74      0.00
   -3   15    0      0.12      0.00
   -4   16    1     18.92      0.00
   -5   17    2      9.32      0.00
   -6   18    3     -1.34      0.00
  -12   24    9      1.79      0.00
  -13   25   10      0.25      0.00
  -14   26   11      1.75      0.00
   -4   14   12      2.96      0.00
   -5   14   11      0.28      0.00
  -13   14    3      8.10      0.00
  -14   14    2     26.06      0.00
  -15   14    1     10.03      0.00
   -2   16    0     10.48      0.00
   -3   17    1     21.15      0.00
   -4   18    2     -0.75      0.00
   -5   19    3    -10.69      0.00
   -6   20    4     -8.53      0.00
  -12   26   10      2.13      0.00
  -13   27   11      0.69      0.00
   -5   16   12      1.08      0.00
  -13   16    4      2.16      0.00
  -14   16    3     -1.34      0.00
  -15   16    2     -3.49      0.00
  -16   16    1      9.63      0.00
   -1   17    0     20.56      0.00
   -2   18    1      9.44      0.00
   -3   19    2      0.85      0.00
   -4   20    3    -19.04      0.00
   -5   21    4      0.11      0.00
   -6   22    5     -2.56      0.00
  -12   28   11      2.61      0.00
  -13   18    5      4.81      0.00
  -14   18    4     -3.62      0.00
  -15   18    3     -0.71      0.00
  -16   18    2      6.95      0.00
  -17   18    1      1.39      0.00
    0   18    0     14.63      0.00
   -1   19    1     -4.78      0.00
   -2   20    2      2.71      0.00
   -3   21    3    -11.11      0.00
   -4   22    4     -3.28      0.00
   -5   23    5      3.70      0.00
   -6   24    6     -1.41      0.00
  -13   20    6      7.66      0.00
  -14   20    5     -1.68      0.00
  -15   20    4     -7.21      0.00
  -16   20    3     -1.34      0.00
  -17   20    2     16.03      0.00
  -18   20    1      1.60      0.00
  -19   20    0      1.79      0.00
    0   20    1      5.89      0.00
   -1   21    2     -4.15      0.00
   -2   22    3     -1.99      0.00
   -3   23    4    -15.79      0.00
   -4   24    5     -1.51      0.00
   -5   25    6     -1.40      0.00
   -6   26    7      1.95      0.00
  -13   22    7     -2.33      0.00
  -14   22    6      3.28      0.00
  -15   22    5      1.10      0.00
  -16   22    4     -5.11      0.00
  -17   22    3     -5.64      0.00
  -18   22    2     -3.65      0.00
  -19   22    1      4.12      0.00
  -20   22    0     -0.86      0.00
    1   21    1     12.76      0.00
    0   22    2      2.41      0.00
   -1   23    3     -2.70      0.00
   -2   24    4    -10.08      0.00
   -3   25    5    -11.36      0.00
   -4   26    6     -1.48      0.00
   -5   27    7      1.08      0.00
   -6   28    8      3.77      0.00
  -13   24    8      4.49      0.00
  -14   24    7     -3.11      0.00
  -15   24    6      1.18      0.00
  -16   24    5      2.86      0.00
  -17   24    4     -4.17      0.00
  -18   24    3     -1.08      0.00
  -19   24    2     -8.44      0.00
  -20   24    1     -6.03      0.00
  -21   24    0      2.43      0.00
    2   22    1      0.72      0.00
    1   23    2      3.71      0.00
    0   24    3     -0.59      0.00
   -1   25    4      0.95      0.00
   -2   26    5     -6.69      0.00
   -3   27    6     -2.54      0.00
   -4   28    7      0.83      0.00
   -5   29    8      0.20      0.00
   -6   30    9      1.58      0.00
  -13   26    9     -0.41      0.00
  -14   26    8      2.70      0.00
  -15   26    7     -3.69      0.00
  -16   26    6      3.36      0.00
  -17   26    5      2.69      0.00
  -18   26    4     -1.93      0.00
  -19   26    3     -0.44      0.00
  -20   26    2      2.04      0.00
  -21   26    1     -5.29      0.00
  -22   26    0     -1.79      0.00
    3   23    1     -6.60      0.00
    2   24    2     -2.29      0.00
    1   25    3      3.87      0.00
    0   26    4     -7.93      0.00
   -1   27    5      1.67      0.00
   -2   28    6     -1.14      0.00
   -3   29    7      0.04      0.00
   -4   30    8     -1.17      0.00
   -5   31    9      1.79      0.00
   -6   32   10     -1.84      0.00
  -13   28   10     -0.37      0.00
  -14   28    9     -0.83      0.00
  -15   28    8      0.95      0.00
  -16   28    7      2.38      0.00
  -17   28    6      2.14      0.00
  -18   28    5      0.75      0.00
  -19   28    4      2.62      0.00
  -20   28    3     -2.92      0.00
  -21   28    2     -3.14      0.00
  -22   28    1      1.20      0.00
  -23   28    0     -3.81      0.00
    4   24    1      0.16      0.00
    3   25    2      0.18      0.00
    2   26    3     -0.04      0.00
    1   27    4    -11.32      0.00
    0   28    5      0.42      0.00
   -1   29    6     -1.19      0.00
   -2   30    7      0.55      0.00
   -3   31    8      0.22      0.00
   -4   32    9     -1.72      0.00
  -14   30   10      0.24      0.00
  -15   30    9      0.80      0.00
  -16   30    8     -0.18      0.00
  -17   30    7      3.33      0.00
  -18   30    6     -1.00      0.00
  -19   30    5      0.85      0.00
  -20   30    4     -0.05      0.00
  -21   30    3     -0.65      0.00
  -22   30    2     -7.27      0.00
  -23   30    1     -3.44      0.00
  -24   30    0      2.31      0.00
    5   25    1      3.28      0.00
    4   26    2      0.13      0.00
    3   27    3     -0.32      0.00
    2   28    4     -2.20      0.00
    1   29    5     -0.77      0.00
    0   30    6     -2.50      0.00
   -1   31    7     -1.41      0.00
   -2   32    8     -2.21      0.00
   -3   33    9     -2.20      0.00
  -15   32   10      1.22      0.00
  -16   32    9      0.91      0.00
  -17   32    8      1.29      0.00
  -18   32    7     -0.54      0.00
  -19   32    6     -1.95      0.00
  -20   32    5      1.38      0.00
  -21   32    4     -1.56      0.00
  -22   32    3     -2.09      0.00
  -23   32    2      2.61      0.00
  -24   32    1     -1.31      0.00
  -25   32    0      3.12      0.00
    6   26    1      0.28      0.00
    5   27    2      1.26      0.00
    4   28    3      0.33      0.00
    3   29    4      0.32      0.00
    2   30    5      0.62      0.00
    1   31    6     -3.36      0.00
    0   32    7     -4.06      0.00
   -1   33    8     -0.64      0.00
   -2   34    9     -2.66      0.00
  -16   34   10      2.67      0.00
  -17   34    9      0.77      0.00
  -18   34    8      2.17      0.00
  -19   34    7     -0.83      0.00
  -20   34    6     -1.40      0.00
  -21   34    5     -1.15      0.00
  -22   34    4      1.30      0.00
  -23   34    3     -2.44      0.00
  -24   34    2      3.31      0.00
  -25   34    1      5.93      0.00
  -26   34    0      1.28      0.00
    7   27    1      2.18      0.00
    6   28    2      5.28      0.00
    5   29    3     -4.97      0.00
    4   30    4      1.40      0.00
    3   31    5     -4.46      0.00
    2   32    6     -1.67      0.00
    1   33    7     -1.67      0.00
    0   34    8     -0.09      0.00
  -18   36    9      1.72      0.00
  -19   36    8      0.50      0.00
  -20   36    7     -1.12      0.00
  -21   36    6     -2.06      0.00
  -22   36    5     -1.13      0.00
  -23   36    4     -0.54      0.00
  -24   36    3      1.05      0.00
  -25   36    2     -2.33      0.00
  -26   36    1      5.91      0.00
  -27   36    0      0.88      0.00
    8   28    1      1.52      0.00
    7   29    2      3.61      0.00
    6   30    3     -3.83      0.00
    5   31    4      0.46      0.00
    4   32    5     -5.89      0.00
    3   33    6      2.97      0.00
    2   34    7      0.81      0.00
    1   35    8     -3.83      0.00
  -19   38    9      1.79      0.00
  -20   38    8      0.89      0.00
  -21   38    7     -1.40      0.00
  -22   38    6     -2.33      0.00
  -23   38    5     -1.23      0.00
  -24   38    4     -0.40      0.00
  -25   38    3      2.20      0.00
  -26   38    2     -0.05      0.00
  -27   38    1      5.67      0.00
  -28   38    0      0.69      0.00
    9   29    1     -2.09      0.00
    8   30    2     -1.08      0.00
    7   31    3     -0.23      0.00
    6   32    4     -1.98      0.00
    5   33    5      1.00      0.00
    4   34    6      1.22      0.00
    3   35    7      1.04      0.00
    2   36    8     -1.45      0.00
  -21   40    8      0.93      0.00
  -22   40    7      0.87      0.00
  -23   40    6     -0.61      0.00
  -24   40    5     -1.64      0.00
  -25   40    4      0.42      0.00
  -26   40    3      1.14      0.00
  -27   40    2      2.89      0.00
  -28   40    1      7.79      0.00
  -29   40    0      0.60      0.00
   10   30    1     -1.16      0.00
    9   31    2     -1.62      0.00
    8   32    3     -2.64      0.00
    7   33    4     -0.52      0.00
    6   34    5      0.83      0.00
    5   35    6     -0.60      0.00
    4   36    7     -1.20      0.00
  -22   42    8     -2.67      0.00
  -23   42    7      2.79      0.00
  -24   42    6      0.48      0.00
  -25   42    5     -1.23      0.00
  -26   42    4     -2.73      0.00
  -27   42    3      0.97      0.00
  -28   42    2      1.64      0.00
  -29   42    1      5.50      0.00
  -30   42    0     -1.19      0.00
   11   31    1     -1.06      0.00
   10   32    2      0.67      0.00
    9   33    3     -4.01      0.00
    8   34    4     -0.73      0.00
    7   35    5     -3.54      0.00
    6   36    6      2.62      0.00
  -24   44    7      0.93      0.00
  -25   44    6      0.26      0.00
  -26   44    5     -1.47      0.00
  -27   44    4     -1.64      0.00
  -28   44    3      0.24      0.00
  -29   44    2      0.16      0.00
  -30   44    1     -0.47      0.00
  -31   44    0     -0.60      0.00
   12   32    1     -1.76      0.00
   11   33    2     -1.66      0.00
   10   34    3     -1.36      0.00
    9   35    4     -3.94      0.00
    8   36    5     -1.60      0.00
    7   37    6     -0.43      0.00
  -25   46    7     -0.70      0.00
  -26   46    6      0.69      0.00
  -27   46    5     -0.16      0.00
  -28   46    4      1.13      0.00
  -29   46    3     -2.89      0.00
  -30   46    2      0.16      0.00
  -31   46    1     -1.49      0.00
  -32   46    0      0.65      0.00
   13   33    1     -0.33      0.00
   12   34    2     -2.45      0.00
   11   35    3      0.43      0.00
   10   36    4     -6.95      0.00
    9   37    5     -1.76      0.00
  -27   48    6      3.83      0.00
  -28   48    5     -1.34      0.00
  -29   48    4     -0.49      0.00
  -30   48    3     -2.73      0.00
  -31   48    2      1.18      0.00
  -32   48    1      0.06      0.00
  -33   48    0     -0.13      0.00
   14   34    1      0.26      0.00
   13   35    2      1.13      0.00
   12   36    3     -0.08      0.00
   11   37    4     -4.27      0.00
  -29   50    5     -3.01      0.00
  -30   50    4     -1.94      0.00
  -31   50    3     -1.10      0.00
  -32   50    2      2.68      0.00
  -33   50    1     -0.85      0.00
  -34   50    0      0.44      0.00
   15   35    1      0.26      0.00
   14   36    2      0.27      0.00
   13   37    3      0.01      0.00
  -32   52    3     -1.69      0.00
  -33   52    2      0.89      0.00
  -34   52    1      0.09      0.00
  -35   52    0      1.22      0.00
   16   36    1     -1.17      0.00
   15   37    2     -2.92      0.00
    1    1   12     -2.78      0.00
    0    1   11     -1.51      0.00
    1    6    4     -4.57      0.00
  -14   15    4      8.40      0.00
  -15   16    5    -10.12      0.00
  -16   17    6      2.94      0.00
  -17   18    7    -11.65      0.00
  -18   19    8     -9.35      0.00
  -19   20    9     -6.60      0.00
  -20   21   10     -0.15      0.00
  -21   22   11      0.35      0.00
    0    3   12      0.75      0.00
   -1    3   11     -4.01      0.00
   -2    3   10      3.21      0.00
    3    4    5      0.08      0.00
    3    5    4    -14.82      0.00
    3    6    3    -25.28      0.00
  -14   17    5      8.05      0.00
  -15   18    6     -2.13      0.00
  -16   19    7      1.88      0.00
  -17   20    8     -5.06      0.00
  -18   21    9      0.06      0.00
  -19   22   10      0.60      0.00
  -20   23   11     -0.23      0.00
   -1    5   12      0.24      0.00
   -2    5   11     -0.47      0.00
   -3    5   10     -0.39      0.00
   -4    5    9     -0.02      0.00
   -7    5    6      8.26      0.00
   -8    5    5      5.56      0.00
   -9    5    4     -3.74      0.00
    5    5    3      3.00      0.00
    5    6    2    -15.83      0.00
  -14   19    6      5.17      0.00
  -15   20    7      1.03      0.00
  -16   21    8     -0.80      0.00
  -17   22    9      1.24      0.00
  -18   23   10      2.29      0.00
  -19   24   11      0.17      0.00
   -2    7   12     -1.23      0.00
   -3    7   11     -0.07      0.00
   -4    7   10     -3.25      0.00
   -5    7    9      1.34      0.00
   -6    7    8     -1.74      0.00
   -8    7    6     21.65      0.00
   -9    7    5      9.34      0.00
  -10    7    4      5.24      0.00
  -11    7    3      0.49      0.00
  -12    7    2     -9.01      0.00
  -13    7    1    -23.81      0.00
  -14   21    7     -6.23      0.00
  -15   22    8      1.66      0.00
  -16   23    9      0.22      0.00
  -17   24   10      0.20      0.00
  -18   25   11      0.75      0.00
   -3    9   12      0.17      0.00
   -4    9   11     -3.69      0.00
   -5    9   10      0.11      0.00
   -6    9    9     -0.19      0.00
  -10    9    5      7.72      0.00
  -11    9    4     -2.53      0.00
  -12    9    3    -11.95      0.00
  -13    9    2      0.59      0.00
  -14    9    1      9.65      0.00
   -6   15    0     17.06      0.00
   -7   16    1     14.12      0.00
  -14   23    8      3.88      0.00
  -15   24    9      0.36      0.00
  -16   25   10     -2.20      0.00
  -17   26   11      1.51      0.00
   -4   11   12      1.19      0.00
   -5   11   11     -3.80      0.00
   -6   11   10      0.13      0.00
  -12   11    4     -1.11      0.00
  -13   11    3      1.75      0.00
  -14   11    2      5.81      0.00
  -15   11    1     19.79      0.00
   -5   16    0    -12.23      0.00
   -6   17    1     10.36      0.00
   -7   18    2      8.24      0.00
  -14   25    9     -0.55      0.00
  -15   26   10      0.39      0.00
  -16   27   11      1.76      0.00
   -5   13   12      2.28      0.00
   -6   13   11     -2.14      0.00
  -14   13    3      9.37      0.00
  -15   13    2      2.10      0.00
  -16   13    1      1.98      0.00
   -4   17    0     -9.35      0.00
   -5   18    1      0.37      0.00
   -6   19    2      9.79      0.00
   -7   20    3     -8.59      0.00
  -14   27   10      0.95      0.00
  -15   28   11      1.58      0.00
   -6   15   12      2.75      0.00
  -15   15    3     -6.20      0.00
  -16   15    2     -5.28      0.00
  -17   15    1     -1.09      0.00
   -3   18    0     -6.88      0.00
   -4   19    1      1.36      0.00
   -5   20    2     -0.84      0.00
   -6   21    3     -9.93      0.00
   -7   22    4      3.65      0.00
  -15   17    4      0.20      0.00
  -16   17    3     -8.66      0.00
  -17   17    2      4.30      0.00
  -18   17    1      3.82      0.00
   -2   19    0     -7.42      0.00
   -3   20    1     -5.13      0.00
   -4   21    2      4.67      0.00
   -5   22    3     -1.86      0.00
   -6   23    4      6.04      0.00
   -7   24    5      5.25      0.00
  -15   19    5      3.44      0.00
  -16   19    4      1.09      0.00
  -17   19    3      0.21      0.00
  -18   19    2     19.16      0.00
  -19   19    1     -3.23      0.00
   -1   20    0      1.23      0.00
   -2   21    1     -4.71      0.00
   -3   22    2      7.62      0.00
   -4   23    3      1.33      0.00
   -5   24    4     -1.50      0.00
   -6   25    5      6.87      0.00
   -7   26    6     -0.91      0.00
  -15   21    6      8.02      0.00
  -16   21    5      2.81      0.00
  -17   21    4     -0.38      0.00
  -18   21    3     -4.92      0.00
  -19   21    2     13.57      0.00
  -20   21    1     -5.79      0.00
    0   21    0      3.62      0.00
   -1   22    1     12.24      0.00
   -2   23    2      3.67      0.00
   -3   24    3     -1.55      0.00
   -4   25    4     -6.68      0.00
   -5   26    5     -2.10      0.00
   -6   27    6      0.53      0.00
   -7   28    7      3.86      0.00
  -15   23    7     -7.92      0.00
  -16   23    6      1.57      0.00
  -17   23    5      8.25      0.00
  -18   23    4     -3.99      0.00
  -19   23    3     -6.79      0.00
  -20   23    2     -5.25      0.00
  -21   23    1     -3.00      0.00
  -22   23    0     -0.33      0.00
    0   23    1     12.80      0.00
   -1   24    2      3.45      0.00
   -2   25    3      0.17      0.00
   -3   26    4      1.80      0.00
   -4   27    5     -8.72      0.00
   -5   28    6      2.29      0.00
   -6   29    7      3.50      0.00
   -7   30    8      2.86      0.00
  -15   25    8      1.45      0.00
  -16   25    7     -6.43      0.00
  -17   25    6      0.04      0.00
  -18   25    5      5.90      0.00
  -19   25    4     -6.18      0.00
  -20   25    3      1.45      0.00
  -21   25    2     -6.45      0.00
  -22   25    1     -4.52      0.00
  -23   25    0     -3.08      0.00
    1   24    1     -3.20      0.00
    0   25    2      2.76      0.00
   -1   26    3      3.76      0.00
   -2   27    4     -0.23      0.00
   -3   28    5     -3.00      0.00
   -4   29    6      2.27      0.00
   -5   30    7      0.65      0.00
   -6   31    8      0.51      0.00
   -7   32    9      4.36      0.00
  -15   27    9     -1.02      0.00
  -16   27    8      0.81      0.00
  -17   27    7     -2.14      0.00
  -18   27    6      1.60      0.00
  -19   27    5      1.15      0.00
  -20   27    4     -3.08      0.00
  -21   27    3     -1.01      0.00
  -22   27    2      3.70      0.00
  -23   27    1     -4.03      0.00
  -24   27    0     -6.37      0.00
    2   25    1     -2.04      0.00
    1   26    2      0.34      0.00
    0   27    3     -0.17      0.00
   -1   28    4     -9.84      0.00
   -2   29    5      1.58      0.00
   -3   30    6     -0.33      0.00
   -4   31    7      2.95      0.00
   -5   32    8      1.31      0.00
   -6   33    9      1.85      0.00
  -15   29   10      1.38      0.00
  -16   29    9      0.29      0.00
  -17   29    8      1.44      0.00
  -18   29    7      1.17      0.00
  -19   29    6      0.16      0.00
  -20   29    5     -0.72      0.00
  -21   29    4      3.29      0.00
  -22   29    3     -4.51      0.00
  -23   29    2     -1.41      0.00
  -24   29    1     -1.48      0.00
  -25   29    0     -0.73      0.00
    3   26    1      2.59      0.00
    2   27    2     -0.39      0.00
    1   28    3     -0.29      0.00
    0   29    4     -6.47      0.00
   -1   30    5      0.17      0.00
   -2   31    6     -0.44      0.00
   -3   32    7      2.02      0.00
   -4   33    8      0.45      0.00
   -5   34    9     -0.91      0.00
  -16   31   10      0.53      0.00
  -17   31    9     -0.49      0.00
  -18   31    8      1.03      0.00
  -19   31    7     -0.72      0.00
  -20   31    6     -0.10      0.00
  -21   31    5      0.50      0.00
  -22   31    4      1.78      0.00
  -23   31    3      1.96      0.00
  -24   31    2     -5.82      0.00
  -25   31    1      0.96      0.00
  -26   31    0      3.55      0.00
    4   27    1     -3.61      0.00
    3   28    2      5.19      0.00
    2   29    3      1.03      0.00
    1   30    4      0.94      0.00
    0   31    5      2.74      0.00
   -1   32    6     -0.97      0.00
   -2   33    7     -2.12      0.00
   -3   34    8     -0.16      0.00
   -4   35    9     -3.88      0.00
  -17   33   10     -0.44      0.00
  -18   33    9     -0.75      0.00
  -19   33    8      1.02      0.00
  -20   33    7     -1.64      0.00
  -21   33    6     -0.40      0.00
  -22   33    5      2.43      0.00
  -23   33    4      0.50      0.00
  -24   33    3      3.48      0.00
  -25   33    2     -1.46      0.00
  -26   33    1      6.59      0.00
  -27   33    0      0.50      0.00
    5   28    1     -1.76      0.00
    4   29    2      7.34      0.00
    3   30    3     -3.41      0.00
    2   31    4      3.58      0.00
    1   32    5      0.84      0.00
    0   33    6     -2.67      0.00
   -1   34    7     -0.03      0.00
   -2   35    8     -0.77      0.00
  -19   35    9     -1.22      0.00
  -20   35    8      0.61      0.00
  -21   35    7     -0.89      0.00
  -22   35    6     -0.35      0.00
  -23   35    5      1.63      0.00
  -24   35    4      1.45      0.00
  -25   35    3      0.55      0.00
  -26   35    2     -1.43      0.00
  -27   35    1      8.00      0.00
  -28   35    0     -0.78      0.00
    6   29    1      3.70      0.00
    5   30    2      2.79      0.00
    4   31    3     -3.70      0.00
    3   32    4     -0.84      0.00
    2   33    5     -3.79      0.00
    1   34    6      0.67      0.00
    0   35    7      0.72      0.00
   -1   36    8     -2.08      0.00
  -20   37    9      0.91      0.00
  -21   37    8     -1.01      0.00
  -22   37    7     -1.47      0.00
  -23   37    6     -0.63      0.00
  -24   37    5      0.35      0.00
  -25   37    4      0.33      0.00
  -26   37    3      1.22      0.00
  -27   37    2     -0.61      0.00
  -28   37    1      3.30      0.00
  -29   37    0     -1.78      0.00
    7   30    1     -1.07      0.00
    6   31    2      1.19      0.00
    5   32    3     -1.13      0.00
    4   33    4     -5.57      0.00
    3   34    5     -1.04      0.00
    2   35    6      2.74      0.00
    1   36    7     -0.38      0.00
  -21   39    9      4.03      0.00
  -22   39    8     -1.32      0.00
  -23   39    7     -1.32      0.00
  -24   39    6     -0.71      0.00
  -25   39    5      0.09      0.00
  -26   39    4      1.14      0.00
  -27   39    3      1.30      0.00
  -28   39    2      3.38      0.00
  -29   39    1      1.64      0.00
  -30   39    0     -0.85      0.00
    8   31    1     -4.78      0.00
    7   32    2     -0.75      0.00
    6   33    3     -1.92      0.00
    5   34    4     -1.72      0.00
    4   35    5     -1.14      0.00
    3   36    6      0.57      0.00
    2   37    7      2.02      0.00
  -23   41    8     -0.38      0.00
  -24   41    7     -0.06      0.00
  -25   41    6      1.25      0.00
  -26   41    5     -0.03      0.00
  -27   41    4     -0.51      0.00
  -28   41    3      1.18      0.00
  -29   41    2      3.57      0.00
  -30   41    1      2.54      0.00
  -31   41    0     -0.44      0.00
    9   32    1      0.01      0.00
    8   33    2     -2.62      0.00
    7   34    3     -3.26      0.00
    6   35    4      0.34      0.00
    5   36    5     -4.14      0.00
    4   37    6      1.70      0.00
  -24   43    8     -1.81      0.00
  -25   43    7      0.30      0.00
  -26   43    6      1.15      0.00
  -27   43    5     -0.34      0.00
  -28   43    4     -2.15      0.00
  -29   43    3      2.49      0.00
  -30   43    2     -0.47      0.00
  -31   43    1      1.80      0.00
  -32   43    0     -1.59      0.00
   10   33    1      1.30      0.00
    9   34    2     -1.75      0.00
    8   35    3     -1.32      0.00
    7   36    4     -2.17      0.00
    6   37    5     -2.84      0.00
    5   38    6      1.17      0.00
  -26   45    7     -1.88      0.00
  -27   45    6      0.38      0.00
  -28   45    5      0.38      0.00
  -29   45    4     -0.51      0.00
  -30   45    3      0.63      0.00
  -31   45    2     -0.61      0.00
  -32   45    1      0.52      0.00
  -33   45    0     -0.81      0.00
   11   34    1     -0.78      0.00
   10   35    2     -1.26      0.00
    9   36    3      0.13      0.00
    8   37    4     -2.98      0.00
    7   38    5     -0.73      0.00
  -28   47    6      1.52      0.00
  -29   47    5     -0.29      0.00
  -30   47    4      1.32      0.00
  -31   47    3     -2.39      0.00
  -32   47    2      2.93      0.00
  -33   47    1      0.91      0.00
  -34   47    0     -0.93      0.00
   12   35    1      0.92      0.00
   11   36    2      0.86      0.00
   10   37    3     -0.31      0.00
    9   38    4     -2.61      0.00
  -30   49    5     -3.01      0.00
  -31   49    4      2.33      0.00
  -32   49    3     -0.86      0.00
  -33   49    2      3.64      0.00
  -34   49    1      0.36      0.00
  -35   49    0      0.22      0.00
   13   36    1      1.28      0.00
   12   37    2      2.61      0.00
   11   38    3      1.37      0.00
  -32   51    4      0.97      0.00
  -33   51    3      1.02      0.00
  -34   51    2      2.66      0.00
  -35   51    1     -0.99      0.00
  -36   51    0      1.83      0.00
   14   37    1     -0.36      0.00
   13   38    2     -0.21      0.00
  -35   53    2      0.97      0.00
  -36   53    1      1.23      0.00
  -37   53    0     -0.06      0.00
   15   38    1     -1.93      0.00
    0    0   12     -4.99      0.00
  -16   16    4     -4.23      0.00
  -17   17    5     -2.31      0.00
  -18   18    6      4.56      0.00
  -19   19    7     -9.68      0.00
  -20   20    8     -3.95      0.00
  -21   21    9     -3.65      0.00
  -22   22   10     -0.34      0.00
  -23   23   11      1.98      0.00
   -1    2   12     -2.34      0.00
    2    6    5     -1.32      0.00
    2    7    4      4.99      0.00
  -16   18    5      0.79      0.00
  -17   19    6      0.90      0.00
  -18   20    7     -0.99      0.00
  -19   21    8     -1.86      0.00
  -20   22    9      0.12      0.00
  -21   23   10     -0.83      0.00
  -22   24   11      1.41      0.00
   -2    4   12      0.46      0.00
   -3    4   11     -0.77      0.00
    4    4    6      2.02      0.00
    4    5    5      3.51      0.00
    4    6    4      2.21      0.00
    4    7    3    -18.68      0.00
  -16   20    6      3.21      0.00
  -17   21    7      5.40      0.00
  -18   22    8      0.23      0.00
  -19   23    9      4.54      0.00
  -20   24   10      0.92      0.00
  -21   25   11      0.85      0.00
   -3    6   12     -1.01      0.00
   -4    6   11      2.62      0.00
   -5    6   10     -1.13      0.00
   -8    6    7     -5.76      0.00
   -9    6    6      3.48      0.00
  -10    6    5     16.32      0.00
  -11    6    4      0.56      0.00
    6    6    3     -7.47      0.00
    6    7    2    -14.86      0.00
  -16   22    7     -3.58      0.00
  -17   23    8      1.54      0.00
  -18   24    9      3.25      0.00
  -19   25   10      1.70      0.00
  -20   26   11      2.53      0.00
   -4    8   12     -0.30      0.00
   -5    8   11     -2.05      0.00
   -6    8   10     -0.39      0.00
   -7    8    9      0.02      0.00
   -9    8    7     -1.31      0.00
  -10    8    6      9.82      0.00
  -11    8    5      6.37      0.00
  -12    8    4     -2.81      0.00
  -13    8    3    -13.36      0.00
  -14    8    2     -0.29      0.00
  -15    8    1     -6.57      0.00
  -16   24    8      2.26      0.00
  -17   25    9      0.61      0.00
  -18   26   10     -0.80      0.00
   -5   10   12      0.84      0.00
   -6   10   11     -5.54      0.00
   -7   10   10      2.13      0.00
  -11   10    6      3.61      0.00
  -12   10    5     -0.64      0.00
  -13   10    4     -5.47      0.00
  -14   10    3     -4.03      0.00
  -15   10    2      7.89      0.00
  -16   10    1     -0.95      0.00
   -7   17    0    -10.55      0.00
   -8   18    1    -16.34      0.00
  -16   26    9     -0.96      0.00
  -17   27   10      2.01      0.00
   -6   12   12     -1.60      0.00
   -7   12   11     -3.65      0.00
  -13   12    5     -2.67      0.00
  -14   12    4      4.51      0.00
  -15   12    3      8.96      0.00
  -16   12    2     -9.39      0.00
  -17   12    1      8.71      0.00
   -6   18    0    -13.47      0.00
   -7   19    1    -18.97      0.00
   -8   20    2      2.61      0.00
  -16   28   10      4.63      0.00
   -7   14   12     -0.28      0.00
  -15   14    4      9.37      0.00
  -16   14    3     -2.37      0.00
  -17   14    2    -17.21      0.00
  -18   14    1      5.91      0.00
   -5   19    0     -6.86      0.00
   -6   20    1    -13.24      0.00
   -7   21    2     -4.96      0.00
   -8   22    3    -10.68      0.00
  -17   16    3    -10.04      0.00
  -18   16    2      0.77      0.00
  -19   16    1      5.46      0.00
   -4   20    0    -12.40      0.00
   -5   21    1     -6.35      0.00
   -6   22    2     -6.03      0.00
   -7   23    3      0.00      0.00
   -8   24    4      4.68      0.00
  -17   18    4     -4.91      0.00
  -18   18    3     -5.09      0.00
  -19   18    2     17.40      0.00
  -20   18    1      7.48      0.00
   -3   21    0    -11.99      0.00
   -4   22    1     -9.06      0.00
   -5   23    2      3.97      0.00
   -6   24    3      2.76      0.00
   -7   25    4      4.19      0.00
   -8   26    5      7.61      0.00
  -17   20    5     -2.59      0.00
  -18   20    4      4.70      0.00
  -19   20    3     -6.30      0.00
  -20   20    2     19.29      0.00
  -21   20    1     -2.42      0.00
   -2   22    0      1.38      0.00
   -3   23    1     -6.28      0.00
   -4   24    2      2.17      0.00
   -5   25    3     -5.94      0.00
   -6   26    4      2.89      0.00
   -7   27    5      3.87      0.00
   -8   28    6      1.87      0.00
  -17   22    6      4.48      0.00
  -18   22    5     -0.16      0.00
  -19   22    4      1.12      0.00
  -20   22    3     -9.97      0.00
  -21   22    2     10.53      0.00
  -22   22    1     -7.64      0.00
   -1   23    0      2.62      0.00
   -2   24    1      3.21      0.00
   -3   25    2     -4.53      0.00
   -4   26    3     -3.75      0.00
   -5   27    4      3.31      0.00
   -6   28    5     -0.04      0.00
   -7   29    6      2.40      0.00
   -8   30    7      4.21      0.00
  -17   24    7     -3.14      0.00
  -18   24    6     -1.21      0.00
  -19   24    5      4.86      0.00
  -20   24    4     -5.09      0.00
  -21   24    3     -4.30      0.00
  -22   24    2     -0.44      0.00
  -23   24    1      0.39      0.00
    0   24    0     -6.74      0.00
   -1   25    1     -0.93      0.00
   -2   26    2     -0.80      0.00
   -3   27    3      3.27      0.00
   -4   28    4      3.52      0.00
   -5   29    5      3.29      0.00
   -6   30    6      2.51      0.00
   -7   31    7     -0.31      0.00
   -8   32    8     -2.13      0.00
  -17   26    8      3.19      0.00
  -18   26    7     -1.73      0.00
  -19   26    6     -0.73      0.00
  -20   26    5     -0.67      0.00
  -21   26    4     -6.15      0.00
  -22   26    3      2.70      0.00
  -23   26    2      2.04      0.00
  -24   26    1      0.07      0.00
  -25   26    0     -7.75      0.00
    0   26    1     -1.67      0.00
   -1   27    2      1.91      0.00
   -2   28    3     -1.65      0.00
   -3   29    4     -0.58      0.00
   -4   30    5      4.04      0.00
   -5   31    6      2.26      0.00
   -6   32    7     -1.20      0.00
   -7   33    8     -1.96      0.00
   -8   34    9      0.05      0.00
  -17   28    9     -0.05      0.00
  -18   28    8      4.01      0.00
  -19   28    7     -1.05      0.00
  -20   28    6      1.24      0.00
  -21   28    5     -2.50      0.00
  -22   28    4     -1.91      0.00
  -23   28    3     -1.78      0.00
  -24   28    2      6.18      0.00
  -25   28    1     -2.81      0.00
  -26   28    0      1.66      0.00
    1   27    1      3.46      0.00
    0   28    2     -0.84      0.00
   -1   29    3     -1.89      0.00
   -2   30    4     -3.07      0.00
   -3   31    5     -0.50      0.00
   -4   32    6      1.42      0.00
   -5   33    7      1.79      0.00
   -6   34    8     -2.50      0.00
   -7   35    9      0.13      0.00
  -17   30   10      1.75      0.00
  -18   30    9      0.91      0.00
  -19   30    8      2.65      0.00
  -20   30    7     -2.20      0.00
  -21   30    6      1.30      0.00
  -22   30    5     -0.13      0.00
  -23   30    4      2.31      0.00
  -24   30    3     -2.06      0.00
  -25   30    2     -2.26      0.00
  -26   30    1      3.21      0.00
  -27   30    0      5.17      0.00
    2   28    1     -2.03      0.00
    1   29    2      3.99      0.00
    0   30    3      3.80      0.00
   -1   31    4      0.09      0.00
   -2   32    5      2.03      0.00
   -3   33    6     -0.03      0.00
   -4   34    7     -2.19      0.00
   -5   35    8     -1.79      0.00
   -6   36    9     -2.92      0.00
  -18   32   10     -1.87      0.00
  -19   32    9      0.35      0.00
  -20   32    8      0.59      0.00
  -21   32    7     -3.29      0.00
  -22   32    6      1.27      0.00
  -23   32    5      1.36      0.00
  -24   32    4     -0.07      0.00
  -25   32    3      4.50      0.00
  -26   32    2     -5.94      0.00
  -27   32    1      8.81      0.00
  -28   32    0     -1.98      0.00
    3   29    1     -4.38      0.00
    2   30    2      7.10      0.00
    1   31    3      1.97      0.00
    0   32    4      4.80      0.00
   -1   33    5      3.68      0.00
   -2   34    6     -1.78      0.00
   -3   35    7     -3.25      0.00
   -4   36    8     -1.86      0.00
  -19   34   10     -0.83      0.00
  -20   34    9     -0.69      0.00
  -21   34    8      0.40      0.00
  -22   34    7     -1.68      0.00
  -23   34    6      0.65      0.00
  -24   34    5      1.79      0.00
  -25   34    4     -2.27      0.00
  -26   34    3      1.22      0.00
  -27   34    2     -0.63      0.00
  -28   34    1      8.65      0.00
  -29   34    0     -2.42      0.00
    4   30    1     -1.66      0.00
    3   31    2      0.86      0.00
    2   32    3      0.66      0.00
    1   33    4      1.19      0.00
    0   34    5     -1.07      0.00
   -1   35    6     -1.42      0.00
   -2   36    7     -0.86      0.00
   -3   37    8     -2.43      0.00
  -21   36    9     -0.99      0.00
  -22   36    8      0.79      0.00
  -23   36    7     -0.44      0.00
  -24   36    6      0.46      0.00
  -25   36    5     -1.23      0.00
  -26   36    4     -1.98      0.00
  -27   36    3     -2.37      0.00
  -28   36    2      1.69      0.00
  -29   36    1      2.43      0.00
  -30   36    0      0.16      0.00
    5   31    1     -3.11      0.00
    4   32    2     -0.41      0.00
    3   33    3     -0.22      0.00
    2   34    4     -5.66      0.00
    1   35    5      0.07      0.00
    0   36    6     -1.50      0.00
   -1   37    7     -1.52      0.00
  -22   38    9      2.27      0.00
  -23   38    8     -1.79      0.00
  -24   38    7      0.00      0.00
  -25   38    6     -0.67      0.00
  -26   38    5     -2.11      0.00
  -27   38    4     -0.48      0.00
  -28   38    3     -0.21      0.00
  -29   38    2      1.73      0.00
  -30   38    1     -1.21      0.00
  -31   38    0     -3.02      0.00
    6   32    1     -4.30      0.00
    5   33    2      1.91      0.00
    4   34    3     -1.74      0.00
    3   35    4     -3.91      0.00
    2   36    5     -0.13      0.00
    1   37    6     -1.05      0.00
    0   38    7      0.55      0.00
  -24   40    8     -1.49      0.00
  -25   40    7      0.18      0.00
  -26   40    6      0.29      0.00
  -27   40    5     -0.86      0.00
  -28   40    4      0.72      0.00
  -29   40    3      0.96      0.00
  -30   40    2      2.85      0.00
  -31   40    1     -0.14      0.00
  -32   40    0     -1.13      0.00
    7   33    1     -0.36      0.00
    6   34    2     -1.52      0.00
    5   35    3     -0.31      0.00
    4   36    4     -0.35      0.00
    3   37    5     -4.32      0.00
    2   38    6      0.93      0.00
  -25   42    8      2.10      0.00
  -26   42    7     -0.51      0.00
  -27   42    6      1.64      0.00
  -28   42    5      0.06      0.00
  -29   42    4     -0.16      0.00
  -30   42    3      1.29      0.00
  -31   42    2      1.92      0.00
  -32   42    1      0.86      0.00
  -33   42    0      2.02      0.00
    8   34    1      3.57      0.00
    7   35    2     -2.60      0.00
    6   36    3      0.78      0.00
    5   37    4     -2.14      0.00
    4   38    5     -3.47      0.00
    3   39    6      0.61      0.00
  -27   44    7     -0.84      0.00
  -28   44    6     -0.21      0.00
  -29   44    5      1.76      0.00
  -30   44    4     -0.96      0.00
  -31   44    3      1.39      0.00
  -32   44    2     -0.19      0.00
  -33   44    1      1.90      0.00
  -34   44    0     -0.24      0.00
    9   35    1      1.28      0.00
    8   36    2     -0.13      0.00
    7   37    3      1.06      0.00
    6   38    4     -1.94      0.00
    5   39    5     -3.10      0.00
  -29   46    6     -0.03      0.00
  -30   46    5      1.56      0.00
  -31   46    4     -0.85      0.00
  -32   46    3     -0.29      0.00
  -33   46    2      1.54      0.00
  -34   46    1      0.79      0.00
  -35   46    0     -1.72      0.00
   10   36    1     -0.55      0.00
    9   37    2     -0.83      0.00
    8   38    3     -0.13      0.00
    7   39    4      1.67      0.00
  -30   48    6      1.06      0.00
  -31   48    5     -0.27      0.00
  -32   48    4      1.33      0.00
  -33   48    3     -2.70      0.00
  -34   48    2      2.93      0.00
  -35   48    1     -0.27      0.00
  -36   48    0     -1.32      0.00
   11   37    1     -0.18      0.00
   10   38    2      0.40      0.00
    9   39    3      0.25      0.00
  -33   50    4      1.87      0.00
  -34   50    3     -0.91      0.00
  -35   50    2      0.34      0.00
  -36   50    1     -1.23      0.00
  -37   50    0      0.25      0.00
   12   38    1     -1.48      0.00
   11   39    2      1.49      0.00
  -35   52    3      1.15      0.00
  -36   52    2     -0.46      0.00
  -37   52    1     -2.09      0.00
  -38   52    0      0.39      0.00
   13   39    1     -2.02      0.00
    1    8    5     -3.53      0.00
  -18   19    5      2.64      0.00
  -19   20    6     -1.02      0.00
  -20   21    7     -2.86      0.00
  -21   22    8      6.19      0.00
  -22   23    9      3.33      0.00
  -23   24   10     -0.59      0.00
    3    6    6      2.76      0.00
    3    7    5     -4.89      0.00
    3    8    4     -1.03      0.00
  -18   21    6      4.03      0.00
  -19   22    7      4.34      0.00
  -20   23    8      6.59      0.00
  -21   24    9      4.73      0.00
  -22   25   10     -0.04      0.00
   -4    5   12      0.87      0.00
   -9    5    7     -1.22      0.00
    5    5    6      3.94      0.00
    5    6    5      6.93      0.00
    5    7    4     -2.94      0.00
    5    8    3     -8.15      0.00
  -18   23    7      4.05      0.00
  -19   24    8      2.45      0.00
  -20   25    9      7.80      0.00
  -21   26   10     -0.16      0.00
   -5    7   12     -0.04      0.00
   -6    7   11      1.19      0.00
   -9    7    8      1.76      0.00
  -10    7    7      3.51      0.00
  -11    7    6      3.21      0.00
  -12    7    5      7.68      0.00
  -13    7    4     -1.09      0.00
    7    7    3    -17.22      0.00
    7    8    2      4.47      0.00
  -18   25    8      2.29      0.00
  -19   26    9      3.12      0.00
  -20   27   10     -0.40      0.00
   -6    9   12     -0.22      0.00
   -7    9   11     -3.05      0.00
   -8    9   10      0.52      0.00
  -10    9    8      1.87      0.00
  -11    9    7      1.75      0.00
  -12    9    6     -0.67      0.00
  -13    9    5     -1.89      0.00
  -14    9    4      0.52      0.00
  -15    9    3    -13.63      0.00
  -16    9    2     10.05      0.00
  -17    9    1      0.72      0.00
  -18   27    9     -2.32      0.00
  -19   28   10      1.91      0.00
   -7   11   12     -1.73      0.00
   -8   11   11     -3.40      0.00
  -12   11    7     -1.19      0.00
  -13   11    6      0.69      0.00
  -14   11    5      0.75      0.00
  -15   11    4      1.30      0.00
  -16   11    3      6.50      0.00
  -17   11    2      0.18      0.00
  -18   11    1     13.75      0.00
   -8   19    0      9.36      0.00
   -9   20    1    -18.20      0.00
  -18   29   10      3.36      0.00
   -8   13   12     -3.75      0.00
  -14   13    6      4.16      0.00
  -15   13    5     -1.39      0.00
  -16   13    4      4.73      0.00
  -17   13    3      4.60      0.00
  -18   13    2    -11.22      0.00
  -19   13    1     25.76      0.00
   -7   20    0     11.97      0.00
   -8   21    1     -1.12      0.00
   -9   22    2     -1.76      0.00
  -16   15    5    -10.02      0.00
  -17   15    4     -0.12      0.00
  -18   15    3     -4.28      0.00
  -19   15    2     -3.45      0.00
  -20   15    1     16.40      0.00
   -6   21    0     15.64      0.00
   -7   22    1      6.36      0.00
   -8   23    2     -7.06      0.00
   -9   24    3     -2.48      0.00
  -18   17    4     -7.75      0.00
  -19   17    3     -2.83      0.00
  -20   17    2     11.00      0.00
  -21   17    1     11.23      0.00
   -5   22    0      7.53      0.00
   -6   23    1      6.68      0.00
   -7   24    2      1.82      0.00
   -8   25    3     -0.92      0.00
   -9   26    4      0.57      0.00
  -19   19    4      2.55      0.00
  -20   19    3     -8.55      0.00
  -21   19    2     13.87      0.00
  -22   19    1      8.97      0.00
   -4   23    0      4.34      0.00
   -5   24    1      1.09      0.00
   -6   25    2      1.18      0.00
   -7   26    3     -7.83      0.00
   -8   27    4      3.61      0.00
   -9   28    5      1.76      0.00
  -19   21    5     -3.88      0.00
  -20   21    4     12.53      0.00
  -21   21    3    -12.49      0.00
  -22   21    2      8.72      0.00
  -23   21    1     -2.75      0.00
   -3   24    0      8.63      0.00
   -4   25    1     -3.08      0.00
   -5   26    2     -7.92      0.00
   -6   27    3     -8.38      0.00
   -7   28    4      2.44      0.00
   -8   29    5     -2.46      0.00
   -9   30    6      0.58      0.00
  -19   23    6      5.37      0.00
  -20   23    5     -0.65      0.00
  -21   23    4      4.25      0.00
  -22   23    3     -7.42      0.00
  -23   23    2      5.15      0.00
  -24   23    1     -1.79      0.00
   -2   25    0     -1.54      0.00
   -3   26    1     -4.01      0.00
   -4   27    2     -4.09      0.00
   -5   28    3      0.56      0.00
   -6   29    4     -0.50      0.00
   -7   30    5      2.99      0.00
   -8   31    6     -2.61      0.00
   -9   32    7      1.72      0.00
  -19   25    7      0.65      0.00
  -20   25    6      2.50      0.00
  -21   25    5      0.53      0.00
  -22   25    4     -3.76      0.00
  -23   25    3     -1.00      0.00
  -24   25    2      2.24      0.00
  -25   25    1      4.52      0.00
   -1   26    0    -10.14      0.00
   -2   27    1     -0.92      0.00
   -3   28    2      2.53      0.00
   -4   29    3     -0.71      0.00
   -5   30    4     -0.33      0.00
   -6   31    5      6.57      0.00
   -7   32    6     -3.46      0.00
   -8   33    7     -2.37      0.00
   -9   34    8     -2.03      0.00
  -19   27    8      2.66      0.00
  -20   27    7     -1.55      0.00
  -21   27    6      1.94      0.00
  -22   27    5     -3.53      0.00
  -23   27    4     -4.40      0.00
  -24   27    3      0.07      0.00
  -25   27    2      2.42      0.00
  -26   27    1     -1.60      0.00
    0   27    0      2.03      0.00
   -1   28    1      3.10      0.00
   -2   29    2      0.43      0.00
   -3   30    3     -3.85      0.00
   -4   31    4     -1.20      0.00
   -5   32    5     -2.66      0.00
   -6   33    6      1.23      0.00
   -7   34    7     -1.05      0.00
   -8   35    8     -2.88      0.00
   -9   36    9      0.06      0.00
  -19   29    9     -2.77      0.00
  -20   29    8      0.98      0.00
  -21   29    7     -2.10      0.00
  -22   29    6      2.10      0.00
  -23   29    5      0.26      0.00
  -24   29    4     -2.80      0.00
  -25   29    3     -3.63      0.00
  -26   29    2      1.55      0.00
  -27   29    1     -1.33      0.00
  -28   29    0      8.21      0.00
    0   29    1     -0.19      0.00
   -1   30    2      3.44      0.00
   -2   31    3      2.08      0.00
   -3   32    4     -2.18      0.00
   -4   33    5     -5.55      0.00
   -5   34    6      0.72      0.00
   -6   35    7     -0.52      0.00
   -7   36    8     -1.95      0.00
  -19   31   10     -3.23      0.00
  -20   31    9      0.24      0.00
  -21   31    8     -1.64      0.00
  -22   31    7     -3.08      0.00
  -23   31    6      1.42      0.00
  -24   31    5      2.34      0.00
  -25   31    4     -0.46      0.00
  -26   31    3     -1.12      0.00
  -27   31    2     -3.26      0.00
  -28   31    1      4.84      0.00
  -29   31    0     -3.44      0.00
    1   30    1      0.21      0.00
    0   31    2      4.11      0.00
   -1   32    3      5.73      0.00
   -2   33    4      1.47      0.00
   -3   34    5      0.45      0.00
   -4   35    6     -2.29      0.00
   -5   36    7     -3.04      0.00
   -6   37    8     -0.10      0.00
  -20   33   10     -2.82      0.00
  -21   33    9     -0.18      0.00
  -22   33    8     -1.69      0.00
  -23   33    7     -3.03      0.00
  -24   33    6      1.05      0.00
  -25   33    5      0.33      0.00
  -26   33    4     -1.94      0.00
  -27   33    3      0.63      0.00
  -28   33    2     -0.08      0.00
  -29   33    1      4.93      0.00
  -30   33    0     -7.96      0.00
    2   31    1      1.22      0.00
    1   32    2     -2.34      0.00
    0   33    3      6.04      0.00
   -1   34    4      0.42      0.00
   -2   35    5     -0.01      0.00
   -3   36    6     -0.10      0.00
   -4   37    7     -2.89      0.00
   -5   38    8      1.04      0.00
  -22   35    9     -0.86      0.00
  -23   35    8      0.87      0.00
  -24   35    7     -1.83      0.00
  -25   35    6      0.55      0.00
  -26   35    5     -2.63      0.00
  -27   35    4     -4.25      0.00
  -28   35    3     -2.69      0.00
  -29   35    2      4.70      0.00
  -30   35    1      2.11      0.00
  -31   35    0      0.77      0.00
    3   32    1     -7.27      0.00
    2   33    2     -1.09      0.00
    1   34    3      2.88      0.00
    0   35    4     -4.19      0.00
   -1   36    5     -0.48      0.00
   -2   37    6     -1.01      0.00
   -3   38    7     -1.07      0.00
  -23   37    9      0.03      0.00
  -24   37    8      0.55      0.00
  -25   37    7     -0.69      0.00
  -26   37    6     -0.78      0.00
  -27   37    5     -4.72      0.00
  -28   37    4     -3.29      0.00
  -29   37    3     -1.88      0.00
  -30   37    2      2.40      0.00
  -31   37    1     -0.82      0.00
  -32   37    0      0.67      0.00
    4   33    1     -8.14      0.00
    3   34    2      3.01      0.00
    2   35    3     -1.76      0.00
    1   36    4     -2.90      0.00
    0   37    5      1.88      0.00
   -1   38    6     -4.02      0.00
   -2   39    7      0.98      0.00
  -24   39    9      0.01      0.00
  -25   39    8     -2.21      0.00
  -26   39    7      1.02      0.00
  -27   39    6     -1.96      0.00
  -28   39    5     -3.23      0.00
  -29   39    4     -0.74      0.00
  -30   39    3      0.34      0.00
  -31   39    2      0.86      0.00
  -32   39    1     -0.69      0.00
  -33   39    0     -4.54      0.00
    5   34    1     -0.81      0.00
    4   35    2      0.35      0.00
    3   36    3      0.67      0.00
    2   37    4     -1.33      0.00
    1   38    5      0.06      0.00
    0   39    6     -0.95      0.00
  -26   41    8     -0.65      0.00
  -27   41    7      0.32      0.00
  -28   41    6     -0.38      0.00
  -29   41    5     -1.94      0.00
  -30   41    4      0.62      0.00
  -31   41    3      0.50      0.00
  -32   41    2      1.68      0.00
  -33   41    1      0.56      0.00
  -34   41    0      0.24      0.00
    6   35    1      0.93      0.00
    5   36    2     -1.94      0.00
    4   37    3      2.87      0.00
    3   38    4     -2.04      0.00
    2   39    5     -1.74      0.00
    1   40    6      0.81      0.00
  -28   43    7     -1.21      0.00
  -29   43    6      0.00      0.00
  -30   43    5      0.66      0.00
  -31   43    4     -0.36      0.00
  -32   43    3      0.20      0.00
  -33   43    2      2.29      0.00
  -34   43    1      0.81      0.00
  -35   43    0      1.22      0.00
    7   36    1      0.72      0.00
    6   37    2      0.70      0.00
    5   38    3      0.79      0.00
    4   39    4     -2.78      0.00
    3   40    5     -3.28      0.00
  -29   45    7     -0.64      0.00
  -30   45    6     -1.22      0.00
  -31   45    5      2.81      0.00
  -32   45    4     -0.82      0.00
  -33   45    3      0.42      0.00
  -34   45    2      1.60      0.00
  -35   45    1      0.46      0.00
  -36   45    0     -2.24      0.00
    8   37    1      0.33      0.00
    7   38    2     -0.52      0.00
    6   39    3      0.88      0.00
    5   40    4     -0.78      0.00
  -31   47    6      0.28      0.00
  -32   47    5      2.62      0.00
  -33   47    4     -0.67      0.00
  -34   47    3     -1.42      0.00
  -35   47    2      1.75      0.00
  -36   47    1     -0.50      0.00
  -37   47    0     -1.13      0.00
    9   38    1     -1.29      0.00
    8   39    2     -2.59      0.00
    7   40    3      0.65      0.00
    6   41    4      3.44      0.00
  -33   49    5      3.32      0.00
  -34   49    4     -0.82      0.00
  -35   49    3     -3.01      0.00
  -36   49    2      1.00      0.00
  -37   49    1     -0.30      0.00
  -38   49    0     -0.38      0.00
   10   39    1     -1.88      0.00
    9   40    2      1.16      0.00
    8   41    3     -0.55      0.00
  -35   51    4     -1.21      0.00
  -36   51    3     -0.10      0.00
  -37   51    2     -1.83      0.00
  -38   51    1     -1.15      0.00
  -39   51    0      0.57      0.00
   11   40    1     -2.36      0.00
   10   41    2      0.16      0.00
  -20   20    5      3.25      0.00
  -21   21    6     -6.91      0.00
  -22   22    7     -1.81      0.00
  -23   23    8      3.80      0.00
  -24   24    9      1.54      0.00
  -25   25   10     -1.68      0.00
    2    8    6      6.19      0.00
    2    9    5     -0.54      0.00
  -20   22    6      1.67      0.00
  -21   23    7     -0.53      0.00
  -22   24    8      2.69      0.00
  -23   25    9     -0.97      0.00
  -24   26   10     -0.37      0.00
    4    6    7      3.54      0.00
    4    7    6      3.52      0.00
    4    8    5     -0.31      0.00
    4    9    4    -12.76      0.00
  -20   24    7      0.57      0.00
  -21   25    8      0.61      0.00
  -22   26    9      2.00      0.00
  -23   27   10     -2.22      0.00
  -10    6    8     -1.15      0.00
  -11    6    7      3.24      0.00
    6    6    6     10.26      0.00
    6    7    5     -1.49      0.00
    6    8    4     -5.02      0.00
    6    9    3    -13.96      0.00
  -20   26    8     -0.85      0.00
  -21   27    9      4.57      0.00
  -22   28   10     -4.28      0.00
   -7    8   12     -1.16      0.00
  -10    8    9     -1.22      0.00
  -11    8    8     -0.73      0.00
  -12    8    7      1.69      0.00
  -13    8    6      0.33      0.00
  -14    8    5      0.15      0.00
  -15    8    4     -0.33      0.00
    8    8    3    -22.21      0.00
    8    9    2      2.72      0.00
  -20   28    9     -2.57      0.00
  -21   29   10     -0.22      0.00
   -8   10   12     -2.64      0.00
   -9   10   11     -0.54      0.00
  -11   10    9     -0.10      0.00
  -12   10    8     -7.17      0.00
  -13   10    7     -3.20      0.00
  -14   10    6     -2.33      0.00
  -15   10    5      2.82      0.00
  -16   10    4      5.04      0.00
  -17   10    3     -5.81      0.00
  -18   10    2     -5.42      0.00
  -19   10    1      5.30      0.00
  -20   30   10      0.12      0.00
   -9   12   12     -2.14      0.00
  -13   12    8    -14.37      0.00
  -14   12    7     -0.31      0.00
  -15   12    6      2.97      0.00
  -16   12    5      7.72      0.00
  -17   12    4      4.75      0.00
  -18   12    3      5.65      0.00
  -19   12    2     -8.26      0.00
  -20   12    1     12.98      0.00
   -9   21    0      4.97      0.00
  -10   22    1      5.66      0.00
  -15   14    7     -0.07      0.00
  -16   14    6     -0.87      0.00
  -17   14    5      8.12      0.00
  -18   14    4     -0.19      0.00
  -19   14    3      0.92      0.00
  -20   14    2     -5.10      0.00
  -21   14    1      3.64      0.00
   -8   22    0      8.39      0.00
   -9   23    1     12.52      0.00
  -10   24    2     -3.34      0.00
  -17   16    6      1.60      0.00
  -18   16    5      3.06      0.00
  -19   16    4     -1.44      0.00
  -20   16    3     -1.10      0.00
  -21   16    2     -1.59      0.00
  -22   16    1     -5.35      0.00
   -7   23    0     11.71      0.00
   -8   24    1      8.68      0.00
   -9   25    2      5.47      0.00
  -10   26    3      3.40      0.00
  -19   18    5      3.80      0.00
  -20   18    4      1.47      0.00
  -21   18    3     -4.25      0.00
  -22   18    2      0.86      0.00
  -23   18    1     -3.78      0.00
   -6   24    0      6.24      0.00
   -7   25    1      9.92      0.00
   -8   26    2      7.39      0.00
   -9   27    3     -3.25      0.00
  -10   28    4      5.79      0.00
  -21   20    4     12.78      0.00
  -22   20    3    -10.77      0.00
  -23   20    2     -3.39      0.00
  -24   20    1     -4.22      0.00
   -5   25    0      6.08      0.00
   -6   26    1      5.22      0.00
   -7   27    2     -3.66      0.00
   -8   28    3     -4.04      0.00
   -9   29    4      1.54      0.00
  -10   30    5     -2.43      0.00
  -21   22    5     -0.20      0.00
  -22   22    4     15.82      0.00
  -23   22    3     -7.02      0.00
  -24   22    2     -4.47      0.00
  -25   22    1     -5.51      0.00
   -4   26    0      3.22      0.00
   -5   27    1     -1.72      0.00
   -6   28    2     -2.10      0.00
   -7   29    3     -0.99      0.00
   -8   30    4     -3.31      0.00
   -9   31    5     -1.42      0.00
  -10   32    6     -0.67      0.00
  -21   24    6      6.92      0.00
  -22   24    5      0.58      0.00
  -23   24    4      3.76      0.00
  -24   24    3     -0.96      0.00
  -25   24    2      0.66      0.00
  -26   24    1     -0.01      0.00
   -3   27    0     -7.73      0.00
   -4   28    1      0.77      0.00
   -5   29    2      4.06      0.00
   -6   30    3      0.43      0.00
   -7   31    4     -1.52      0.00
   -8   32    5      5.03      0.00
   -9   33    6     -5.84      0.00
  -10   34    7      1.87      0.00
  -21   26    7     -2.86      0.00
  -22   26    6      3.59      0.00
  -23   26    5     -0.81      0.00
  -24   26    4     -2.87      0.00
  -25   26    3     -2.19      0.00
  -26   26    2     -0.31      0.00
  -27   26    1      0.16      0.00
   -2   28    0     -1.24      0.00
   -3   29    1      2.10      0.00
   -4   30    2      0.05      0.00
   -5   31    3     -0.03      0.00
   -6   32    4     -0.78      0.00
   -7   33    5      2.49      0.00
   -8   34    6     -3.53      0.00
   -9   35    7     -0.39      0.00
  -10   36    8      0.22      0.00
  -18   28   11      3.55      0.00
  -21   28    8     -0.56      0.00
  -22   28    7     -1.18      0.00
  -23   28    6      1.31      0.00
  -24   28    5     -0.77      0.00
  -25   28    4     -3.99      0.00
  -26   28    3     -4.25      0.00
  -27   28    2     -0.40      0.00
  -28   28    1     -3.41      0.00
   -1   29    0      7.89      0.00
   -2   30    1     -2.64      0.00
   -3   31    2      2.97      0.00
   -4   32    3      0.67      0.00
   -5   33    4     -3.19      0.00
   -6   34    5     -5.90      0.00
   -7   35    6      2.25      0.00
   -8   36    7     -0.24      0.00
   -9   37    8      0.55      0.00
  -21   30    9     -1.11      0.00
  -22   30    8     -1.00      0.00
  -23   30    7      1.41      0.00
  -24   30    6      1.94      0.00
  -25   30    5      2.59      0.00
  -26   30    4     -2.84      0.00
  -27   30    3     -2.89      0.00
  -28   30    2      0.93      0.00
  -29   30    1     -0.84      0.00
    0   30    0     -3.10      0.00
   -1   31    1      0.60      0.00
   -2   32    2      5.75      0.00
   -3   33    3      3.49      0.00
   -4   34    4     -0.85      0.00
   -5   35    5     -4.58      0.00
   -6   36    6     -0.41      0.00
   -7   37    7      0.07      0.00
   -8   38    8      1.47      0.00
  -21   32   10     -2.56      0.00
  -22   32    9      1.80      0.00
  -23   32    8     -1.67      0.00
  -24   32    7      1.50      0.00
  -25   32    6      1.98      0.00
  -26   32    5      1.88      0.00
  -27   32    4      0.03      0.00
  -28   32    3     -0.24      0.00
  -29   32    2      1.80      0.00
  -30   32    1     -1.02      0.00
  -31   32    0     -9.35      0.00
    0   32    1      7.88      0.00
   -1   33    2     -2.77      0.00
   -2   34    3      7.70      0.00
   -3   35    4     -1.06      0.00
   -4   36    5      0.34      0.00
   -5   37    6     -0.29      0.00
   -6   38    7     -0.67      0.00
   -7   39    8      2.97      0.00
  -22   34   10     -1.08      0.00
  -23   34    9      0.10      0.00
  -24   34    8      1.10      0.00
  -25   34    7      0.26      0.00
  -26   34    6      1.82      0.00
  -27   34    5     -0.61      0.00
  -28   34    4     -1.31      0.00
  -29   34    3     -0.32      0.00
  -30   34    2      5.22      0.00
  -31   34    1     -0.30      0.00
  -32   34    0     -0.67      0.00
    1   33    1      1.02      0.00
    0   34    2     -0.07      0.00
   -1   35    3      5.38      0.00
   -2   36    4     -4.87      0.00
   -3   37    5      0.38      0.00
   -4   38    6      2.61      0.00
   -5   39    7     -0.56      0.00
  -24   36    9      0.67      0.00
  -25   36    8      2.36      0.00
  -26   36    7     -0.22      0.00
  -27   36    6      1.37      0.00
  -28   36    5     -2.22      0.00
  -29   36    4     -2.59      0.00
  -30   36    3     -0.79      0.00
  -31   36    2      3.69      0.00
  -32   36    1      3.56      0.00
  -33   36    0      4.70      0.00
    2   34    1     -7.02      0.00
    1   35    2      8.26      0.00
    0   36    3     -0.50      0.00
   -1   37    4     -1.98      0.00
   -2   38    5     -0.55      0.00
   -3   39    6     -0.73      0.00
   -4   40    7      1.07      0.00
  -25   38    9     -0.58      0.00
  -26   38    8      1.10      0.00
  -27   38    7      0.90      0.00
  -28   38    6      0.21      0.00
  -29   38    5     -1.52      0.00
  -30   38    4     -1.29      0.00
  -31   38    3      0.26      0.00
  -32   38    2      1.37      0.00
  -33   38    1      0.80      0.00
  -34   38    0      0.32      0.00
    3   35    1     -0.55      0.00
    2   36    2      3.79      0.00
    1   37    3      1.35      0.00
    0   38    4     -0.21      0.00
   -1   39    5      1.46      0.00
   -2   40    6     -2.94      0.00
  -27   40    8     -1.41      0.00
  -28   40    7      1.82      0.00
  -29   40    6     -0.86      0.00
  -30   40    5     -0.20      0.00
  -31   40    4      0.84      0.00
  -32   40    3     -0.10      0.00
  -33   40    2      1.94      0.00
  -34   40    1     -0.43      0.00
  -35   40    0     -1.92      0.00
    4   36    1      1.88      0.00
    3   37    2     -0.32      0.00
    2   38    3      4.71      0.00
    1   39    4     -1.39      0.00
    0   40    5      2.24      0.00
   -1   41    6     -0.85      0.00
  -28   42    8     -2.03      0.00
  -29   42    7      0.01      0.00
  -30   42    6      0.49      0.00
  -31   42    5      0.09      0.00
  -32   42    4      0.62      0.00
  -33   42    3      0.48      0.00
  -34   42    2      2.26      0.00
  -35   42    1      1.15      0.00
  -36   42    0     -0.37      0.00
    5   37    1     -1.05      0.00
    4   38    2      2.69      0.00
    3   39    3      1.08      0.00
    2   40    4      0.31      0.00
    1   41    5     -0.97      0.00
  -30   44    7     -1.30      0.00
  -31   44    6      0.85      0.00
  -32   44    5      2.48      0.00
  -33   44    4      0.01      0.00
  -34   44    3      1.84      0.00
  -35   44    2      1.89      0.00
  -36   44    1     -0.28      0.00
  -37   44    0     -1.47      0.00
    6   38    1      1.58      0.00
    5   39    2      2.52      0.00
    4   40    3     -0.41      0.00
    3   41    4     -1.13      0.00
    2   42    5     -3.88      0.00
  -32   46    6     -0.24      0.00
  -33   46    5      4.39      0.00
  -34   46    4      1.17      0.00
  -35   46    3      0.55      0.00
  -36   46    2      0.51      0.00
  -37   46    1      0.11      0.00
  -38   46    0     -0.56      0.00
    7   39    1      0.94      0.00
    6   40    2     -0.89      0.00
    5   41    3      2.55      0.00
    4   42    4     -1.11      0.00
  -34   48    5      5.00      0.00
  -35   48    4     -1.15      0.00
  -36   48    3     -1.10      0.00
  -37   48    2      1.66      0.00
  -38   48    1      1.11      0.00
  -39   48    0      0.81      0.00
    8   40    1     -0.81      0.00
    7   41    2      0.44      0.00
    6   42    3      0.53      0.00
  -36   50    4     -2.45      0.00
  -37   50    3     -0.44      0.00
  -38   50    2      1.50      0.00
  -39   50    1      0.87      0.00
  -40   50    0      0.40      0.00
    9   41    1     -0.67      0.00
    8   42    2      2.52      0.00
  -39   52    2     -0.05      0.00
  -40   52    1     -0.74      0.00
  -41   52    0      1.31      0.00
    1   10    6      7.11      0.00
  -22   23    6      0.67      0.00
  -23   24    7      1.07      0.00
  -24   25    8     -4.07      0.00
  -25   26    9     -2.16      0.00
  -26   27   10      0.44      0.00
    3    8    7     -3.50      0.00
    3    9    6     -5.38      0.00
    3   10    5      6.01      0.00
  -22   25    7     -1.80      0.00
  -23   26    8     -6.31      0.00
  -24   27    9     -2.80      0.00
  -25   28   10      0.38      0.00
    5    6    8     -5.70      0.00
    5    7    7     -2.00      0.00
    5    8    6      2.53      0.00
    5    9    5     -3.95      0.00
    5   10    4      0.31      0.00
  -22   27    8     -2.71      0.00
  -23   28    9      0.83      0.00
  -24   29   10     -2.58      0.00
  -11    7    9      0.43      0.00
  -12    7    8     -2.16      0.00
  -13    7    7     -2.58      0.00
    7    7    6      5.10      0.00
    7    8    5     -4.97      0.00
    7    9    4     -1.80      0.00
    7   10    3     -9.42      0.00
  -22   29    9      0.88      0.00
  -23   30   10     -0.51      0.00
  -11    9   10     -1.55      0.00
  -12    9    9      2.81      0.00
  -13    9    8     -3.59      0.00
  -14    9    7     -5.14      0.00
  -15    9    6     -2.81      0.00
  -16    9    5      2.66      0.00
  -17    9    4     -2.07      0.00
    9    9    3     -3.75      0.00
    9   10    2     -4.07      0.00
  -22   31   10      1.46      0.00
  -10   11   12     -0.97      0.00
  -12   11   10     -3.20      0.00
  -13   11    9     -1.56      0.00
  -14   11    8     -8.03      0.00
  -15   11    7      0.50      0.00
  -16   11    6     -0.12      0.00
  -17   11    5      1.67      0.00
  -18   11    4      5.11      0.00
  -19   11    3      3.18      0.00
  -20   11    2     -1.89      0.00
  -21   11    1      1.29      0.00
  -14   13    9     -3.67      0.00
  -15   13    8     -5.29      0.00
  -16   13    7      4.44      0.00
  -17   13    6     -2.28      0.00
  -18   13    5      3.55      0.00
  -19   13    4     -2.84      0.00
  -20   13    3      5.89      0.00
  -21   13    2      2.08      0.00
  -22   13    1    -14.10      0.00
  -10   23    0    -14.17      0.00
  -11   24    1     -0.86      0.00
  -16   15    8     -2.07      0.00
  -17   15    7     -3.28      0.00
  -18   15    6     -5.85      0.00
  -19   15    5      4.94      0.00
  -20   15    4     -9.08      0.00
  -21   15    3      2.32      0.00
  -22   15    2      0.19      0.00
  -23   15    1    -19.53      0.00
   -9   24    0    -10.60      0.00
  -10   25    1     -7.96      0.00
  -11   26    2     -3.49      0.00
  -18   17    7    -11.51      0.00
  -19   17    6      1.46      0.00
  -20   17    5     -2.79      0.00
  -21   17    4     -3.11      0.00
  -22   17    3     -3.39      0.00
  -23   17    2     -1.08      0.00
  -24   17    1    -12.68      0.00
   -8   25    0     -9.31      0.00
   -9   26    1     -4.94      0.00
  -10   27    2      4.96      0.00
  -11   28    3      0.83      0.00
  -20   19    6     -0.73      0.00
  -21   19    5     -2.92      0.00
  -22   19    4      0.88      0.00
  -23   19    3     -5.57      0.00
  -24   19    2     -5.43      0.00
  -25   19    1     -8.37      0.00
   -7   26    0     -4.29      0.00
   -8   27    1      0.40      0.00
   -9   28    2     -0.44      0.00
  -10   29    3      1.07      0.00
  -11   30    4      2.22      0.00
  -22   21    5      1.41      0.00
  -23   21    4      5.35      0.00
  -24   21    3     -4.41      0.00
  -25   21    2     -9.13      0.00
  -26   21    1     -6.05      0.00
   -6   27    0     -0.75      0.00
   -7   28    1     -1.93      0.00
   -8   29    2     -0.27      0.00
   -9   30    3     -0.33      0.00
  -10   31    4     -4.41      0.00
  -11   32    5      0.09      0.00
  -23   23    5     -1.33      0.00
  -24   23    4      4.18      0.00
  -25   23    3     -0.02      0.00
  -26   23    2     -1.50      0.00
  -27   23    1     -4.05      0.00
   -5   28    0     -4.90      0.00
   -6   29    1      1.37      0.00
   -7   30    2      4.06      0.00
   -8   31    3     -2.28      0.00
   -9   32    4     -1.18      0.00
  -10   33    5      2.57      0.00
  -11   34    6      0.19      0.00
  -23   25    6      4.13      0.00
  -24   25    5     -2.73      0.00
  -25   25    4     -3.08      0.00
  -26   25    3     -1.76      0.00
  -27   25    2      3.03      0.00
  -28   25    1     -0.80      0.00
   -4   29    0     -3.30      0.00
   -5   30    1      3.33      0.00
   -6   31    2     -1.95      0.00
   -7   32    3      1.88      0.00
   -8   33    4      1.65      0.00
   -9   34    5      5.19      0.00
  -10   35    6     -4.61      0.00
  -11   36    7      0.55      0.00
  -19   27   11      4.59      0.00
  -23   27    7     -1.12      0.00
  -24   27    6     -0.54      0.00
  -25   27    5     -1.38      0.00
  -26   27    4     -5.49      0.00
  -27   27    3     -5.72      0.00
  -28   27    2      0.23      0.00
  -29   27    1      0.53      0.00
   -3   30    0      4.57      0.00
   -4   31    1     -4.09      0.00
   -5   32    2     -1.83      0.00
   -6   33    3      1.94      0.00
   -7   34    4     -1.35      0.00
   -8   35    5      2.26      0.00
   -9   36    6     -1.73      0.00
  -10   37    7     -1.54      0.00
  -11   38    8      0.72      0.00
  -23   29    8      1.85      0.00
  -24   29    7      2.24      0.00
  -25   29    6      0.27      0.00
  -26   29    5     -0.86      0.00
  -27   29    4     -4.22      0.00
  -28   29    3     -2.97      0.00
  -29   29    2      2.51      0.00
  -30   29    1     -0.52      0.00
   -2   31    0     -2.67      0.00
   -3   32    1     -3.62      0.00
   -4   33    2      4.80      0.00
   -5   34    3     -1.94      0.00
   -6   35    4     -0.50      0.00
   -7   36    5     -2.35      0.00
   -8   37    6      0.82      0.00
   -9   38    7     -1.96      0.00
  -10   39    8      1.13      0.00
  -23   31    9      2.22      0.00
  -24   31    8      1.70      0.00
  -25   31    7      5.16      0.00
  -26   31    6      2.26      0.00
  -27   31    5     -0.17      0.00
  -28   31    4     -1.96      0.00
  -29   31    3      0.64      0.00
  -30   31    2      3.60      0.00
  -31   31    1     -2.24      0.00
   -1   32    0     -9.23      0.00
   -2   33    1      2.64      0.00
   -3   34    2     -0.42      0.00
   -4   35    3      1.80      0.00
   -5   36    4      0.06      0.00
   -6   37    5     -0.10      0.00
   -7   38    6     -1.28      0.00
   -8   39    7     -0.37      0.00
  -23   33   10     -1.16      0.00
  -24   33    9      1.86      0.00
  -25   33    8      1.29      0.00
  -26   33    7      3.70      0.00
  -27   33    6      1.70      0.00
  -28   33    5      0.40      0.00
  -29   33    4     -2.02      0.00
  -30   33    3      1.62      0.00
  -31   33    2      1.89      0.00
  -32   33    1     -2.56      0.00
    0   33    0      0.34      0.00
   -1   34    1      1.34      0.00
   -2   35    2     -1.87      0.00
   -3   36    3      3.09      0.00
   -4   37    4     -4.15      0.00
   -5   38    5      2.94      0.00
   -6   39    6      0.66      0.00
   -7   40    7      1.31      0.00
  -25   35    9      0.30      0.00
  -26   35    8      2.07      0.00
  -27   35    7      1.21      0.00
  -28   35    6      1.24      0.00
  -29   35    5      0.42      0.00
  -30   35    4     -3.12      0.00
  -31   35    3     -0.24      0.00
  -32   35    2      1.85      0.00
  -33   35    1      4.76      0.00
  -34   35    0      3.45      0.00
    0   35    1     -1.84      0.00
   -1   36    2      8.02      0.00
   -2   37    3     -2.13      0.00
   -3   38    4     -3.25      0.00
   -4   39    5     -1.22      0.00
   -5   40    6      2.76      0.00
   -6   41    7      1.00      0.00
  -26   37    9      0.36      0.00
  -27   37    8      2.45      0.00
  -28   37    7      1.39      0.00
  -29   37    6      1.66      0.00
  -30   37    5     -0.48      0.00
  -31   37    4     -1.82      0.00
  -32   37    3     -0.84      0.00
  -33   37    2      1.17      0.00
  -34   37    1      5.44      0.00
  -35   37    0      1.31      0.00
    1   36    1      0.67      0.00
    0   37    2      6.56      0.00
   -1   38    3     -0.39      0.00
   -2   39    4     -0.86      0.00
   -3   40    5     -3.37      0.00
   -4   41    6      0.63      0.00
  -28   39    8      2.50      0.00
  -29   39    7      1.75      0.00
  -30   39    6      1.00      0.00
  -31   39    5      0.31      0.00
  -32   39    4     -0.46      0.00
  -33   39    3     -0.63      0.00
  -34   39    2      2.26      0.00
  -35   39    1     -1.98      0.00
  -36   39    0      1.28      0.00
    2   37    1      2.17      0.00
    1   38    2     -0.86      0.00
    0   39    3      3.38      0.00
   -1   40    4     -1.77      0.00
   -2   41    5      1.12      0.00
   -3   42    6     -1.35      0.00
  -29   41    8     -1.70      0.00
  -30   41    7      1.76      0.00
  -31   41    6     -0.52      0.00
  -32   41    5      0.87      0.00
  -33   41    4     -0.21      0.00
  -34   41    3     -0.70      0.00
  -35   41    2      3.12      0.00
  -36   41    1     -0.57      0.00
  -37   41    0     -1.89      0.00
    3   38    1     -0.77      0.00
    2   39    2      0.93      0.00
    1   40    3      0.56      0.00
    0   41    4      1.15      0.00
   -1   42    5      1.25      0.00
  -31   43    7     -0.07      0.00
  -32   43    6      0.81      0.00
  -33   43    5      0.14      0.00
  -34   43    4     -0.53      0.00
  -35   43    3      3.00      0.00
  -36   43    2      0.57      0.00
  -37   43    1      0.79      0.00
  -38   43    0     -2.36      0.00
    4   39    1      0.23      0.00
    3   40    2      2.40      0.00
    2   41    3     -2.04      0.00
    1   42    4      2.78      0.00
    0   43    5     -1.03      0.00
  -33   45    6      0.66      0.00
  -34   45    5      2.59      0.00
  -35   45    4      0.74      0.00
  -36   45    3      2.88      0.00
  -37   45    2     -1.59      0.00
  -38   45    1     -0.20      0.00
  -39   45    0      0.30      0.00
    5   40    1      1.39      0.00
    4   41    2      1.29      0.00
    3   42    3      0.58      0.00
    2   43    4     -1.37      0.00
  -34   47    6     -1.57      0.00
  -35   47    5      3.71      0.00
  -36   47    4      0.49      0.00
  -37   47    3      0.22      0.00
  -38   47    2     -0.71      0.00
  -39   47    1      1.32      0.00
  -40   47    0      0.63      0.00
    6   41    1     -0.31      0.00
    5   42    2      1.55      0.00
    4   43    3      2.24      0.00
  -37   49    4     -1.75      0.00
  -38   49    3      1.18      0.00
  -39   49    2      1.66      0.00
  -40   49    1      0.49      0.00
  -41   49    0     -0.55      0.00
    7   42    1      0.26      0.00
    6   43    2      1.50      0.00
  -39   51    3      0.96      0.00
  -40   51    2      2.28      0.00
  -41   51    1     -0.70      0.00
  -42   51    0     -1.07      0.00
  -24   24    6      3.23      0.00
  -25   25    7      2.95      0.00
  -26   26    8     -2.00      0.00
  -27   27    9      0.44      0.00
  -28   28   10      0.20      0.00
    2   10    7      2.93      0.00
    2   11    6     -1.60      0.00
  -24   26    7      0.30      0.00
  -25   27    8     -6.32      0.00
  -26   28    9      1.00      0.00
  -27   29   10      0.36      0.00
    4    8    8     -1.87      0.00
    4    9    7     -4.38      0.00
    4   10    6     -5.10      0.00
    4   11    5     -0.61      0.00
  -24   28    8     -3.75      0.00
  -25   29    9      0.16      0.00
  -26   30   10     -0.29      0.00
    6    6    9     -1.03      0.00
    6    7    8     -0.57      0.00
    6    8    7     -0.55      0.00
    6    9    6     -1.06      0.00
    6   10    5     -4.81      0.00
    6   11    4     -1.31      0.00
  -24   30    9     -0.54      0.00
  -12    8   10     -0.54      0.00
  -13    8    9      1.81      0.00
  -14    8    8      0.93      0.00
  -15    8    7     -4.83      0.00
    8    8    6      2.65      0.00
    8    9    5      0.52      0.00
    8   10    4     -8.84      0.00
    8   11    3      0.98      0.00
  -12   10   11      3.23      0.00
  -13   10   10      0.19      0.00
  -14   10    9      1.36      0.00
  -15   10    8     -2.44      0.00
  -16   10    7      1.08      0.00
  -17   10    6      3.62      0.00
  -18   10    5      2.42      0.00
  -19   10    4     -2.70      0.00
   10   10    3      4.20      0.00
   10   11    2      7.74      0.00
  -13   12   11      0.71      0.00
  -14   12   10     -1.01      0.00
  -15   12    9     -2.98      0.00
  -16   12    8     -2.25      0.00
  -17   12    7     10.35      0.00
  -18   12    6      4.97      0.00
  -19   12    5     -3.80      0.00
  -20   12    4      0.63      0.00
  -21   12    3      3.56      0.00
  -22   12    2     15.65      0.00
  -23   12    1     -3.04      0.00
  -15   14   10     -1.12      0.00
  -16   14    9     -1.87      0.00
  -17   14    8     -0.50      0.00
  -18   14    7      5.86      0.00
  -19   14    6      3.66      0.00
  -20   14    5     -1.94      0.00
  -21   14    4     -8.90      0.00
  -22   14    3      7.52      0.00
  -23   14    2      9.87      0.00
  -24   14    1     -7.75      0.00
  -11   25    0      2.27      0.00
  -12   26    1     -7.30      0.00
  -17   16    9      2.49      0.00
  -18   16    8     -6.05      0.00
  -19   16    7      2.18      0.00
  -20   16    6      2.95      0.00
  -21   16    5      0.79      0.00
  -22   16    4     -9.01      0.00
  -23   16    3      2.55      0.00
  -24   16    2     10.07      0.00
  -25   16    1      2.42      0.00
  -10   26    0     -7.44      0.00
  -11   27    1     -5.40      0.00
  -12   28    2      0.27      0.00
  -19   18    8    -10.65      0.00
  -20   18    7      0.67      0.00
  -21   18    6      3.84      0.00
  -22   18    5     -1.91      0.00
  -23   18    4     -3.51      0.00
  -24   18    3     -2.17      0.00
  -25   18    2      7.91      0.00
  -26   18    1      6.58      0.00
   -9   27    0     -4.93      0.00
  -10   28    1     -2.66      0.00
  -11   29    2      0.04      0.00
  -12   30    3      2.44      0.00
  -21   20    7     -2.77      0.00
  -22   20    6      0.19      0.00
  -23   20    5      1.45      0.00
  -24   20    4     -4.98      0.00
  -25   20    3      0.31      0.00
  -26   20    2     -1.16      0.00
  -27   20    1      4.00      0.00
   -8   28    0      0.81      0.00
   -9   29    1     -3.89      0.00
  -10   30    2      2.91      0.00
  -11   31    3      1.48      0.00
  -12   32    4     -3.02      0.00
  -23   22    6     -0.34      0.00
  -24   22    5      2.12      0.00
  -25   22    4     -4.13      0.00
  -26   22    3      2.29      0.00
  -27   22    2      1.08      0.00
  -28   22    1     -0.01      0.00
   -7   29    0     -0.87      0.00
   -8   30    1      0.44      0.00
   -9   31    2      6.25      0.00
  -10   32    3     -2.19      0.00
  -11   33    4     -0.22      0.00
  -12   34    5      2.87      0.00
  -25   24    5     -2.56      0.00
  -26   24    4     -3.07      0.00
  -27   24    3     -0.35      0.00
  -28   24    2      7.76      0.00
  -29   24    1     -1.94      0.00
   -6   30    0     -0.49      0.00
   -7   31    1      5.23      0.00
   -8   32    2      0.84      0.00
   -9   33    3      1.82      0.00
  -10   34    4      2.18      0.00
  -11   35    5      3.63      0.00
  -12   36    6      1.43      0.00
  -25   26    6      0.80      0.00
  -26   26    5     -0.91      0.00
  -27   26    4     -5.56      0.00
  -28   26    3     -4.44      0.00
  -29   26    2      3.52      0.00
  -30   26    1      3.42      0.00
   -5   31    0      2.67      0.00
   -6   32    1      0.92      0.00
   -7   33    2     -1.52      0.00
   -8   34    3      3.17      0.00
   -9   35    4     -0.01      0.00
  -10   36    5      3.47      0.00
  -11   37    6     -2.34      0.00
  -12   38    7     -0.15      0.00
  -25   28    7     -1.59      0.00
  -26   28    6     -0.91      0.00
  -27   28    5      0.82      0.00
  -28   28    4     -4.53      0.00
  -29   28    3     -2.18      0.00
  -30   28    2      0.44      0.00
  -31   28    1      4.54      0.00
   -4   32    0     -0.93      0.00
   -5   33    1     -0.89      0.00
   -6   34    2      3.02      0.00
   -7   35    3     -4.35      0.00
   -8   36    4      0.42      0.00
   -9   37    5      1.26      0.00
  -10   38    6     -0.57      0.00
  -11   39    7     -2.57      0.00
  -12   40    8     -2.01      0.00
  -25   30    8      1.13      0.00
  -26   30    7      0.19      0.00
  -27   30    6      1.07      0.00
  -28   30    5     -0.92      0.00
  -29   30    4     -1.73      0.00
  -30   30    3      1.46      0.00
  -31   30    2      3.16      0.00
  -32   30    1     -1.25      0.00
   -3   33    0     -7.07      0.00
   -4   34    1     -0.37      0.00
   -5   35    2      1.11      0.00
   -6   36    3     -5.00      0.00
   -7   37    4      1.51      0.00
   -8   38    5      1.04      0.00
   -9   39    6     -0.99      0.00
  -10   40    7     -2.81      0.00
  -24   32   10      0.79      0.00
  -25   32    9     -1.15      0.00
  -26   32    8     -0.31      0.00
  -27   32    7      1.34      0.00
  -28   32    6      0.75      0.00
  -29   32    5     -0.92      0.00
  -30   32    4     -2.63      0.00
  -31   32    3      2.05      0.00
  -32   32    2     -1.87      0.00
  -33   32    1     -2.67      0.00
   -2   34    0     -0.98      0.00
   -3   35    1     -7.78      0.00
   -4   36    2     -1.94      0.00
   -5   37    3     -1.26      0.00
   -6   38    4     -1.38      0.00
   -7   39    5      4.24      0.00
   -8   40    6     -1.75      0.00
   -9   41    7      0.91      0.00
  -26   34    9     -0.84      0.00
  -27   34    8     -2.24      0.00
  -28   34    7     -1.24      0.00
  -29   34    6     -0.18      0.00
  -30   34    5      0.66      0.00
  -31   34    4     -5.25      0.00
  -32   34    3      0.11      0.00
  -33   34    2     -5.27      0.00
  -34   34    1      1.52      0.00
   -1   35    0      2.61      0.00
   -2   36    1     -7.78      0.00
   -3   37    2      2.29      0.00
   -4   38    3     -3.71      0.00
   -5   39    4     -1.63      0.00
   -6   40    5      1.47      0.00
   -7   41    6      1.31      0.00
   -8   42    7      2.74      0.00
  -27   36    9     -1.73      0.00
  -28   36    8     -0.95      0.00
  -29   36    7     -1.17      0.00
  -30   36    6     -0.54      0.00
  -31   36    5      0.19      0.00
  -32   36    4     -3.63      0.00
  -33   36    3     -2.64      0.00
  -34   36    2     -1.62      0.00
  -35   36    1      3.82      0.00
    0   36    0     -3.96      0.00
   -1   37    1      1.02      0.00
   -2   38    2      3.72      0.00
   -3   39    3     -2.83      0.00
   -4   40    4     -1.03      0.00
   -5   41    5     -4.35      0.00
   -6   42    6      3.03      0.00
  -28   38    9      0.93      0.00
  -29   38    8      2.05      0.00
  -30   38    7      0.45      0.00
  -31   38    6      0.18      0.00
  -32   38    5     -1.89      0.00
  -33   38    4     -0.67      0.00
  -34   38    3     -1.30      0.00
  -35   38    2     -1.02      0.00
  -36   38    1     -0.95      0.00
  -37   38    0     -1.62      0.00
    0   38    1      1.05      0.00
   -1   39    2     -0.77      0.00
   -2   40    3      0.88      0.00
   -3   41    4     -2.32      0.00
   -4   42    5     -2.67      0.00
   -5   43    6      1.71      0.00
  -30   40    8      1.56      0.00
  -31   40    7      0.75      0.00
  -32   40    6     -0.46      0.00
  -33   40    5     -0.86      0.00
  -34   40    4     -1.79      0.00
  -35   40    3     -0.41      0.00
  -36   40    2      1.35      0.00
  -37   40    1     -3.48      0.00
  -38   40    0     -0.47      0.00
    1   39    1     -1.81      0.00
    0   40    2     -1.77      0.00
   -1   41    3     -1.36      0.00
   -2   42    4     -0.12      0.00
   -3   43    5      0.82      0.00
  -32   42    7      1.48      0.00
  -33   42    6     -2.12      0.00
  -34   42    5     -0.71      0.00
  -35   42    4     -1.65      0.00
  -36   42    3      1.33      0.00
  -37   42    2      1.92      0.00
  -38   42    1     -0.15      0.00
  -39   42    0     -3.44      0.00
    2   40    1     -0.47      0.00
    1   41    2     -0.86      0.00
    0   42    3     -2.32      0.00
   -1   43    4      2.44      0.00
   -2   44    5      0.72      0.00
  -33   44    7      0.09      0.00
  -34   44    6     -0.54      0.00
  -35   44    5     -0.65      0.00
  -36   44    4      0.33      0.00
  -37   44    3      4.11      0.00
  -38   44    2     -2.11      0.00
  -39   44    1      1.00      0.00
  -40   44    0      0.50      0.00
    3   41    1     -0.22      0.00
    2   42    2     -0.14      0.00
    1   43    3     -0.20      0.00
    0   44    4      0.97      0.00
  -35   46    6     -1.07      0.00
  -36   46    5      2.24      0.00
  -37   46    4      0.31      0.00
  -38   46    3      1.90      0.00
  -39   46    2     -2.24      0.00
  -40   46    1      0.85      0.00
  -41   46    0      1.90      0.00
    4   42    1     -0.32      0.00
    3   43    2      2.30      0.00
    2   44    3      0.59      0.00
  -37   48    5      0.85      0.00
  -38   48    4      0.64      0.00
  -39   48    3      1.30      0.00
  -40   48    2     -1.02      0.00
  -41   48    1      0.19      0.00
  -42   48    0     -0.23      0.00
    5   43    1      1.10      0.00
    4   44    2      1.55      0.00
  -40   50    3      2.13      0.00
  -41   50    2      0.76      0.00
  -42   50    1     -1.45      0.00
  -43   50    0     -1.47      0.00
    6   44    1      1.72      0.00
    1   12    7     17.33      0.00
  -26   27    7     -0.58      0.00
  -27   28    8     -0.76      0.00
  -28   29    9      2.72      0.00
    3   10    8      0.20      0.00
    3   11    7      0.10      0.00
    3   12    6      6.94      0.00
  -26   29    8     -1.67      0.00
  -27   30    9      2.73      0.00
    5    8    9     -6.67      0.00
    5    9    8      0.52      0.00
    5   10    7      0.67      0.00
    5   11    6     -4.05      0.00
    5   12    5     -1.87      0.00
  -26   31    9     -1.66      0.00
  -13    7   10     -0.06      0.00
    7    7    9     -4.59      0.00
    7    8    8      0.86      0.00
    7    9    7     -1.71      0.00
    7   10    6     -3.32      0.00
    7   11    5      0.14      0.00
    7   12    4    -10.16      0.00
  -13    9   11      0.38      0.00
  -14    9   10      1.96      0.00
  -15    9    9     -1.44      0.00
  -16    9    8     -1.35      0.00
  -17    9    7     -7.09      0.00
    9    9    6      4.67      0.00
    9   10    5      2.48      0.00
    9   11    4     -4.19      0.00
    9   12    3     -4.51      0.00
  -13   11   12      0.09      0.00
  -14   11   11      1.04      0.00
  -15   11   10      1.53      0.00
  -16   11    9     -0.49      0.00
  -17   11    8     -4.16      0.00
  -18   11    7      2.13      0.00
  -19   11    6      4.21      0.00
  -20   11    5      1.62      0.00
  -21   11    4     -0.25      0.00
   11   11    3     -3.85      0.00
   11   12    2      8.35      0.00
  -14   13   12      1.34      0.00
  -15   13   11     -0.91      0.00
  -16   13   10      0.12      0.00
  -17   13    9     -0.78      0.00
  -18   13    8     -3.91      0.00
  -19   13    7      3.04      0.00
  -20   13    6      7.83      0.00
  -21   13    5     -4.34      0.00
  -22   13    4     -0.27      0.00
  -23   13    3     -1.88      0.00
  -24   13    2      2.04      0.00
  -25   13    1      0.64      0.00
  -16   15   11     -0.41      0.00
  -17   15   10     -1.17      0.00
  -18   15    9      0.04      0.00
  -19   15    8     -2.68      0.00
  -20   15    7      0.13      0.00
  -21   15    6      8.97      0.00
  -22   15    5      0.16      0.00
  -23   15    4     -2.38      0.00
  -24   15    3      1.32      0.00
  -25   15    2      0.49      0.00
  -26   15    1      6.55      0.00
  -12   27    0      9.39      0.00
  -13   28    1      3.09      0.00
  -18   17   10     -1.59      0.00
  -19   17    9     -0.21      0.00
  -20   17    8     -4.95      0.00
  -21   17    7      7.36      0.00
  -22   17    6      3.12      0.00
  -23   17    5      8.48      0.00
  -24   17    4     -3.00      0.00
  -25   17    3     -0.76      0.00
  -26   17    2      7.63      0.00
  -27   17    1      7.49      0.00
  -11   28    0     -1.36      0.00
  -12   29    1      3.90      0.00
  -13   30    2     -1.57      0.00
  -20   19    9     -5.85      0.00
  -21   19    8     -2.16      0.00
  -22   19    7      6.06      0.00
  -23   19    6      4.09      0.00
  -24   19    5      6.75      0.00
  -25   19    4     -3.95      0.00
  -26   19    3     -2.56      0.00
  -27   19    2      1.18      0.00
  -28   19    1      4.42      0.00
  -10   29    0      1.18      0.00
  -11   30    1     -3.73      0.00
  -12   31    2      1.13      0.00
  -13   32    3     -0.66      0.00
  -22   21    8      5.48      0.00
  -23   21    7     -0.99      0.00
  -24   21    6      6.84      0.00
  -25   21    5      2.38      0.00
  -26   21    4     -5.83      0.00
  -27   21    3     -0.60      0.00
  -28   21    2     -4.13      0.00
  -29   21    1     -0.29      0.00
   -9   30    0      0.04      0.00
  -10   31    1     -2.31      0.00
  -11   32    2      4.35      0.00
  -12   33    3     -1.58      0.00
  -13   34    4      2.85      0.00
  -24   23    7      1.10      0.00
  -25   23    6      5.11      0.00
  -26   23    5     -0.23      0.00
  -27   23    4     -4.66      0.00
  -28   23    3     -1.48      0.00
  -29   23    2      1.68      0.00
  -30   23    1     -4.07      0.00
   -8   31    0      0.35      0.00
   -9   32    1      1.08      0.00
  -10   33    2      2.36      0.00
  -11   34    3      2.95      0.00
  -12   35    4      2.43      0.00
  -13   36    5      2.90      0.00
  -26   25    6      2.61      0.00
  -27   25    5      0.12      0.00
  -28   25    4     -4.59      0.00
  -29   25    3     -5.07      0.00
  -30   25    2      1.90      0.00
  -31   25    1      0.48      0.00
   -7   32    0      2.79      0.00
   -8   33    1     -0.22      0.00
   -9   34    2      2.34      0.00
  -10   35    3      3.93      0.00
  -11   36    4     -1.57      0.00
  -12   37    5      0.82      0.00
  -13   38    6      0.61      0.00
  -22   27   11      1.56      0.00
  -27   27    6      1.24      0.00
  -28   27    5      2.40      0.00
  -29   27    4     -4.53      0.00
  -30   27    3     -2.92      0.00
  -31   27    2     -3.25      0.00
  -32   27    1      8.14      0.00
   -6   33    0      0.34      0.00
   -7   34    1      2.65      0.00
   -8   35    2      4.77      0.00
   -9   36    3     -3.17      0.00
  -10   37    4     -0.59      0.00
  -11   38    5     -1.99      0.00
  -12   39    6      0.26      0.00
  -13   40    7     -1.10      0.00
  -27   29    7     -1.35      0.00
  -28   29    6      1.52      0.00
  -29   29    5      1.76      0.00
  -30   29    4     -2.36      0.00
  -31   29    3      2.06      0.00
  -32   29    2      0.36      0.00
  -33   29    1      3.56      0.00
   -5   34    0     -1.60      0.00
   -6   35    1      4.79      0.00
   -7   36    2      2.58      0.00
   -8   37    3     -5.48      0.00
   -9   38    4      2.26      0.00
  -10   39    5     -0.45      0.00
  -11   40    6     -0.47      0.00
  -12   41    7     -3.22      0.00
  -25   31   10      0.77      0.00
  -27   31    8      2.21      0.00
  -28   31    7      0.46      0.00
  -29   31    6      1.10      0.00
  -30   31    5     -0.43      0.00
  -31   31    4     -1.67      0.00
  -32   31    3      1.81      0.00
  -33   31    2      1.05      0.00
  -34   31    1     -1.25      0.00
   -4   35    0      0.93      0.00
   -5   36    1     -4.75      0.00
   -6   37    2      0.42      0.00
   -7   38    3     -1.98      0.00
   -8   39    4      0.94      0.00
   -9   40    5      4.33      0.00
  -10   41    6     -2.07      0.00
  -11   42    7     -1.65      0.00
  -26   33   10     -0.77      0.00
  -27   33    9     -1.12      0.00
  -28   33    8     -0.50      0.00
  -29   33    7     -0.19      0.00
  -30   33    6      1.19      0.00
  -31   33    5     -1.42      0.00
  -32   33    4     -2.96      0.00
  -33   33    3     -0.25      0.00
  -34   33    2     -6.75      0.00
  -35   33    1      3.05      0.00
   -3   36    0      3.07      0.00
   -4   37    1    -11.05      0.00
   -5   38    2      1.64      0.00
   -6   39    3     -1.76      0.00
   -7   40    4      0.77      0.00
   -8   41    5      3.74      0.00
   -9   42    6      0.29      0.00
  -28   35    9     -0.47      0.00
  -29   35    8     -1.72      0.00
  -30   35    7     -1.36      0.00
  -31   35    6      1.51      0.00
  -32   35    5     -0.10      0.00
  -33   35    4     -3.53      0.00
  -34   35    3     -1.03      0.00
  -35   35    2     -4.74      0.00
  -36   35    1      1.90      0.00
   -2   37    0     -0.42      0.00
   -3   38    1     -1.12      0.00
   -4   39    2      1.02      0.00
   -5   40    3     -1.05      0.00
   -6   41    4      1.66      0.00
   -7   42    5     -2.22      0.00
   -8   43    6      1.32      0.00
  -29   37    9      0.07      0.00
  -30   37    8      1.60      0.00
  -31   37    7      0.40      0.00
  -32   37    6      0.17      0.00
  -33   37    5      0.26      0.00
  -34   37    4      0.08      0.00
  -35   37    3     -0.60      0.00
  -36   37    2     -1.50      0.00
  -37   37    1     -0.95      0.00
   -1   38    0     -2.42      0.00
   -2   39    1      3.97      0.00
   -3   40    2      1.05      0.00
   -4   41    3      1.63      0.00
   -5   42    4     -0.64      0.00
   -6   43    5     -2.80      0.00
   -7   44    6     -0.93      0.00
  -31   39    8      2.03      0.00
  -32   39    7      1.99      0.00
  -33   39    6      0.64      0.00
  -34   39    5     -1.11      0.00
  -35   39    4      0.39      0.00
  -36   39    3      1.09      0.00
  -37   39    2     -2.51      0.00
  -38   39    1     -0.30      0.00
    0   39    0     -0.16      0.00
   -1   40    1     -0.07      0.00
   -2   41    2      1.74      0.00
   -3   42    3      0.37      0.00
   -4   43    4     -0.04      0.00
   -5   44    5     -0.15      0.00
  -32   41    8      0.70      0.00
  -33   41    7      1.67      0.00
  -34   41    6     -0.25      0.00
  -35   41    5     -0.56      0.00
  -36   41    4     -2.47      0.00
  -37   41    3      1.11      0.00
  -38   41    2      1.34      0.00
  -39   41    1     -0.70      0.00
  -40   41    0     -0.49      0.00
    0   41    1      0.65      0.00
   -1   42    2     -0.08      0.00
   -2   43    3     -0.55      0.00
   -3   44    4      1.48      0.00
   -4   45    5      0.90      0.00
  -34   43    7      1.88      0.00
  -35   43    6     -2.08      0.00
  -36   43    5     -0.50      0.00
  -37   43    4      0.22      0.00
  -38   43    3      1.48      0.00
  -39   43    2      1.11      0.00
  -40   43    1      1.02      0.00
  -41   43    0      0.44      0.00
    1   42    1      0.34      0.00
    0   43    2     -0.42      0.00
   -1   44    3      1.83      0.00
   -2   45    4     -0.46      0.00
  -36   45    6     -0.83      0.00
  -37   45    5      0.09      0.00
  -38   45    4      0.87      0.00
  -39   45    3      2.51      0.00
  -40   45    2     -1.30      0.00
  -41   45    1      1.72      0.00
  -42   45    0      2.63      0.00
    2   43    1     -0.47      0.00
    1   44    2      0.93      0.00
    0   45    3      0.94      0.00
  -38   47    5      1.69      0.00
  -39   47    4     -0.11      0.00
  -40   47    3      0.80      0.00
  -41   47    2     -1.36      0.00
  -42   47    1      0.14      0.00
  -43   47    0      1.31      0.00
    3   44    1      1.20      0.00
    2   45    2      0.20      0.00
  -40   49    4      2.51      0.00
  -41   49    3     -0.24      0.00
  -42   49    2     -1.76      0.00
  -43   49    1     -0.91      0.00
  -44   49    0     -0.32      0.00
    4   45    1      1.69      0.00
  -28   28    7      0.60      0.00
  -29   29    8      1.54      0.00
  -30   30    9      2.29      0.00
    2   12    8      0.98      0.00
    2   13    7      0.62      0.00
  -28   30    8      3.45      0.00
  -29   31    9      2.09      0.00
    4   10    9     -4.64      0.00
    4   11    8     -0.20      0.00
    4   12    7     -1.86      0.00
    4   13    6      5.17      0.00
  -28   32    9      0.27      0.00
    6    8   10      1.99      0.00
    6    9    9     -4.71      0.00
    6   10    8      0.88      0.00
    6   11    7     -0.18      0.00
    6   12    6     -7.27      0.00
    6   13    5     -0.04      0.00
  -14    8   11     -3.18      0.00
  -15    8   10      2.31      0.00
    8    8    9     -3.37      0.00
    8    9    8     -1.54      0.00
    8   10    7     -7.10      0.00
    8   11    6     -1.16      0.00
    8   12    5     -0.70      0.00
    8   13    4      2.90      0.00
  -14   10   12     -1.51      0.00
  -15   10   11     -1.84      0.00
  -16   10   10      1.42      0.00
  -17   10    9     -1.33      0.00
  -18   10    8     -1.98      0.00
  -19   10    7     -9.04      0.00
   10   10    6      0.08      0.00
   10   11    5      2.30      0.00
   10   12    4      3.81      0.00
   10   13    3     -6.56      0.00
  -15   12   12     -1.10      0.00
  -16   12   11     -2.21      0.00
  -17   12   10     -0.32      0.00
  -18   12    9      0.60      0.00
  -19   12    8     -3.80      0.00
  -20   12    7     -2.95      0.00
  -21   12    6     -2.97      0.00
  -22   12    5      0.89      0.00
  -23   12    4     -1.05      0.00
   12   12    3     -3.68      0.00
   12   13    2    -12.07      0.00
  -16   14   12      0.78      0.00
  -17   14   11     -3.76      0.00
  -18   14   10     -1.03      0.00
  -19   14    9      1.84      0.00
  -20   14    8     -2.93      0.00
  -21   14    7     -5.25      0.00
  -22   14    6      3.02      0.00
  -23   14    5     -3.67      0.00
  -24   14    4      4.91      0.00
  -25   14    3     -6.75      0.00
  -26   14    2    -15.02      0.00
  -27   14    1     -2.26      0.00
  -17   16   12      0.96      0.00
  -18   16   11     -3.00      0.00
  -19   16   10      1.13      0.00
  -20   16    9      2.93      0.00
  -21   16    8      1.25      0.00
  -22   16    7     -3.49      0.00
  -23   16    6      0.61      0.00
  -24   16    5      5.02      0.00
  -25   16    4      5.21      0.00
  -26   16    3     -2.99      0.00
  -27   16    2     -5.82      0.00
  -28   16    1     -9.42      0.00
  -13   29    0     -3.00      0.00
  -14   30    1     -0.06      0.00
  -19   18   11     -0.28      0.00
  -20   18   10      3.02      0.00
  -21   18    9      0.11      0.00
  -22   18    8      2.02      0.00
  -23   18    7      4.35      0.00
  -24   18    6     -3.64      0.00
  -25   18    5      9.57      0.00
  -26   18    4     -1.15      0.00
  -27   18    3     -1.20      0.00
  -28   18    2     -2.63      0.00
  -29   18    1    -11.74      0.00
  -12   30    0     -5.07      0.00
  -13   31    1     -4.83      0.00
  -14   32    2     -2.43      0.00
  -21   20   10      1.04      0.00
  -22   20    9     -1.87      0.00
  -23   20    8      4.08      0.00
  -24   20    7      0.33      0.00
  -25   20    6      2.70      0.00
  -26   20    5      0.13      0.00
  -27   20    4     -1.78      0.00
  -28   20    3     -3.91      0.00
  -29   20    2     -7.95      0.00
  -30   20    1     -8.72      0.00
  -11   31    0     -3.61      0.00
  -12   32    1     -3.96      0.00
  -13   33    2     -1.60      0.00
  -14   34    3     -5.80      0.00
  -23   22    9      2.25      0.00
  -24   22    8      3.75      0.00
  -25   22    7     -3.33      0.00
  -26   22    6      4.91      0.00
  -27   22    5     -3.86      0.00
  -28   22    4     -1.08      0.00
  -29   22    3     -2.76      0.00
  -30   22    2     -6.61      0.00
  -31   22    1     -5.99      0.00
  -10   32    0     -1.21      0.00
  -11   33    1     -1.12      0.00
  -12   34    2     -2.99      0.00
  -13   35    3      1.08      0.00
  -14   36    4      1.96      0.00
  -25   24    8     -0.66      0.00
  -26   24    7      0.49      0.00
  -27   24    6      1.73      0.00
  -28   24    5     -0.33      0.00
  -29   24    4     -3.67      0.00
  -30   24    3     -1.84      0.00
  -31   24    2     -3.04      0.00
  -32   24    1     -0.44      0.00
   -9   33    0      2.30      0.00
  -10   34    1     -6.26      0.00
  -11   35    2      0.46      0.00
  -12   36    3      2.38      0.00
  -13   37    4     -2.72      0.00
  -14   38    5      0.29      0.00
  -23   26   11      1.04      0.00
  -27   26    7      0.25      0.00
  -28   26    6      1.33      0.00
  -29   26    5      1.07      0.00
  -30   26    4     -3.71      0.00
  -31   26    3     -2.45      0.00
  -32   26    2     -4.15      0.00
  -33   26    1      7.54      0.00
   -8   34    0      1.72      0.00
   -9   35    1     -3.96      0.00
  -10   36    2      3.07      0.00
  -11   37    3     -3.23      0.00
  -12   38    4     -3.64      0.00
  -13   39    5     -3.97      0.00
  -14   40    6     -0.34      0.00
  -29   28    6      1.27      0.00
  -30   28    5     -0.01      0.00
  -31   28    4     -1.99      0.00
  -32   28    3      1.08      0.00
  -33   28    2     -0.68      0.00
  -34   28    1      8.46      0.00
   -7   35    0      0.08      0.00
   -8   36    1      3.48      0.00
   -9   37    2      0.57      0.00
  -10   38    3     -3.76      0.00
  -11   39    4     -0.02      0.00
  -12   40    5     -4.75      0.00
  -13   41    6      0.18      0.00
  -14   42    7     -3.94      0.00
  -29   30    7      2.73      0.00
  -30   30    6      0.17      0.00
  -31   30    5     -1.22      0.00
  -32   30    4     -3.58      0.00
  -33   30    3      3.73      0.00
  -34   30    2      5.49      0.00
  -35   30    1      1.91      0.00
   -6   36    0      2.29      0.00
   -7   37    1      0.02      0.00
   -8   38    2     -0.83      0.00
   -9   39    3     -0.31      0.00
  -10   40    4      1.36      0.00
  -11   41    5      0.77      0.00
  -12   42    6     -1.92      0.00
  -13   43    7     -1.71      0.00
  -27   32   10      0.04      0.00
  -29   32    8      4.88      0.00
  -30   32    7      2.24      0.00
  -31   32    6     -0.05      0.00
  -32   32    5     -3.51      0.00
  -33   32    4     -2.85      0.00
  -34   32    3     -0.34      0.00
  -35   32    2      1.65      0.00
  -36   32    1      3.73      0.00
   -5   37    0      1.57      0.00
   -6   38    1     -5.94      0.00
   -7   39    2      0.30      0.00
   -8   40    3     -0.90      0.00
   -9   41    4      0.62      0.00
  -10   42    5      4.74      0.00
  -11   43    6      0.51      0.00
  -29   34    9     -0.16      0.00
  -30   34    8      1.27      0.00
  -31   34    7      1.40      0.00
  -32   34    6      1.61      0.00
  -33   34    5     -4.97      0.00
  -34   34    4     -0.62      0.00
  -35   34    3     -0.92      0.00
  -36   34    2     -3.08      0.00
  -37   34    1      4.48      0.00
   -4   38    0      0.84      0.00
   -5   39    1     -2.63      0.00
   -6   40    2     -1.31      0.00
   -7   41    3     -0.66      0.00
   -8   42    4      0.58      0.00
   -9   43    5      0.54      0.00
  -10   44    6      3.60      0.00
  -30   36    9      0.79      0.00
  -31   36    8      1.35      0.00
  -32   36    7      0.69      0.00
  -33   36    6      1.40      0.00
  -34   36    5     -1.01      0.00
  -35   36    4      0.30      0.00
  -36   36    3      2.40      0.00
  -37   36    2     -0.79      0.00
  -38   36    1     -2.07      0.00
   -3   39    0      2.11      0.00
   -4   40    1      1.99      0.00
   -5   41    2     -1.15      0.00
   -6   42    3      1.42      0.00
   -7   43    4     -0.27      0.00
   -8   44    5     -2.45      0.00
   -9   45    6     -1.95      0.00
  -32   38    8      1.78      0.00
  -33   38    7      2.23      0.00
  -34   38    6     -0.45      0.00
  -35   38    5      1.58      0.00
  -36   38    4      2.11      0.00
  -37   38    3      1.75      0.00
  -38   38    2     -1.39      0.00
  -39   38    1     -0.33      0.00
   -2   40    0     -0.32      0.00
   -3   41    1      1.25      0.00
   -4   42    2      2.90      0.00
   -5   43    3      1.32      0.00
   -6   44    4     -0.69      0.00
   -7   45    5      0.45      0.00
  -33   40    8     -0.28      0.00
  -34   40    7      2.46      0.00
  -35   40    6      0.30      0.00
  -36   40    5     -0.39      0.00
  -37   40    4      0.00      0.00
  -38   40    3      0.49      0.00
  -39   40    2     -1.78      0.00
  -40   40    1      1.15      0.00
   -1   41    0     -0.85      0.00
   -2   42    1      0.62      0.00
   -3   43    2      1.93      0.00
   -4   44    3      2.06      0.00
   -5   45    4      0.53      0.00
   -6   46    5      1.68      0.00
  -35   42    7     -0.23      0.00
  -36   42    6     -0.69      0.00
  -37   42    5     -0.18      0.00
  -38   42    4     -1.31      0.00
  -39   42    3     -0.77      0.00
  -40   42    2      0.99      0.00
  -41   42    1     -0.93      0.00
    0   42    0      0.58      0.00
   -1   43    1      0.13      0.00
   -2   44    2      0.61      0.00
   -3   45    3      2.56      0.00
   -4   46    4     -0.91      0.00
  -37   44    6     -2.94      0.00
  -38   44    5     -0.68      0.00
  -39   44    4      0.98      0.00
  -40   44    3      0.36      0.00
  -41   44    2      0.46      0.00
  -42   44    1      0.44      0.00
  -43   44    0      0.26      0.00
    0   44    1     -0.44      0.00
   -1   45    2      1.13      0.00
   -2   46    3      0.69      0.00
  -39   46    5     -1.44      0.00
  -40   46    4     -0.23      0.00
  -41   46    3      1.79      0.00
  -42   46    2     -0.44      0.00
  -43   46    1      0.15      0.00
  -44   46    0      0.17      0.00
    1   45    1      0.21      0.00
    0   46    2     -2.19      0.00
  -41   48    4     -0.69      0.00
  -42   48    3     -1.73      0.00
  -43   48    2      0.06      0.00
  -44   48    1     -0.58      0.00
  -45   48    0     -0.82      0.00
    2   46    1     -0.84      0.00
    1   14    8      5.23      0.00
  -30   31    8      2.80      0.00
  -31   32    9      0.07      0.00
    3   12    9      1.88      0.00
    3   13    8      2.15      0.00
    3   14    7     -3.22      0.00
  -30   33    9     -1.71      0.00
    5   10   10      1.44      0.00
    5   11    9      2.24      0.00
    5   12    8      2.52      0.00
    5   13    7     -1.44      0.00
    5   14    6     -2.44      0.00
    7    8   11     -0.71      0.00
    7    9   10      1.48      0.00
    7   10    9      1.64      0.00
    7   11    8      0.81      0.00
    7   12    7     -1.39      0.00
    7   13    6     -1.70      0.00
    7   14    5     -3.18      0.00
  -15    9   12     -0.99      0.00
  -16    9   11     -1.18      0.00
  -17    9   10      0.75      0.00
    9    9    9     -0.59      0.00
    9   10    8     -0.39      0.00
    9   11    7     -3.65      0.00
    9   12    6      2.14      0.00
    9   13    5     -1.01      0.00
    9   14    4      9.79      0.00
  -16   11   12     -0.19      0.00
  -17   11   11     -0.79      0.00
  -18   11   10     -0.55      0.00
  -19   11    9     -1.76      0.00
  -20   11    8      2.00      0.00
  -21   11    7     -1.56      0.00
   11   11    6     -2.80      0.00
   11   12    5      2.61      0.00
   11   13    4     -0.94      0.00
   11   14    3      6.83      0.00
  -17   13   12     -0.15      0.00
  -18   13   11     -1.80      0.00
  -19   13   10     -2.01      0.00
  -20   13    9     -1.18      0.00
  -21   13    8      1.13      0.00
  -22   13    7      3.51      0.00
  -23   13    6     -4.57      0.00
  -24   13    5      0.48      0.00
  -25   13    4     -1.10      0.00
   13   13    3      1.92      0.00
   13   14    2     -9.00      0.00
  -18   15   12      0.72      0.00
  -19   15   11     -2.25      0.00
  -20   15   10     -0.17      0.00
  -21   15    9      2.25      0.00
  -22   15    8      1.99      0.00
  -23   15    7     -2.03      0.00
  -24   15    6      1.07      0.00
  -25   15    5      1.23      0.00
  -26   15    4      9.49      0.00
  -27   15    3     -4.32      0.00
  -28   15    2     -2.36      0.00
  -29   15    1     -5.36      0.00
  -20   17   11      0.90      0.00
  -21   17   10      3.39      0.00
  -22   17    9      1.56      0.00
  -23   17    8      4.11      0.00
  -24   17    7     -3.94      0.00
  -25   17    6     -0.51      0.00
  -26   17    5      6.23      0.00
  -27   17    4      7.40      0.00
  -28   17    3      2.40      0.00
  -29   17    2      1.63      0.00
  -30   17    1    -12.68      0.00
  -14   31    0     -0.58      0.00
  -15   32    1     -4.82      0.00
  -21   19   11      1.54      0.00
  -22   19   10      2.11      0.00
  -23   19    9     -1.96      0.00
  -24   19    8      1.25      0.00
  -25   19    7     -1.18      0.00
  -26   19    6     -2.41      0.00
  -27   19    5      1.72      0.00
  -28   19    4      2.03      0.00
  -29   19    3      3.29      0.00
  -30   19    2     -0.13      0.00
  -31   19    1     -7.84      0.00
  -13   32    0     -2.57      0.00
  -14   33    1     -0.21      0.00
  -15   34    2      0.85      0.00
  -22   21   11     -0.03      0.00
  -23   21   10     -0.34      0.00
  -24   21    9     -1.88      0.00
  -25   21    8     -1.51      0.00
  -26   21    7     -5.20      0.00
  -27   21    6      0.91      0.00
  -28   21    5     -3.46      0.00
  -29   21    4      3.82      0.00
  -30   21    3     -0.38      0.00
  -31   21    2     -0.62      0.00
  -32   21    1     -2.51      0.00
  -12   33    0      2.23      0.00
  -13   34    1      4.58      0.00
  -14   35    2     -2.76      0.00
  -15   36    3     -0.50      0.00
  -24   23   10     -1.09      0.00
  -25   23    9     -1.54      0.00
  -26   23    8     -2.22      0.00
  -27   23    7     -4.45      0.00
  -28   23    6      1.24      0.00
  -29   23    5     -0.13      0.00
  -30   23    4      1.78      0.00
  -31   23    3      3.06      0.00
  -32   23    2      0.52      0.00
  -33   23    1      2.81      0.00
  -11   34    0      4.72      0.00
  -12   35    1     -0.40      0.00
  -13   36    2     -0.55      0.00
  -14   37    3      2.05      0.00
  -15   38    4     -1.43      0.00
  -24   25   11      3.21      0.00
  -26   25    9     -1.31      0.00
  -27   25    8     -2.13      0.00
  -28   25    7     -1.21      0.00
  -29   25    6      1.42      0.00
  -30   25    5      1.92      0.00
  -31   25    4     -1.73      0.00
  -32   25    3      4.40      0.00
  -33   25    2     -1.65      0.00
  -34   25    1      7.94      0.00
  -10   35    0      3.66      0.00
  -11   36    1     -4.61      0.00
  -12   37    2      1.66      0.00
  -13   38    3     -2.58      0.00
  -14   39    4     -2.13      0.00
  -15   40    5      0.07      0.00
  -28   27    8     -0.54      0.00
  -29   27    7     -0.86      0.00
  -30   27    6      1.68      0.00
  -31   27    5     -0.28      0.00
  -32   27    4      0.26      0.00
  -33   27    3      0.98      0.00
  -34   27    2     -0.12      0.00
  -35   27    1      7.91      0.00
   -9   36    0      2.30      0.00
  -10   37    1      0.43      0.00
  -11   38    2     -1.74      0.00
  -12   39    3     -2.02      0.00
  -13   40    4     -1.49      0.00
  -14   41    5     -2.24      0.00
  -15   42    6     -0.33      0.00
  -30   29    7      1.49      0.00
  -31   29    6     -0.22      0.00
  -32   29    5     -2.19      0.00
  -33   29    4     -1.46      0.00
  -34   29    3      2.92      0.00
  -35   29    2      5.08      0.00
  -36   29    1      3.30      0.00
   -8   37    0      1.33      0.00
   -9   38    1      1.14      0.00
  -10   39    2     -2.15      0.00
  -11   40    3      2.42      0.00
  -12   41    4      0.02      0.00
  -13   42    5     -2.01      0.00
  -14   43    6     -1.33      0.00
  -15   44    7     -3.91      0.00
  -28   31   10     -1.43      0.00
  -31   31    7      1.20      0.00
  -32   31    6     -1.00      0.00
  -33   31    5     -2.54      0.00
  -34   31    4     -5.25      0.00
  -35   31    3      2.08      0.00
  -36   31    2      5.08      0.00
  -37   31    1      1.62      0.00
   -7   38    0     -0.66      0.00
   -8   39    1     -2.09      0.00
   -9   40    2     -0.45      0.00
  -10   41    3      0.78      0.00
  -11   42    4      0.46      0.00
  -12   43    5      1.81      0.00
  -13   44    6     -1.04      0.00
  -31   33    8      1.71      0.00
  -32   33    7      0.20      0.00
  -33   33    6     -1.30      0.00
  -34   33    5     -3.99      0.00
  -35   33    4     -1.33      0.00
  -36   33    3     -3.09      0.00
  -37   33    2      1.35      0.00
  -38   33    1      3.09      0.00
   -6   39    0     -2.50      0.00
   -7   40    1     -0.46      0.00
   -8   41    2     -2.68      0.00
   -9   42    3     -2.18      0.00
  -10   43    4     -1.48      0.00
  -11   44    5      3.16      0.00
  -12   45    6      3.72      0.00
  -31   35    9     -0.70      0.00
  -32   35    8     -0.72      0.00
  -33   35    7      0.73      0.00
  -34   35    6     -0.48      0.00
  -35   35    5     -3.99      0.00
  -36   35    4      2.15      0.00
  -37   35    3      0.57      0.00
  -38   35    2     -0.75      0.00
  -39   35    1     -0.83      0.00
   -5   40    0      0.76      0.00
   -6   41    1     -0.97      0.00
   -7   42    2     -3.99      0.00
   -8   43    3     -0.77      0.00
   -9   44    4     -3.63      0.00
  -10   45    5     -1.17      0.00
  -11   46    6      2.92      0.00
  -33   37    8     -0.93      0.00
  -34   37    7      0.83      0.00
  -35   37    6     -0.39      0.00
  -36   37    5      0.55      0.00
  -37   37    4      1.53      0.00
  -38   37    3      3.01      0.00
  -39   37    2      0.05      0.00
  -40   37    1     -3.52      0.00
   -4   41    0      0.41      0.00
   -5   42    1     -1.84      0.00
   -6   43    2     -0.97      0.00
   -7   44    3     -0.91      0.00
   -8   45    4     -2.84      0.00
   -9   46    5     -1.70      0.00
  -34   39    8      0.32      0.00
  -35   39    7      2.13      0.00
  -36   39    6     -1.63      0.00
  -37   39    5      1.19      0.00
  -38   39    4      2.09      0.00
  -39   39    3     -1.42      0.00
  -40   39    2     -0.54      0.00
  -41   39    1     -0.75      0.00
   -3   42    0     -2.57      0.00
   -4   43    1     -0.52      0.00
   -5   44    2      0.02      0.00
   -6   45    3      0.49      0.00
   -7   46    4     -2.09      0.00
   -8   47    5      2.42      0.00
  -36   41    7      0.25      0.00
  -37   41    6     -0.56      0.00
  -38   41    5     -0.57      0.00
  -39   41    4      0.32      0.00
  -40   41    3     -3.13      0.00
  -41   41    2     -1.42      0.00
  -42   41    1     -0.65      0.00
   -2   43    0     -0.57      0.00
   -3   44    1     -1.49      0.00
   -4   45    2     -0.50      0.00
   -5   46    3      2.15      0.00
   -6   47    4     -2.12      0.00
  -38   43    6     -2.02      0.00
  -39   43    5      0.06      0.00
  -40   43    4     -0.71      0.00
  -41   43    3     -1.39      0.00
  -42   43    2     -0.72      0.00
  -43   43    1     -1.21      0.00
   -1   44    0     -0.47      0.00
   -2   45    1     -0.30      0.00
   -3   46    2      0.71      0.00
   -4   47    3     -2.60      0.00
  -40   45    5     -2.40      0.00
  -41   45    4      0.99      0.00
  -42   45    3      1.61      0.00
  -43   45    2     -1.02      0.00
  -44   45    1     -0.39      0.00
    0   45    0     -1.10      0.00
   -1   46    1      1.15      0.00
   -2   47    2     -1.68      0.00
  -42   47    4     -0.78      0.00
  -43   47    3      0.18      0.00
  -44   47    2      1.55      0.00
  -45   47    1     -0.35      0.00
  -46   47    0     -1.53      0.00
    0   47    1     -1.21      0.00
  -32   32    8      0.40      0.00
    2   14    9      3.47      0.00
    2   15    8      3.49      0.00
    4   12   10     -1.18      0.00
    4   13    9      5.27      0.00
    4   14    8      3.63      0.00
    4   15    7     -0.17      0.00
    6   10   11      1.68      0.00
    6   11   10      0.37      0.00
    6   12    9      6.70      0.00
    6   13    8      2.03      0.00
    6   14    7     -1.46      0.00
    6   15    6      1.61      0.00
    8    8   12     -0.02      0.00
    8    9   11      2.24      0.00
    8   10   10     -0.90      0.00
    8   11    9      3.72      0.00
    8   12    8     -1.22      0.00
    8   13    7      1.32      0.00
    8   14    6      2.29      0.00
    8   15    5     -1.05      0.00
  -17   10   12     -0.08      0.00
  -18   10   11      2.36      0.00
  -19   10   10     -0.52      0.00
   10   10    9     -0.24      0.00
   10   11    8     -0.76      0.00
   10   12    7      1.55      0.00
   10   13    6      1.59      0.00
   10   14    5      0.26      0.00
   10   15    4      0.85      0.00
  -18   12   12     -0.08      0.00
  -19   12   11      0.98      0.00
  -20   12   10     -0.39      0.00
  -21   12    9     -3.17      0.00
  -22   12    8      3.29      0.00
  -23   12    7      5.64      0.00
   12   12    6     -3.01      0.00
   12   13    5      0.13      0.00
   12   14    4     -6.71      0.00
   12   15    3      8.69      0.00
  -19   14   12     -2.24      0.00
  -20   14   11      0.46      0.00
  -21   14   10     -0.51      0.00
  -22   14    9     -1.09      0.00
  -23   14    8      3.17      0.00
  -24   14    7      7.26      0.00
  -25   14    6     -1.91      0.00
  -26   14    5      1.61      0.00
  -27   14    4     -2.64      0.00
   14   14    3     -1.57      0.00
   14   15    2      1.95      0.00
  -21   16   11      2.33      0.00
  -22   16   10      1.21      0.00
  -23   16    9      1.55      0.00
  -24   16    8      3.15      0.00
  -25   16    7     -1.14      0.00
  -26   16    6      5.22      0.00
  -27   16    5      2.57      0.00
  -28   16    4      4.78      0.00
  -29   16    3     -4.72      0.00
  -30   16    2      3.94      0.00
  -31   16    1     -2.74      0.00
  -22   18   11      1.61      0.00
  -23   18   10      1.29      0.00
  -24   18    9     -1.72      0.00
  -25   18    8      3.28      0.00
  -26   18    7     -3.11      0.00
  -27   18    6      2.02      0.00
  -28   18    5      0.23      0.00
  -29   18    4      2.84      0.00
  -30   18    3      0.91      0.00
  -31   18    2      2.39      0.00
  -32   18    1     -1.78      0.00
  -15   33    0     -1.99      0.00
  -16   34    1      0.02      0.00
  -23   20   11     -1.87      0.00
  -24   20   10     -0.18      0.00
  -25   20    9     -3.76      0.00
  -26   20    8     -2.12      0.00
  -27   20    7     -1.96      0.00
  -28   20    6     -2.06      0.00
  -29   20    5     -1.63      0.00
  -30   20    4     -0.15      0.00
  -31   20    3     -0.89      0.00
  -32   20    2      2.29      0.00
  -33   20    1      1.15      0.00
  -14   34    0     -0.69      0.00
  -15   35    1      4.66      0.00
  -16   36    2     -0.05      0.00
  -24   22   11     -1.12      0.00
  -25   22   10     -1.22      0.00
  -26   22    9     -3.63      0.00
  -27   22    8     -3.61      0.00
  -28   22    7     -3.58      0.00
  -29   22    6      0.18      0.00
  -30   22    5      0.84      0.00
  -31   22    4      0.37      0.00
  -32   22    3     -2.03      0.00
  -33   22    2      4.80      0.00
  -34   22    1      0.85      0.00
  -13   35    0      3.92      0.00
  -14   36    1      2.18      0.00
  -15   37    2      0.73      0.00
  -16   38    3      2.85      0.00
  -25   24   11      2.14      0.00
  -26   24   10     -1.69      0.00
  -27   24    9     -2.61      0.00
  -28   24    8     -1.71      0.00
  -29   24    7     -0.13      0.00
  -30   24    6      1.66      0.00
  -31   24    5      2.00      0.00
  -32   24    4     -1.16      0.00
  -33   24    3      3.12      0.00
  -34   24    2      1.87      0.00
  -35   24    1      2.92      0.00
  -12   36    0      0.81      0.00
  -13   37    1      0.65      0.00
  -14   38    2      1.82      0.00
  -15   39    3     -0.60      0.00
  -16   40    4      0.65      0.00
  -27   26   10     -0.51      0.00
  -28   26    9      0.35      0.00
  -29   26    8     -1.27      0.00
  -30   26    7      1.46      0.00
  -31   26    6      2.85      0.00
  -32   26    5      0.34      0.00
  -33   26    4     -2.12      0.00
  -34   26    3      2.19      0.00
  -35   26    2     -1.70      0.00
  -36   26    1      4.67      0.00
  -11   37    0      0.68      0.00
  -12   38    1      3.04      0.00
  -13   39    2     -1.71      0.00
  -14   40    3     -0.68      0.00
  -15   41    4      0.23      0.00
  -16   42    5      2.52      0.00
  -29   28    9      1.99      0.00
  -30   28    8      1.79      0.00
  -31   28    7     -0.27      0.00
  -32   28    6      1.92      0.00
  -33   28    5     -0.83      0.00
  -34   28    4     -1.35      0.00
  -35   28    3     -0.27      0.00
  -36   28    2      1.49      0.00
  -37   28    1      2.03      0.00
  -10   38    0      2.45      0.00
  -11   39    1      3.88      0.00
  -12   40    2     -1.86      0.00
  -13   41    3      3.39      0.00
  -14   42    4     -0.73      0.00
  -15   43    5      0.31      0.00
  -16   44    6     -0.75      0.00
  -29   30   10     -0.44      0.00
  -31   30    8      2.15      0.00
  -32   30    7      0.11      0.00
  -33   30    6      0.68      0.00
  -34   30    5     -1.21      0.00
  -35   30    4     -3.87      0.00
  -36   30    3      1.83      0.00
  -37   30    2      2.12      0.00
  -38   30    1      1.20      0.00
   -9   39    0     -0.30      0.00
  -10   40    1      1.08      0.00
  -11   41    2      2.43      0.00
  -12   42    3      2.96      0.00
  -13   43    4     -0.96      0.00
  -14   44    5     -1.74      0.00
  -15   45    6     -2.19      0.00
  -33   32    7     -0.40      0.00
  -34   32    6      0.38      0.00
  -35   32    5      0.36      0.00
  -36   32    4     -4.35      0.00
  -37   32    3     -1.33      0.00
  -38   32    2      1.19      0.00
  -39   32    1      1.57      0.00
   -8   40    0     -1.68      0.00
   -9   41    1      1.63      0.00
  -10   42    2      0.81      0.00
  -11   43    3     -0.87      0.00
  -12   44    4     -1.34      0.00
  -13   45    5      0.25      0.00
  -14   46    6     -1.74      0.00
  -32   34    9     -0.98      0.00
  -33   34    8     -0.26      0.00
  -34   34    7      0.37      0.00
  -35   34    6     -0.97      0.00
  -36   34    5      0.65      0.00
  -37   34    4      0.95      0.00
  -38   34    3     -3.32      0.00
  -39   34    2      1.55      0.00
  -40   34    1      0.65      0.00
   -7   41    0      0.20      0.00
   -8   42    1      1.71      0.00
   -9   43    2     -1.98      0.00
  -10   44    3     -0.92      0.00
  -11   45    4     -4.40      0.00
  -12   46    5      0.62      0.00
  -34   36    8     -2.67      0.00
  -35   36    7      2.70      0.00
  -36   36    6      0.35      0.00
  -37   36    5     -0.72      0.00
  -38   36    4      2.04      0.00
  -39   36    3      1.76      0.00
  -40   36    2      1.31      0.00
  -41   36    1     -0.70      0.00
   -6   42    0      0.58      0.00
   -7   43    1     -0.82      0.00
   -8   44    2     -0.83      0.00
   -9   45    3     -0.42      0.00
  -10   46    4     -4.74      0.00
  -11   47    5     -3.65      0.00
  -35   38    8     -0.12      0.00
  -36   38    7      2.42      0.00
  -37   38    6      0.60      0.00
  -38   38    5     -0.13      0.00
  -39   38    4      1.01      0.00
  -40   38    3      0.62      0.00
  -41   38    2      2.18      0.00
  -42   38    1     -1.19      0.00
   -5   43    0     -0.20      0.00
   -6   44    1      0.03      0.00
   -7   45    2     -1.21      0.00
   -8   46    3     -1.49      0.00
   -9   47    4     -1.94      0.00
  -37   40    7      1.37      0.00
  -38   40    6     -0.66      0.00
  -39   40    5      0.00      0.00
  -40   40    4      2.03      0.00
  -41   40    3     -3.94      0.00
  -42   40    2      1.32      0.00
  -43   40    1      0.72      0.00
   -4   44    0      0.52      0.00
   -5   45    1     -1.15      0.00
   -6   46    2     -1.05      0.00
   -7   47    3      0.13      0.00
   -8   48    4     -2.72      0.00
  -39   42    6     -0.37      0.00
  -40   42    5      0.23      0.00
  -41   42    4     -0.17      0.00
  -42   42    3     -2.03      0.00
  -43   42    2     -0.51      0.00
  -44   42    1      1.19      0.00
   -3   45    0      0.67      0.00
   -4   46    1     -0.89      0.00
   -5   47    2     -0.58      0.00
   -6   48    3     -2.16      0.00
  -41   44    5     -0.51      0.00
  -42   44    4      0.40      0.00
  -43   44    3      0.31      0.00
  -44   44    2     -2.19      0.00
  -45   44    1      0.08      0.00
   -2   46    0      0.35      0.00
   -3   47    1      2.12      0.00
   -4   48    2     -2.61      0.00
  -43   46    4      1.55      0.00
  -44   46    3     -0.92      0.00
  -45   46    2     -0.91      0.00
  -46   46    1     -0.94      0.00
   -1   47    0     -0.68      0.00
   -2   48    1     -0.41      0.00
    1   16    9      0.46      0.00
    3   14   10     -0.42      0.00
    3   15    9      3.82      0.00
    3   16    8      0.00      0.00
    5   12   11      1.69      0.00
    5   13   10      1.45      0.00
    5   14    9      5.37      0.00
    5   15    8      1.37      0.00
    5   16    7     -1.34      0.00
    7   10   12      0.37      0.00
    7   11   11      1.62      0.00
    7   12   10      0.49      0.00
    7   13    9      5.90      0.00
    7   14    8     -0.42      0.00
    7   15    7     -0.01      0.00
    7   16    6      0.67      0.00
    9    9   12     -0.07      0.00
    9   10   11      4.05      0.00
    9   11   10     -3.14      0.00
    9   12    9      4.65      0.00
    9   13    8     -3.39      0.00
    9   14    7      0.91      0.00
    9   15    6     -2.11      0.00
    9   16    5      3.46      0.00
  -19   11   12      1.91      0.00
  -20   11   11      2.34      0.00
  -21   11   10     -1.88      0.00
   11   11    9      0.50      0.00
   11   12    8     -2.03      0.00
   11   13    7      0.87      0.00
   11   14    6     -0.54      0.00
   11   15    5     -0.56      0.00
   11   16    4      0.04      0.00
  -20   13   12     -0.10      0.00
  -21   13   11     -0.18      0.00
  -22   13   10     -0.57      0.00
  -23   13    9     -1.59      0.00
  -24   13    8      2.78      0.00
  -25   13    7      2.38      0.00
   13   13    6     -1.98      0.00
   13   14    5      0.36      0.00
   13   15    4     -4.47      0.00
   13   16    3      2.56      0.00
  -22   15   11      1.27      0.00
  -23   15   10     -0.83      0.00
  -24   15    9      0.49      0.00
  -25   15    8      2.21      0.00
  -26   15    7      2.29      0.00
  -27   15    6      2.01      0.00
  -28   15    5      2.10      0.00
  -29   15    4     -3.07      0.00
   15   15    3     -3.96      0.00
   15   16    2     -1.42      0.00
  -23   17   11     -0.28      0.00
  -24   17   10     -0.91      0.00
  -25   17    9      0.57      0.00
  -26   17    8      3.82      0.00
  -27   17    7     -0.35      0.00
  -28   17    6      4.39      0.00
  -29   17    5     -0.57      0.00
  -30   17    4      0.93      0.00
  -31   17    3     -4.41      0.00
  -32   17    2      0.98      0.00
  -33   17    1     -0.31      0.00
  -24   19   11     -4.04      0.00
  -25   19   10     -0.85      0.00
  -26   19    9     -2.38      0.00
  -27   19    8      3.81      0.00
  -28   19    7      0.61      0.00
  -29   19    6     -1.79      0.00
  -30   19    5     -1.84      0.00
  -31   19    4     -0.97      0.00
  -32   19    3     -2.86      0.00
  -33   19    2      0.58      0.00
  -34   19    1      1.77      0.00
  -16   35    0     -7.27      0.00
  -17   36    1      0.42      0.00
  -25   21   11     -3.65      0.00
  -26   21   10     -1.86      0.00
  -27   21    9     -2.23      0.00
  -28   21    8     -0.98      0.00
  -29   21    7      1.08      0.00
  -30   21    6     -1.89      0.00
  -31   21    5      0.77      0.00
  -32   21    4     -3.21      0.00
  -33   21    3     -5.85      0.00
  -34   21    2      2.54      0.00
  -35   21    1      0.95      0.00
  -15   36    0     -1.63      0.00
  -16   37    1     -3.10      0.00
  -17   38    2     -1.57      0.00
  -26   23   11     -1.42      0.00
  -27   23   10     -2.53      0.00
  -28   23    9     -1.60      0.00
  -29   23    8     -0.36      0.00
  -30   23    7      1.23      0.00
  -31   23    6      0.99      0.00
  -32   23    5      2.93      0.00
  -33   23    4     -1.38      0.00
  -34   23    3     -4.13      0.00
  -35   23    2      3.54      0.00
  -36   23    1     -3.19      0.00
  -14   37    0     -1.77      0.00
  -15   38    1     -2.89      0.00
  -16   39    2     -0.28      0.00
  -17   40    3     -1.02      0.00
  -28   25   10     -0.78      0.00
  -29   25    9     -2.31      0.00
  -30   25    8      0.34      0.00
  -31   25    7      4.29      0.00
  -32   25    6      1.15      0.00
  -33   25    5      1.41      0.00
  -34   25    4     -1.55      0.00
  -35   25    3      0.48      0.00
  -36   25    2     -1.02      0.00
  -37   25    1     -0.24      0.00
  -13   38    0     -4.18      0.00
  -14   39    1      3.22      0.00
  -15   40    2     -3.12      0.00
  -16   41    3     -1.77      0.00
  -17   42    4     -0.11      0.00
  -29   27   10     -0.44      0.00
  -30   27    9     -0.45      0.00
  -31   27    8      0.79      0.00
  -32   27    7      1.91      0.00
  -33   27    6      2.23      0.00
  -34   27    5      0.22      0.00
  -35   27    4     -3.76      0.00
  -36   27    3      1.12      0.00
  -37   27    2     -1.08      0.00
  -38   27    1      3.40      0.00
  -12   39    0     -0.19      0.00
  -13   40    1      4.32      0.00
  -14   41    2     -3.59      0.00
  -15   42    3      1.22      0.00
  -16   43    4     -0.50      0.00
  -17   44    5      1.57      0.00
  -30   29   10     -0.99      0.00
  -31   29    9      0.76      0.00
  -32   29    8      3.05      0.00
  -33   29    7     -1.40      0.00
  -34   29    6      1.36      0.00
  -35   29    5     -0.12      0.00
  -36   29    4     -3.46      0.00
  -37   29    3      1.41      0.00
  -38   29    2      1.59      0.00
  -39   29    1      2.77      0.00
  -11   40    0      0.58      0.00
  -12   41    1      1.17      0.00
  -13   42    2      1.46      0.00
  -14   43    3      0.93      0.00
  -15   44    4     -1.45      0.00
  -16   45    5     -1.25      0.00
  -17   46    6      0.23      0.00
  -32   31    9     -0.91      0.00
  -33   31    8      0.96      0.00
  -34   31    7      0.00      0.00
  -35   31    6      0.49      0.00
  -36   31    5     -0.70      0.00
  -37   31    4     -3.10      0.00
  -38   31    3      1.07      0.00
  -39   31    2      0.11      0.00
  -40   31    1      2.04      0.00
  -10   41    0     -1.47      0.00
  -11   42    1     -0.43      0.00
  -12   43    2      2.64      0.00
  -13   44    3     -1.70      0.00
  -14   45    4     -2.36      0.00
  -15   46    5     -2.45      0.00
  -16   47    6     -1.45      0.00
  -33   33    9     -0.82      0.00
  -34   33    8     -0.80      0.00
  -35   33    7     -0.26      0.00
  -36   33    6      0.57      0.00
  -37   33    5      1.55      0.00
  -38   33    4     -2.12      0.00
  -39   33    3     -1.89      0.00
  -40   33    2      0.88      0.00
  -41   33    1      0.31      0.00
   -9   42    0      0.56      0.00
  -10   43    1      0.25      0.00
  -11   44    2     -0.75      0.00
  -12   45    3     -0.92      0.00
  -13   46    4     -2.85      0.00
  -14   47    5     -0.25      0.00
  -35   35    8     -2.33      0.00
  -36   35    7      1.62      0.00
  -37   35    6     -0.03      0.00
  -38   35    5      0.95      0.00
  -39   35    4     -0.03      0.00
  -40   35    3     -0.80      0.00
  -41   35    2      2.42      0.00
  -42   35    1      0.16      0.00
   -8   43    0     -0.33      0.00
   -9   44    1      1.32      0.00
  -10   45    2      0.28      0.00
  -11   46    3      0.76      0.00
  -12   47    4     -3.67      0.00
  -13   48    5     -1.19      0.00
  -36   37    8     -3.40      0.00
  -37   37    7      2.73      0.00
  -38   37    6      0.42      0.00
  -39   37    5     -2.69      0.00
  -40   37    4     -0.21      0.00
  -41   37    3      1.94      0.00
  -42   37    2      1.28      0.00
  -43   37    1      0.34      0.00
   -7   44    0     -0.71      0.00
   -8   45    1      1.76      0.00
   -9   46    2      0.20      0.00
  -10   47    3      0.04      0.00
  -11   48    4     -0.51      0.00
  -38   39    7     -1.62      0.00
  -39   39    6      0.05      0.00
  -40   39    5     -1.52      0.00
  -41   39    4      0.69      0.00
  -42   39    3     -1.10      0.00
  -43   39    2      1.58      0.00
  -44   39    1      0.40      0.00
   -6   45    0      1.46      0.00
   -7   46    1     -0.39      0.00
   -8   47    2     -0.34      0.00
   -9   48    3     -1.33      0.00
  -10   49    4      1.72      0.00
  -40   41    6     -0.61      0.00
  -41   41    5      0.69      0.00
  -42   41    4      1.50      0.00
  -43   41    3     -1.12      0.00
  -44   41    2      1.97      0.00
  -45   41    1      1.29      0.00
   -5   46    0      0.27      0.00
   -6   47    1     -1.72      0.00
   -7   48    2      1.12      0.00
   -8   49    3     -1.06      0.00
  -41   43    6     -2.05      0.00
  -42   43    5      0.57      0.00
  -43   43    4      1.34      0.00
  -44   43    3      0.95      0.00
  -45   43    2     -0.39      0.00
  -46   43    1      0.84      0.00
   -4   47    0      0.21      0.00
   -5   48    1      0.49      0.00
   -6   49    2     -2.50      0.00
  -44   45    4      3.01      0.00
  -45   45    3     -2.99      0.00
  -46   45    2     -1.85      0.00
  -47   45    1     -0.71      0.00
   -3   48    0      0.35      0.00
   -4   49    1     -0.23      0.00
    2   16   10     -1.05      0.00
    2   17    9      1.32      0.00
    4   14   11     -0.37      0.00
    4   15   10      0.88      0.00
    4   16    9      3.20      0.00
    4   17    8     -0.81      0.00
    6   12   12     -0.48      0.00
    6   13   11     -0.54      0.00
    6   14   10      3.07      0.00
    6   15    9      2.48      0.00
    6   16    8      1.88      0.00
    6   17    7      2.23      0.00
    8   11   12     -0.82      0.00
    8   12   11      1.34      0.00
    8   13   10     -1.81      0.00
    8   14    9      5.53      0.00
    8   15    8      0.65      0.00
    8   16    7      1.64      0.00
    8   17    6     -3.60      0.00
   10   10   12      3.93      0.00
   10   11   11      2.25      0.00
   10   12   10     -5.36      0.00
   10   13    9      4.90      0.00
   10   14    8     -0.94      0.00
   10   15    7      2.60      0.00
   10   16    6     -1.19      0.00
   10   17    5      4.36      0.00
  -22   12   11     -0.60      0.00
  -23   12   10     -2.90      0.00
   12   12    9     -0.30      0.00
   12   13    8      1.97      0.00
   12   14    7      1.45      0.00
   12   15    6      2.90      0.00
   12   16    5      0.94      0.00
   12   17    4      6.09      0.00
  -23   14   11     -0.54      0.00
  -24   14   10     -2.09      0.00
  -25   14    9     -1.68      0.00
  -26   14    8      2.65      0.00
  -27   14    7      0.19      0.00
   14   14    6      3.92      0.00
   14   15    5      2.53      0.00
   14   16    4      1.85      0.00
   14   17    3      5.36      0.00
  -24   16   11     -0.60      0.00
  -25   16   10     -2.08      0.00
  -26   16    9      0.17      0.00
  -27   16    8      0.95      0.00
  -28   16    7      2.82      0.00
  -29   16    6      3.38      0.00
  -30   16    5      2.02      0.00
  -31   16    4      2.14      0.00
   16   16    3      2.47      0.00
   16   17    2      4.21      0.00
  -25   18   11     -3.51      0.00
  -26   18   10     -0.35      0.00
  -27   18    9     -0.62      0.00
  -28   18    8      3.45      0.00
  -29   18    7      2.85      0.00
  -30   18    6     -0.22      0.00
  -31   18    5      0.20      0.00
  -32   18    4      3.10      0.00
  -33   18    3      1.93      0.00
  -34   18    2      6.02      0.00
  -35   18    1      3.10      0.00
  -26   20   11     -1.96      0.00
  -27   20   10     -1.12      0.00
  -28   20    9     -1.78      0.00
  -29   20    8      1.93      0.00
  -30   20    7      2.40      0.00
  -31   20    6     -2.36      0.00
  -32   20    5      0.19      0.00
  -33   20    4      0.55      0.00
  -34   20    3     -1.42      0.00
  -35   20    2      4.01      0.00
  -36   20    1      6.53      0.00
  -17   37    0      0.93      0.00
  -18   38    1      0.14      0.00
  -27   22   11      0.77      0.00
  -28   22   10     -3.25      0.00
  -29   22    9     -0.07      0.00
  -30   22    8     -2.09      0.00
  -31   22    7      1.68      0.00
  -32   22    6      0.08      0.00
  -33   22    5      2.99      0.00
  -34   22    4     -0.02      0.00
  -35   22    3     -3.75      0.00
  -36   22    2      3.24      0.00
  -37   22    1      2.73      0.00
  -16   38    0      1.81      0.00
  -17   39    1     -2.73      0.00
  -18   40    2     -0.20      0.00
  -29   24   10     -1.65      0.00
  -30   24    9     -3.23      0.00
  -31   24    8     -0.71      0.00
  -32   24    7      1.71      0.00
  -33   24    6      0.05      0.00
  -34   24    5      4.57      0.00
  -35   24    4      1.51      0.00
  -36   24    3     -1.07      0.00
  -37   24    2      0.09      0.00
  -38   24    1     -1.18      0.00
  -15   39    0      0.17      0.00
  -16   40    1      1.16      0.00
  -17   41    2     -2.34      0.00
  -18   42    3     -1.72      0.00
  -30   26   10      0.55      0.00
  -31   26    9     -5.74      0.00
  -32   26    8     -0.36      0.00
  -33   26    7      2.65      0.00
  -34   26    6      0.00      0.00
  -35   26    5      1.95      0.00
  -36   26    4     -0.38      0.00
  -37   26    3      2.14      0.00
  -38   26    2     -1.42      0.00
  -39   26    1      4.59      0.00
  -14   40    0      0.01      0.00
  -15   41    1      4.07      0.00
  -16   42    2     -3.12      0.00
  -17   43    3      0.12      0.00
  -18   44    4      0.03      0.00
  -31   28   10      0.27      0.00
  -32   28    9     -1.67      0.00
  -33   28    8     -0.33      0.00
  -34   28    7     -0.40      0.00
  -35   28    6      1.73      0.00
  -36   28    5      0.53      0.00
  -37   28    4     -3.07      0.00
  -38   28    3      3.18      0.00
  -39   28    2      2.32      0.00
  -40   28    1      7.15      0.00
  -13   41    0      1.27      0.00
  -14   42    1      0.83      0.00
  -15   43    2      0.01      0.00
  -16   44    3      0.39      0.00
  -17   45    4      1.22      0.00
  -18   46    5     -0.51      0.00
  -33   30    9     -1.86      0.00
  -34   30    8      1.65      0.00
  -35   30    7     -0.79      0.00
  -36   30    6     -0.04      0.00
  -37   30    5     -0.78      0.00
  -38   30    4     -1.76      0.00
  -39   30    3      1.53      0.00
  -40   30    2      2.80      0.00
  -41   30    1      3.58      0.00
  -12   42    0     -0.09      0.00
  -13   43    1     -1.70      0.00
  -14   44    2      1.37      0.00
  -15   45    3     -3.97      0.00
  -16   46    4      0.00      0.00
  -17   47    5     -0.99      0.00
  -18   48    6      3.14      0.00
  -34   32    9     -1.97      0.00
  -35   32    8      0.36      0.00
  -36   32    7      1.03      0.00
  -37   32    6     -0.07      0.00
  -38   32    5     -2.20      0.00
  -39   32    4     -0.89      0.00
  -40   32    3     -0.48      0.00
  -41   32    2     -0.36      0.00
  -42   32    1      0.73      0.00
  -11   43    0      0.15      0.00
  -12   44    1     -2.73      0.00
  -13   45    2     -1.56      0.00
  -14   46    3     -3.63      0.00
  -15   47    4     -2.39      0.00
  -16   48    5      0.12      0.00
  -36   34    8     -1.22      0.00
  -37   34    7      1.16      0.00
  -38   34    6      1.85      0.00
  -39   34    5     -0.72      0.00
  -40   34    4     -2.29      0.00
  -41   34    3     -0.18      0.00
  -42   34    2      0.34      0.00
  -43   34    1     -0.97      0.00
  -10   44    0     -0.19      0.00
  -11   45    1     -0.25      0.00
  -12   46    2     -1.59      0.00
  -13   47    3     -0.34      0.00
  -14   48    4     -2.67      0.00
  -15   49    5      0.51      0.00
  -37   36    8     -0.74      0.00
  -38   36    7      2.50      0.00
  -39   36    6      0.08      0.00
  -40   36    5     -1.65      0.00
  -41   36    4     -2.06      0.00
  -42   36    3      1.15      0.00
  -43   36    2     -0.25      0.00
  -44   36    1     -0.69      0.00
   -9   45    0     -2.20      0.00
  -10   46    1      3.39      0.00
  -11   47    2      0.43      0.00
  -12   48    3      0.19      0.00
  -13   49    4     -1.12      0.00
  -39   38    7     -1.15      0.00
  -40   38    6     -0.88      0.00
  -41   38    5     -2.10      0.00
  -42   38    4     -0.58      0.00
  -43   38    3     -0.45      0.00
  -44   38    2     -2.33      0.00
  -45   38    1      0.06      0.00
   -8   46    0     -0.15      0.00
   -9   47    1      0.90      0.00
  -10   48    2      0.10      0.00
  -11   49    3     -0.94      0.00
  -41   40    6     -0.10      0.00
  -42   40    5      0.97      0.00
  -43   40    4      1.22      0.00
  -44   40    3     -1.00      0.00
  -45   40    2     -0.06      0.00
  -46   40    1     -1.34      0.00
   -7   47    0      0.08      0.00
   -8   48    1     -1.31      0.00
   -9   49    2      1.68      0.00
  -10   50    3     -2.84      0.00
  -42   42    6     -0.90      0.00
  -43   42    5      1.43      0.00
  -44   42    4      2.63      0.00
  -45   42    3      1.51      0.00
  -46   42    2      1.24      0.00
  -47   42    1     -1.76      0.00
   -6   48    0     -0.69      0.00
   -7   49    1     -0.22      0.00
   -8   50    2      0.82      0.00
  -45   44    4      2.58      0.00
  -46   44    3     -2.26      0.00
  -47   44    2      0.79      0.00
  -48   44    1      0.00      0.00
   -5   49    0      0.72      0.00
   -6   50    1     -0.51      0.00
    3   16   11     -1.75      0.00
    3   17   10      0.97      0.00
    3   18    9      3.73      0.00
    5   15   11     -0.55      0.00
    5   16   10      2.53      0.00
    5   17    9      2.36      0.00
    5   18    8      2.58      0.00
    7   14   11      0.88      0.00
    7   15   10      1.44      0.00
    7   16    9      1.66      0.00
    7   17    8      2.80      0.00
    7   18    7      2.39      0.00
    9   13   11     -0.54      0.00
    9   14   10     -0.73      0.00
    9   15    9      4.40      0.00
    9   16    8      0.82      0.00
    9   17    7      2.36      0.00
    9   18    6     -0.40      0.00
   11   12   11     -1.99      0.00
   11   13   10     -0.31      0.00
   11   14    9      1.97      0.00
   11   15    8      3.74      0.00
   11   16    7      5.56      0.00
   11   17    6      1.77      0.00
   11   18    5      0.56      0.00
  -24   13   11     -1.52      0.00
  -25   13   10      0.68      0.00
   13   13    9     -1.47      0.00
   13   14    8      4.18      0.00
   13   15    7      2.61      0.00
   13   16    6      5.04      0.00
   13   17    5     -1.78      0.00
   13   18    4      2.55      0.00
  -25   15   11     -0.01      0.00
  -26   15   10      0.25      0.00
  -27   15    9     -0.34      0.00
  -28   15    8     -0.06      0.00
  -29   15    7      2.05      0.00
   15   15    6      3.51      0.00
   15   16    5     -0.35      0.00
   15   17    4      1.82      0.00
   15   18    3      1.61      0.00
  -26   17   11      0.39      0.00
  -27   17   10      1.81      0.00
  -28   17    9      0.95      0.00
  -29   17    8     -0.89      0.00
  -30   17    7      3.77      0.00
  -31   17    6     -0.35      0.00
  -32   17    5      0.32      0.00
  -33   17    4      2.19      0.00
   17   17    3      1.94      0.00
   17   18    2      4.70      0.00
  -27   19   11      1.13      0.00
  -28   19   10      1.78      0.00
  -29   19    9     -0.34      0.00
  -30   19    8      1.12      0.00
  -31   19    7      1.38      0.00
  -32   19    6     -2.06      0.00
  -33   19    5     -1.55      0.00
  -34   19    4      1.63      0.00
  -35   19    3     -0.11      0.00
  -36   19    2      2.23      0.00
  -37   19    1      5.21      0.00
  -29   21   10     -1.37      0.00
  -30   21    9      0.99      0.00
  -31   21    8     -2.23      0.00
  -32   21    7      0.10      0.00
  -33   21    6     -2.04      0.00
  -34   21    5     -1.00      0.00
  -35   21    4      0.02      0.00
  -36   21    3     -2.61      0.00
  -37   21    2      1.10      0.00
  -38   21    1      6.29      0.00
  -18   39    0      3.69      0.00
  -19   40    1      2.38      0.00
  -30   23   10     -1.97      0.00
  -31   23    9      0.38      0.00
  -32   23    8     -4.39      0.00
  -33   23    7     -0.79      0.00
  -34   23    6     -1.23      0.00
  -35   23    5      2.49      0.00
  -36   23    4     -0.32      0.00
  -37   23    3     -0.47      0.00
  -38   23    2     -2.09      0.00
  -39   23    1      0.56      0.00
  -17   40    0      2.01      0.00
  -18   41    1      1.14      0.00
  -19   42    2      0.16      0.00
  -31   25   10      0.44      0.00
  -32   25    9     -5.02      0.00
  -33   25    8     -1.52      0.00
  -34   25    7     -0.90      0.00
  -35   25    6     -1.42      0.00
  -36   25    5      1.89      0.00
  -37   25    4      0.73      0.00
  -38   25    3      1.30      0.00
  -39   25    2     -3.63      0.00
  -40   25    1      1.09      0.00
  -16   41    0      3.19      0.00
  -17   42    1      2.05      0.00
  -18   43    2     -0.72      0.00
  -19   44    3      0.32      0.00
  -32   27   10      2.95      0.00
  -33   27    9     -3.49      0.00
  -34   27    8     -2.36      0.00
  -35   27    7      0.50      0.00
  -36   27    6      0.64      0.00
  -37   27    5     -0.96      0.00
  -38   27    4      0.11      0.00
  -39   27    3      2.04      0.00
  -40   27    2      0.89      0.00
  -41   27    1      5.92      0.00
  -15   42    0      2.68      0.00
  -16   43    1      1.70      0.00
  -17   44    2      1.63      0.00
  -18   45    3      1.37      0.00
  -19   46    4      1.46      0.00
  -34   29    9      0.22      0.00
  -35   29    8     -0.78      0.00
  -36   29    7      0.21      0.00
  -37   29    6      2.07      0.00
  -38   29    5     -0.75      0.00
  -39   29    4     -1.08      0.00
  -40   29    3      1.87      0.00
  -41   29    2      4.36      0.00
  -42   29    1      4.38      0.00
  -14   43    0      2.41      0.00
  -15   44    1      0.35      0.00
  -16   45    2      1.60      0.00
  -17   46    3     -1.86      0.00
  -18   47    4      3.30      0.00
  -19   48    5     -1.05      0.00
  -35   31    9     -0.23      0.00
  -36   31    8      3.37      0.00
  -37   31    7      1.32      0.00
  -38   31    6     -0.13      0.00
  -39   31    5     -1.08      0.00
  -40   31    4      0.54      0.00
  -41   31    3     -0.59      0.00
  -42   31    2      1.83      0.00
  -43   31    1      1.80      0.00
  -13   44    0      2.46      0.00
  -14   45    1     -1.01      0.00
  -15   46    2     -1.54      0.00
  -16   47    3     -5.68      0.00
  -17   48    4      1.10      0.00
  -18   49    5      1.83      0.00
  -37   33    8      1.88      0.00
  -38   33    7      3.93      0.00
  -39   33    6      1.52      0.00
  -40   33    5     -1.86      0.00
  -41   33    4      0.36      0.00
  -42   33    3      0.68      0.00
  -43   33    2     -0.18      0.00
  -44   33    1      1.17      0.00
  -12   45    0      1.54      0.00
  -13   46    1     -1.05      0.00
  -14   47    2     -2.18      0.00
  -15   48    3     -2.72      0.00
  -16   49    4     -2.59      0.00
  -38   35    8      4.10      0.00
  -39   35    7      4.47      0.00
  -40   35    6      2.61      0.00
  -41   35    5     -0.76      0.00
  -42   35    4     -1.48      0.00
  -43   35    3      3.50      0.00
  -44   35    2      0.67      0.00
  -45   35    1     -0.35      0.00
  -11   46    0     -0.41      0.00
  -12   47    1      3.29      0.00
  -13   48    2     -0.86      0.00
  -14   49    3     -0.34      0.00
  -15   50    4     -2.87      0.00
  -40   37    7      2.05      0.00
  -41   37    6     -0.43      0.00
  -42   37    5     -0.03      0.00
  -43   37    4     -0.98      0.00
  -44   37    3      0.63      0.00
  -45   37    2     -0.76      0.00
  -46   37    1      0.50      0.00
  -10   47    0     -1.12      0.00
  -11   48    1      3.02      0.00
  -12   49    2     -0.40      0.00
  -13   50    3     -0.81      0.00
  -42   39    6     -0.90      0.00
  -43   39    5      0.55      0.00
  -44   39    4      0.20      0.00
  -45   39    3     -2.04      0.00
  -46   39    2     -1.29      0.00
  -47   39    1     -0.55      0.00
   -9   48    0     -0.30      0.00
  -10   49    1     -0.51      0.00
  -11   50    2     -0.33      0.00
  -12   51    3     -3.03      0.00
  -43   41    6     -0.91      0.00
  -44   41    5      0.23      0.00
  -45   41    4      1.74      0.00
  -46   41    3     -0.08      0.00
  -47   41    2      0.25      0.00
  -48   41    1     -3.80      0.00
   -8   49    0      0.24      0.00
   -9   50    1      0.14      0.00
  -10   51    2      0.05      0.00
  -46   43    4      0.50      0.00
  -47   43    3     -1.05      0.00
  -48   43    2      2.12      0.00
  -49   43    1     -1.90      0.00
   -7   50    0      0.36      0.00
    4   17   11      0.67      0.00
    6   16   11      2.39      0.00
    6   17   10     -0.31      0.00
    6   18    9      2.52      0.00
    6   19    8      1.87      0.00
    8   15   11     -0.01      0.00
    8   16   10      1.85      0.00
    8   17    9     -0.84      0.00
    8   18    8     -2.41      0.00
    8   19    7     -2.63      0.00
   10   14   11     -4.02      0.00
   10   15   10      7.09      0.00
   10   16    9      0.19      0.00
   10   17    8     -0.12      0.00
   10   18    7      0.52      0.00
   10   19    6      0.96      0.00
   12   13   11     -3.57      0.00
   12   14   10      6.76      0.00
   12   15    9      0.86      0.00
   12   16    8      3.88      0.00
   12   17    7      2.28      0.00
   12   18    6     -0.63      0.00
   12   19    5     -2.23      0.00
  -26   14   11     -1.69      0.00
  -27   14   10      3.97      0.00
   14   14    9      1.11      0.00
   14   15    8      0.37      0.00
   14   16    7      1.42      0.00
   14   17    6      0.54      0.00
   14   18    5     -3.11      0.00
   14   19    4      0.30      0.00
  -27   16   11      1.75      0.00
  -28   16   10      2.33      0.00
  -29   16    9      1.91      0.00
  -30   16    8     -2.06      0.00
  -31   16    7      2.27      0.00
   16   16    6     -0.65      0.00
   16   17    5      0.07      0.00
   16   18    4      0.93      0.00
   16   19    3     -1.89      0.00
  -28   18   11      3.96      0.00
  -29   18   10      0.19      0.00
  -30   18    9      0.81      0.00
  -31   18    8      0.71      0.00
  -32   18    7      2.16      0.00
  -33   18    6     -1.04      0.00
  -34   18    5     -0.49      0.00
  -35   18    4      1.85      0.00
   18   18    3     -1.11      0.00
   18   19    2     -4.33      0.00
  -30   20   10     -2.26      0.00
  -31   20    9      0.92      0.00
  -32   20    8      0.86      0.00
  -33   20    7     -0.20      0.00
  -34   20    6     -1.58      0.00
  -35   20    5     -2.05      0.00
  -36   20    4      1.28      0.00
  -37   20    3     -2.18      0.00
  -38   20    2     -2.77      0.00
  -39   20    1      3.15      0.00
  -31   22   10     -3.18      0.00
  -32   22    9      2.36      0.00
  -33   22    8     -3.27      0.00
  -34   22    7     -0.68      0.00
  -35   22    6     -2.00      0.00
  -36   22    5      0.10      0.00
  -37   22    4     -0.35      0.00
  -38   22    3      0.47      0.00
  -39   22    2     -1.47      0.00
  -40   22    1     -1.45      0.00
  -19   41    0     -2.96      0.00
  -20   42    1     -0.16      0.00
  -32   24   10     -3.17      0.00
  -33   24    9      0.07      0.00
  -34   24    8     -2.89      0.00
  -35   24    7     -1.64      0.00
  -36   24    6     -1.32      0.00
  -37   24    5      0.31      0.00
  -38   24    4     -0.42      0.00
  -39   24    3      2.56      0.00
  -40   24    2     -3.20      0.00
  -41   24    1     -2.41      0.00
  -18   42    0     -0.64      0.00
  -19   43    1     -1.99      0.00
  -20   44    2     -1.08      0.00
  -33   26   10     -0.26      0.00
  -34   26    9     -2.24      0.00
  -35   26    8     -2.19      0.00
  -36   26    7     -1.38      0.00
  -37   26    6     -0.35      0.00
  -38   26    5     -1.86      0.00
  -39   26    4      0.94      0.00
  -40   26    3      0.77      0.00
  -41   26    2     -0.16      0.00
  -42   26    1      0.24      0.00
  -17   43    0      1.83      0.00
  -18   44    1     -0.72      0.00
  -19   45    2      1.06      0.00
  -20   46    3     -0.73      0.00
  -35   28    9     -0.36      0.00
  -36   28    8     -3.56      0.00
  -37   28    7      0.67      0.00
  -38   28    6      2.16      0.00
  -39   28    5     -2.45      0.00
  -40   28    4      0.58      0.00
  -41   28    3      1.07      0.00
  -42   28    2      3.03      0.00
  -43   28    1      0.04      0.00
  -16   44    0      2.16      0.00
  -17   45    1      1.28      0.00
  -18   46    2      2.35      0.00
  -19   47    3     -0.27      0.00
  -20   48    4      0.38      0.00
  -36   30    9      0.56      0.00
  -37   30    8      0.77      0.00
  -38   30    7      0.09      0.00
  -39   30    6      1.41      0.00
  -40   30    5     -0.92      0.00
  -41   30    4     -0.24      0.00
  -42   30    3      0.65      0.00
  -43   30    2      1.83      0.00
  -44   30    1     -0.66      0.00
  -15   45    0      2.97      0.00
  -16   46    1      0.89      0.00
  -17   47    2     -0.74      0.00
  -18   48    3     -3.02      0.00
  -19   49    4      3.27      0.00
  -20   50    5      0.70      0.00
  -38   32    8      2.13      0.00
  -39   32    7      1.72      0.00
  -40   32    6     -1.53      0.00
  -41   32    5      0.01      0.00
  -42   32    4      0.92      0.00
  -43   32    3     -0.34      0.00
  -44   32    2      0.43      0.00
  -45   32    1      1.18      0.00
  -14   46    0      1.51      0.00
  -15   47    1     -0.48      0.00
  -16   48    2     -1.14      0.00
  -17   49    3     -3.91      0.00
  -18   50    4      1.55      0.00
  -39   34    8      1.21      0.00
  -40   34    7      4.24      0.00
  -41   34    6     -0.67      0.00
  -42   34    5     -0.09      0.00
  -43   34    4      1.18      0.00
  -44   34    3      3.12      0.00
  -45   34    2      1.03      0.00
  -46   34    1      0.19      0.00
  -13   47    0      0.02      0.00
  -14   48    1      1.28      0.00
  -15   49    2     -0.14      0.00
  -16   50    3      0.10      0.00
  -17   51    4     -2.00      0.00
  -41   36    7      1.28      0.00
  -42   36    6     -0.57      0.00
  -43   36    5      0.30      0.00
  -44   36    4     -0.24      0.00
  -45   36    3      2.84      0.00
  -46   36    2      2.09      0.00
  -47   36    1     -1.16      0.00
  -12   48    0     -0.96      0.00
  -13   49    1      2.84      0.00
  -14   50    2     -1.37      0.00
  -15   51    3      1.66      0.00
  -43   38    6     -2.73      0.00
  -44   38    5     -0.50      0.00
  -45   38    4     -1.05      0.00
  -46   38    3     -1.03      0.00
  -47   38    2      1.59      0.00
  -48   38    1     -0.09      0.00
  -11   49    0     -2.29      0.00
  -12   50    1      0.37      0.00
  -13   51    2     -1.62      0.00
  -45   40    5     -2.30      0.00
  -46   40    4      0.16      0.00
  -47   40    3     -0.87      0.00
  -48   40    2      0.25      0.00
  -49   40    1     -1.53      0.00
  -10   50    0     -0.16      0.00
  -11   51    1     -0.43      0.00
  -47   42    4     -0.20      0.00
  -48   42    3     -0.50      0.00
  -49   42    2      1.17      0.00
  -50   42    1     -2.23      0.00
   -9   51    0      1.07      0.00
    7   17   11     -3.16      0.00
    7   18   10     -4.98      0.00
    9   16   11     -3.01      0.00
    9   17   10      3.12      0.00
    9   18    9     -6.07      0.00
    9   19    8     -2.72      0.00
    9   20    7     -2.11      0.00
   11   15   11     -2.80      0.00
   11   16   10      8.13      0.00
   11   17    9     -1.01      0.00
   11   18    8      1.32      0.00
   11   19    7     -1.36      0.00
   11   20    6      0.06      0.00
   13   14   11     -2.91      0.00
   13   15   10      4.90      0.00
   13   16    9      3.05      0.00
   13   17    8      0.94      0.00
   13   18    7     -0.09      0.00
   13   19    6     -2.82      0.00
   13   20    5      1.66      0.00
  -28   15   11     -0.01      0.00
  -29   15   10      1.25      0.00
   15   15    9      2.10      0.00
   15   16    8     -1.39      0.00
   15   17    7      1.79      0.00
   15   18    6     -1.59      0.00
   15   19    5      1.59      0.00
   15   20    4      2.66      0.00
  -30   17   10     -3.34      0.00
  -31   17    9      0.56      0.00
  -32   17    8      1.61      0.00
  -33   17    7      2.97      0.00
   17   17    6     -0.12      0.00
   17   18    5      1.57      0.00
   17   19    4      2.06      0.00
   17   20    3      2.54      0.00
  -31   19   10     -6.72      0.00
  -32   19    9      0.13      0.00
  -33   19    8      4.32      0.00
  -34   19    7      1.71      0.00
  -35   19    6     -0.58      0.00
  -36   19    5     -0.61      0.00
  -37   19    4      2.39      0.00
   19   19    3      0.56      0.00
   19   20    2     -2.42      0.00
  -32   21   10     -5.07      0.00
  -33   21    9      0.23      0.00
  -34   21    8      1.30      0.00
  -35   21    7      0.15      0.00
  -36   21    6     -1.24      0.00
  -37   21    5     -0.33      0.00
  -38   21    4      1.26      0.00
  -39   21    3      1.00      0.00
  -40   21    2      0.39      0.00
  -41   21    1     -1.07      0.00
  -33   23   10     -4.74      0.00
  -34   23    9      1.31      0.00
  -35   23    8     -0.87      0.00
  -36   23    7      0.15      0.00
  -37   23    6     -1.23      0.00
  -38   23    5     -0.30      0.00
  -39   23    4      0.59      0.00
  -40   23    3      1.68      0.00
  -41   23    2      1.40      0.00
  -42   23    1     -2.65      0.00
  -20   43    0     -1.80      0.00
  -21   44    1     -2.47      0.00
  -35   25    9      1.61      0.00
  -36   25    8     -0.50      0.00
  -37   25    7     -0.82      0.00
  -38   25    6     -0.82      0.00
  -39   25    5     -1.45      0.00
  -40   25    4      0.02      0.00
  -41   25    3     -0.66      0.00
  -42   25    2      2.58      0.00
  -43   25    1      0.32      0.00
  -19   44    0      0.37      0.00
  -20   45    1     -1.96      0.00
  -21   46    2     -0.34      0.00
  -36   27    9      0.47      0.00
  -37   27    8     -1.95      0.00
  -38   27    7      0.34      0.00
  -39   27    6      0.91      0.00
  -40   27    5     -1.48      0.00
  -41   27    4     -0.65      0.00
  -42   27    3     -1.30      0.00
  -43   27    2      2.94      0.00
  -44   27    1     -1.24      0.00
  -18   45    0      1.91      0.00
  -19   46    1      1.18      0.00
  -20   47    2      1.69      0.00
  -21   48    3     -1.33      0.00
  -37   29    9      1.28      0.00
  -38   29    8     -0.79      0.00
  -39   29    7      1.17      0.00
  -40   29    6      1.73      0.00
  -41   29    5     -1.91      0.00
  -42   29    4     -1.38      0.00
  -43   29    3      1.07      0.00
  -44   29    2     -0.05      0.00
  -45   29    1     -3.19      0.00
  -17   46    0      2.59      0.00
  -18   47    1      1.42      0.00
  -19   48    2      1.08      0.00
  -20   49    3     -0.02      0.00
  -21   50    4     -0.69      0.00
  -39   31    8      1.89      0.00
  -40   31    7      0.09      0.00
  -41   31    6     -1.17      0.00
  -42   31    5     -1.11      0.00
  -43   31    4     -2.09      0.00
  -44   31    3      0.77      0.00
  -45   31    2     -0.25      0.00
  -46   31    1     -0.90      0.00
  -16   47    0      0.62      0.00
  -17   48    1     -0.11      0.00
  -18   49    2     -0.16      0.00
  -19   50    3     -1.45      0.00
  -20   51    4      3.36      0.00
  -40   33    8     -0.31      0.00
  -41   33    7      2.07      0.00
  -42   33    6     -3.62      0.00
  -43   33    5      0.62      0.00
  -44   33    4     -0.43      0.00
  -45   33    3      0.01      0.00
  -46   33    2      1.24      0.00
  -47   33    1      0.32      0.00
  -15   48    0     -1.19      0.00
  -16   49    1      0.60      0.00
  -17   50    2      1.15      0.00
  -18   51    3     -0.77      0.00
  -42   35    7      1.44      0.00
  -43   35    6     -2.66      0.00
  -44   35    5      0.98      0.00
  -45   35    4      0.26      0.00
  -46   35    3      0.59      0.00
  -47   35    2      1.42      0.00
  -48   35    1     -2.10      0.00
  -14   49    0      0.08      0.00
  -15   50    1      1.28      0.00
  -16   51    2     -0.49      0.00
  -17   52    3      3.43      0.00
  -44   37    6     -2.81      0.00
  -45   37    5     -0.60      0.00
  -46   37    4     -1.38      0.00
  -47   37    3     -0.10      0.00
  -48   37    2      1.91      0.00
  -49   37    1     -2.29      0.00
  -13   50    0     -1.40      0.00
  -14   51    1      0.89      0.00
  -15   52    2     -2.35      0.00
  -46   39    5     -2.62      0.00
  -47   39    4     -0.58      0.00
  -48   39    3      0.51      0.00
  -49   39    2      0.75      0.00
  -50   39    1      0.58      0.00
  -12   51    0     -1.75      0.00
  -13   52    1      0.40      0.00
  -48   41    4      0.40      0.00
  -49   41    3      1.16      0.00
  -50   41    2      0.37      0.00
  -51   41    1      2.05      0.00
  -11   52    0      1.60      0.00
   10   18   10     -0.27      0.00
   10   19    9     -5.67      0.00
   10   20    8      1.21      0.00
   10   21    7      0.57      0.00
   12   17   10      2.05      0.00
   12   18    9      1.46      0.00
   12   19    8      0.86      0.00
   12   20    7      0.06      0.00
   12   21    6      0.17      0.00
   14   16   10      0.70      0.00
   14   17    9      2.47      0.00
   14   18    8     -1.29      0.00
   14   19    7      1.20      0.00
   14   20    6     -1.84      0.00
   14   21    5      2.61      0.00
  -31   16   10     -1.90      0.00
   16   16    9      0.62      0.00
   16   17    8      0.24      0.00
   16   18    7      2.19      0.00
   16   19    6     -0.20      0.00
   16   20    5      0.21      0.00
   16   21    4     -1.55      0.00
  -32   18   10     -4.79      0.00
  -33   18    9      1.25      0.00
  -34   18    8      3.64      0.00
  -35   18    7      0.93      0.00
   18   18    6     -0.64      0.00
   18   19    5     -0.83      0.00
   18   20    4     -1.55      0.00
   18   21    3      1.11      0.00
  -33   20   10     -4.00      0.00
  -34   20    9     -0.60      0.00
  -35   20    8      2.27      0.00
  -36   20    7     -1.07      0.00
  -37   20    6     -1.88      0.00
  -38   20    5     -1.24      0.00
  -39   20    4     -0.78      0.00
   20   20    3      0.38      0.00
   20   21    2      1.26      0.00
  -34   22   10     -2.63      0.00
  -35   22    9     -2.50      0.00
  -36   22    8      0.03      0.00
  -37   22    7     -0.65      0.00
  -38   22    6     -1.82      0.00
  -39   22    5     -1.76      0.00
  -40   22    4      0.52      0.00
  -41   22    3     -0.30      0.00
  -42   22    2      1.68      0.00
  -43   22    1     -1.03      0.00
  -36   24    9      0.63      0.00
  -37   24    8      0.00      0.00
  -38   24    7     -0.42      0.00
  -39   24    6     -2.10      0.00
  -40   24    5     -1.83      0.00
  -41   24    4      1.21      0.00
  -42   24    3     -2.81      0.00
  -43   24    2      4.12      0.00
  -44   24    1      1.59      0.00
  -21   45    0      2.23      0.00
  -22   46    1     -0.41      0.00
  -37   26    9      1.47      0.00
  -38   26    8     -0.49      0.00
  -39   26    7     -0.18      0.00
  -40   26    6     -0.56      0.00
  -41   26    5      0.41      0.00
  -42   26    4     -0.36      0.00
  -43   26    3     -3.20      0.00
  -44   26    2      4.05      0.00
  -45   26    1      1.31      0.00
  -20   46    0      1.23      0.00
  -21   47    1      0.94      0.00
  -22   48    2      0.61      0.00
  -38   28    9      1.70      0.00
  -39   28    8     -0.06      0.00
  -40   28    7      1.48      0.00
  -41   28    6      0.79      0.00
  -42   28    5      1.75      0.00
  -43   28    4     -0.70      0.00
  -44   28    3     -0.09      0.00
  -45   28    2     -0.47      0.00
  -46   28    1     -1.67      0.00
  -19   47    0      1.88      0.00
  -20   48    1      0.71      0.00
  -21   49    2      1.44      0.00
  -22   50    3      0.33      0.00
  -40   30    8      2.73      0.00
  -41   30    7      0.83      0.00
  -42   30    6     -0.44      0.00
  -43   30    5      0.16      0.00
  -44   30    4     -0.95      0.00
  -45   30    3      3.56      0.00
  -46   30    2     -1.51      0.00
  -47   30    1     -1.78      0.00
  -18   48    0      0.19      0.00
  -19   49    1     -1.35      0.00
  -20   50    2      0.65      0.00
  -21   51    3      0.53      0.00
  -41   32    8      3.73      0.00
  -42   32    7      0.51      0.00
  -43   32    6     -1.56      0.00
  -44   32    5      0.16      0.00
  -45   32    4     -1.44      0.00
  -46   32    3      2.78      0.00
  -47   32    2      2.54      0.00
  -48   32    1     -0.17      0.00
  -17   49    0     -2.29      0.00
  -18   50    1     -0.13      0.00
  -19   51    2     -0.38      0.00
  -20   52    3     -1.25      0.00
  -43   34    7      2.35      0.00
  -44   34    6     -1.29      0.00
  -45   34    5      2.33      0.00
  -46   34    4     -0.45      0.00
  -47   34    3     -0.47      0.00
  -48   34    2      2.54      0.00
  -49   34    1     -0.23      0.00
  -16   50    0     -0.58      0.00
  -17   51    1      0.35      0.00
  -18   52    2     -0.81      0.00
  -45   36    6     -1.97      0.00
  -46   36    5      2.20      0.00
  -47   36    4     -0.48      0.00
  -48   36    3     -0.37      0.00
  -49   36    2     -0.28      0.00
  -50   36    1     -2.22      0.00
  -15   51    0      0.46      0.00
  -16   52    1     -0.98      0.00
  -17   53    2     -2.07      0.00
  -47   38    5      0.08      0.00
  -48   38    4      1.07      0.00
  -49   38    3      2.13      0.00
  -50   38    2     -1.21      0.00
  -51   38    1     -0.99      0.00
  -14   52    0     -2.02      0.00
  -15   53    1      0.41      0.00
  -49   40    4      2.73      0.00
  -50   40    3      3.83      0.00
  -51   40    2     -0.64      0.00
  -52   40    1      3.38      0.00
   11   20    9      0.79      0.00
   11   21    8      0.05      0.00
   11   22    7      1.36      0.00
   13   18   10      0.04      0.00
   13   19    9      2.13      0.00
   13   20    8     -1.46      0.00
   13   21    7      1.58      0.00
   13   22    6      1.63      0.00
   15   17   10      0.20      0.00
   15   18    9      0.80      0.00
   15   19    8     -1.57      0.00
   15   20    7      1.46      0.00
   15   21    6      0.62      0.00
   15   22    5     -0.09      0.00
  -33   17   10      1.55      0.00
   17   17    9      2.20      0.00
   17   18    8      0.56      0.00
   17   19    7     -0.10      0.00
   17   20    6      0.82      0.00
   17   21    5     -0.71      0.00
   17   22    4     -2.92      0.00
  -34   19   10      2.74      0.00
  -35   19    9      2.08      0.00
  -36   19    8      0.20      0.00
  -37   19    7     -2.61      0.00
   19   19    6     -0.27      0.00
   19   20    5      1.02      0.00
   19   21    4     -2.09      0.00
   19   22    3     -0.95      0.00
  -36   21    9     -2.94      0.00
  -37   21    8     -0.98      0.00
  -38   21    7     -1.74      0.00
  -39   21    6     -1.16      0.00
  -40   21    5     -0.74      0.00
  -41   21    4      0.14      0.00
   21   21    3      0.28      0.00
   21   22    2     -0.81      0.00
  -37   23    9     -3.31      0.00
  -38   23    8     -1.00      0.00
  -39   23    7     -0.25      0.00
  -40   23    6     -1.95      0.00
  -41   23    5     -3.08      0.00
  -42   23    4      2.16      0.00
  -43   23    3     -1.06      0.00
  -44   23    2      1.31      0.00
  -45   23    1      0.56      0.00
  -38   25    9     -1.13      0.00
  -39   25    8     -1.71      0.00
  -40   25    7     -0.67      0.00
  -41   25    6     -1.01      0.00
  -42   25    5     -1.58      0.00
  -43   25    4      2.13      0.00
  -44   25    3     -2.21      0.00
  -45   25    2      2.79      0.00
  -46   25    1      0.27      0.00
  -22   47    0      0.23      0.00
  -23   48    1     -0.89      0.00
  -40   27    8     -1.61      0.00
  -41   27    7     -0.16      0.00
  -42   27    6      0.27      0.00
  -43   27    5      2.73      0.00
  -44   27    4      1.07      0.00
  -45   27    3     -1.36      0.00
  -46   27    2     -0.34      0.00
  -47   27    1     -0.98      0.00
  -21   48    0     -0.23      0.00
  -22   49    1     -1.25      0.00
  -23   50    2      0.64      0.00
  -41   29    8      0.21      0.00
  -42   29    7     -0.67      0.00
  -43   29    6     -1.48      0.00
  -44   29    5      4.52      0.00
  -45   29    4      1.40      0.00
  -46   29    3      1.84      0.00
  -47   29    2     -3.00      0.00
  -48   29    1     -0.93      0.00
  -20   49    0     -0.68      0.00
  -21   50    1     -2.52      0.00
  -22   51    2      1.14      0.00
  -23   52    3      0.43      0.00
  -43   31    7     -2.75      0.00
  -44   31    6     -2.15      0.00
  -45   31    5      2.11      0.00
  -46   31    4      1.22      0.00
  -47   31    3      4.89      0.00
  -48   31    2      0.44      0.00
  -49   31    1     -1.07      0.00
  -19   50    0     -2.34      0.00
  -20   51    1     -1.18      0.00
  -21   52    2     -0.71      0.00
  -22   53    3     -0.68      0.00
  -44   33    7     -1.47      0.00
  -45   33    6     -0.10      0.00
  -46   33    5      1.39      0.00
  -47   33    4     -0.41      0.00
  -48   33    3      2.07      0.00
  -49   33    2      3.91      0.00
  -50   33    1     -0.09      0.00
  -18   51    0     -1.69      0.00
  -19   52    1      0.47      0.00
  -20   53    2     -2.67      0.00
  -46   35    6     -1.04      0.00
  -47   35    5      2.75      0.00
  -48   35    4     -1.60      0.00
  -49   35    3     -0.41      0.00
  -50   35    2     -0.11      0.00
  -51   35    1      0.69      0.00
  -17   52    0     -0.40      0.00
  -18   53    1     -1.97      0.00
  -48   37    5      2.35      0.00
  -49   37    4      0.71      0.00
  -50   37    3      1.99      0.00
  -51   37    2     -4.15      0.00
  -52   37    1     -0.80      0.00
  -16   53    0     -1.71      0.00
  -51   39    3      4.28      0.00
  -52   39    2     -2.21      0.00
   12   22    8     -1.42      0.00
   12   23    7      1.45      0.00
   14   20    9     -0.21      0.00
   14   21    8     -1.15      0.00
   14   22    7      1.35      0.00
   14   23    6      1.57      0.00
   16   19    9      0.08      0.00
   16   20    8     -0.68      0.00
   16   21    7      0.65      0.00
   16   22    6     -0.30      0.00
   16   23    5     -0.75      0.00
   18   18    9      1.13      0.00
   18   19    8     -0.57      0.00
   18   20    7     -1.15      0.00
   18   21    6      0.85      0.00
   18   22    5      1.27      0.00
   18   23    4     -0.10      0.00
  -37   20    9     -0.71      0.00
  -38   20    8     -0.65      0.00
  -39   20    7     -1.19      0.00
   20   20    6      0.56      0.00
   20   21    5      1.25      0.00
   20   22    4      0.13      0.00
   20   23    3      0.00      0.00
  -38   22    9     -1.43      0.00
  -39   22    8      0.48      0.00
  -40   22    7      1.10      0.00
  -41   22    6     -1.58      0.00
  -42   22    5     -3.46      0.00
  -43   22    4      0.57      0.00
   22   22    3      1.15      0.00
   22   23    2     -1.65      0.00
  -39   24    9     -0.13      0.00
  -40   24    8     -0.17      0.00
  -41   24    7      1.27      0.00
  -42   24    6     -1.14      0.00
  -43   24    5     -5.97      0.00
  -44   24    4      0.53      0.00
  -45   24    3     -0.15      0.00
  -46   24    2      0.62      0.00
  -47   24    1     -1.31      0.00
  -41   26    8     -0.74      0.00
  -42   26    7      0.26      0.00
  -43   26    6      0.88      0.00
  -44   26    5     -3.24      0.00
  -45   26    4     -0.34      0.00
  -46   26    3     -1.69      0.00
  -47   26    2     -0.30      0.00
  -48   26    1     -2.04      0.00
  -23   49    0      0.31      0.00
  -24   50    1     -2.77      0.00
  -42   28    8      0.34      0.00
  -43   28    7     -0.56      0.00
  -44   28    6     -0.72      0.00
  -45   28    5      2.34      0.00
  -46   28    4     -1.15      0.00
  -47   28    3     -1.66      0.00
  -48   28    2     -2.06      0.00
  -49   28    1     -0.02      0.00
  -22   50    0      0.13      0.00
  -23   51    1     -2.34      0.00
  -24   52    2      1.12      0.00
  -44   30    7     -2.76      0.00
  -45   30    6     -3.06      0.00
  -46   30    5      4.27      0.00
  -47   30    4      0.90      0.00
  -48   30    3      0.85      0.00
  -49   30    2     -1.79      0.00
  -50   30    1      1.24      0.00
  -21   51    0     -1.03      0.00
  -22   52    1     -0.24      0.00
  -23   53    2      1.32      0.00
  -46   32    6     -1.51      0.00
  -47   32    5      2.14      0.00
  -48   32    4      1.39      0.00
  -49   32    3      1.95      0.00
  -50   32    2      1.73      0.00
  -51   32    1      0.38      0.00
  -20   52    0     -0.32      0.00
  -21   53    1      1.96      0.00
  -47   34    6     -0.52      0.00
  -48   34    5      1.23      0.00
  -49   34    4     -1.88      0.00
  -50   34    3      0.12      0.00
  -51   34    2      1.77      0.00
  -52   34    1      1.99      0.00
  -19   53    0      0.05      0.00
  -20   54    1      0.16      0.00
  -50   36    4     -2.23      0.00
  -51   36    3      0.59      0.00
  -52   36    2     -3.46      0.00
  -53   36    1      2.83      0.00
   13   23    8     -0.07      0.00
   13   24    7      1.25      0.00
   15   21    9     -3.18      0.00
   15   22    8      0.16      0.00
   15   23    7      0.76      0.00
   15   24    6     -2.16      0.00
   17   20    9     -3.65      0.00
   17   21    8     -0.35      0.00
   17   22    7      0.67      0.00
   17   23    6     -2.38      0.00
   17   24    5     -1.24      0.00
   19   19    9     -4.60      0.00
   19   20    8     -0.11      0.00
   19   21    7      0.20      0.00
   19   22    6      1.00      0.00
   19   23    5     -0.07      0.00
   19   24    4      0.40      0.00
  -39   21    9     -1.81      0.00
  -40   21    8      0.88      0.00
  -41   21    7      0.70      0.00
   21   21    6     -0.56      0.00
   21   22    5     -1.75      0.00
   21   23    4      0.68      0.00
   21   24    3      0.85      0.00
  -41   23    8      1.27      0.00
  -42   23    7      1.67      0.00
  -43   23    6     -2.32      0.00
  -44   23    5     -4.55      0.00
  -45   23    4     -0.24      0.00
   23   23    3      0.99      0.00
   23   24    2      0.28      0.00
  -42   25    8      0.75      0.00
  -43   25    7      1.41      0.00
  -44   25    6      0.32      0.00
  -45   25    5     -4.91      0.00
  -46   25    4     -1.34      0.00
  -47   25    3     -1.28      0.00
  -48   25    2      0.88      0.00
  -49   25    1     -2.02      0.00
  -44   27    7      0.08      0.00
  -45   27    6      1.05      0.00
  -46   27    5     -1.87      0.00
  -47   27    4     -2.79      0.00
  -48   27    3     -1.61      0.00
  -49   27    2     -0.31      0.00
  -50   27    1     -0.97      0.00
  -24   51    0      2.52      0.00
  -25   52    1     -2.16      0.00
  -45   29    7     -0.84      0.00
  -46   29    6     -1.39      0.00
  -47   29    5      2.46      0.00
  -48   29    4     -1.52      0.00
  -49   29    3     -0.69      0.00
  -50   29    2     -0.90      0.00
  -51   29    1      1.51      0.00
  -23   52    0     -0.24      0.00
  -24   53    1     -0.45      0.00
  -25   54    2      0.98      0.00
  -47   31    6     -1.69      0.00
  -48   31    5      4.24      0.00
  -49   31    4      2.66      0.00
  -50   31    3      0.14      0.00
  -51   31    2     -0.21      0.00
  -52   31    1      1.79      0.00
  -22   53    0     -0.67      0.00
  -23   54    1      1.84      0.00
  -49   33    5      3.38      0.00
  -50   33    4      2.23      0.00
  -51   33    3      1.02      0.00
  -52   33    2      1.24      0.00
  -53   33    1      0.90      0.00
  -21   54    0      0.42      0.00
  -51   35    4     -0.40      0.00
  -52   35    3      0.69      0.00
  -53   35    2     -0.73      0.00
   14   24    8      0.97      0.00
   14   25    7     -0.45      0.00
   16   23    8      1.08      0.00
   16   24    7     -0.39      0.00
   16   25    6     -2.70      0.00
   18   22    8      1.60      0.00
   18   23    7      0.78      0.00
   18   24    6     -0.12      0.00
   18   25    5     -0.16      0.00
   20   21    8      1.43      0.00
   20   22    7      0.39      0.00
   20   23    6      1.52      0.00
   20   24    5      0.21      0.00
   20   25    4      1.59      0.00
  -42   22    8      0.37      0.00
  -43   22    7     -0.04      0.00
   22   22    6     -1.76      0.00
   22   23    5      0.60      0.00
   22   24    4      2.05      0.00
   22   25    3      0.31      0.00
  -43   24    8      0.17      0.00
  -44   24    7      0.81      0.00
  -45   24    6     -1.46      0.00
  -46   24    5      0.53      0.00
  -47   24    4      0.36      0.00
   24   24    3     -0.65      0.00
   24   25    2      1.84      0.00
  -45   26    7      0.27      0.00
  -46   26    6      0.65      0.00
  -47   26    5     -0.41      0.00
  -48   26    4     -0.73      0.00
  -49   26    3     -1.70      0.00
  -50   26    2      0.41      0.00
  -51   26    1     -2.03      0.00
  -47   28    6     -0.86      0.00
  -48   28    5     -0.66      0.00
  -49   28    4     -0.99      0.00
  -50   28    3     -0.12      0.00
  -51   28    2     -1.81      0.00
  -52   28    1     -1.53      0.00
  -25   53    0      0.24      0.00
  -26   54    1     -1.16      0.00
  -48   30    6     -2.78      0.00
  -49   30    5      1.55      0.00
  -50   30    4      0.92      0.00
  -51   30    3     -0.06      0.00
  -52   30    2     -1.26      0.00
  -53   30    1     -0.18      0.00
  -24   54    0     -1.92      0.00
  -51   32    4      3.08      0.00
  -52   32    3      0.83      0.00
  -53   32    2     -0.07      0.00
  -54   32    1      0.14      0.00
   15   26    7     -3.46      0.00
   17   24    8      3.27      0.00
   17   25    7     -1.12      0.00
   17   26    6      0.41      0.00
   19   24    7      0.77      0.00
   19   25    6      1.32      0.00
   19   26    5      1.08      0.00
   21   23    7     -0.02      0.00
   21   24    6     -0.98      0.00
   21   25    5      1.81      0.00
   21   26    4      1.18      0.00
  -45   23    7     -0.11      0.00
   23   23    6     -2.36      0.00
   23   24    5      2.69      0.00
   23   25    4     -0.10      0.00
   23   26    3     -1.21      0.00
  -46   25    7      1.49      0.00
  -47   25    6     -0.19      0.00
  -48   25    5      1.32      0.00
  -49   25    4     -0.72      0.00
   25   25    3     -1.23      0.00
   25   26    2      0.79      0.00
  -48   27    6     -0.52      0.00
  -49   27    5     -1.57      0.00
  -50   27    4      0.72      0.00
  -51   27    3     -1.74      0.00
  -52   27    2     -2.19      0.00
  -53   27    1     -1.92      0.00
  -27   54    0      0.02      0.00
  -50   29    5     -2.64      0.00
  -51   29    4      0.03      0.00
  -52   29    3     -1.21      0.00
  -53   29    2     -3.10      0.00
  -54   29    1     -1.87      0.00
  -53   31    3     -0.12      0.00
  -54   31    2     -0.47      0.00
   18   26    7      1.33      0.00
   18   27    6      1.32      0.00
   20   25    7      0.40      0.00
   20   26    6     -1.53      0.00
   20   27    5      0.36      0.00
   22   24    7     -2.30      0.00
   22   25    6     -3.31      0.00
   22   26    5     -0.33      0.00
   22   27    4     -2.01      0.00
   24   24    6     -1.23      0.00
   24   25    5     -2.24      0.00
   24   26    4     -2.45      0.00
   24   27    3      1.52      0.00
  -50   26    5     -2.48      0.00
  -51   26    4      0.20      0.00
   26   26    3     -0.07      0.00
   26   27    2      0.26      0.00
  -52   28    4      1.41      0.00
  -53   28    3     -2.22      0.00
  -54   28    2     -1.92      0.00
   19   28    6     -0.23      0.00
   21   27    6     -2.41      0.00
   21   28    5     -2.81      0.00
   23   27    5     -6.35      0.00
   23   28    4     -3.11      0.00
   23   31    1      1.02      0.00
   25   27    4     -1.63      0.00
   25   28    3      2.88      0.00
   25   29    2      0.68      0.00
   20   33    2      1.80      0.00
   20   34    1     -1.30      0.00
   22   31    3      0.86      0.00
   17   34    4     -1.41      0.00
   17   35    3      4.01      0.00
   17   36    2     -0.66      0.00
   10   40    3      1.13      0.00
   12   39    3      0.03      0.00
   -1    2    0    388.16      0.00
   -2    4    0     17.32      0.00
   -4    8    0     59.53      0.00
    0   48    0     -2.18      0.00
  -47   49    0     -1.77      0.00
   -2   49    0     -1.40      0.00
  -49   50    0     -0.41      0.00
  -46   50    0     -1.20      0.00
   -4   50    0      0.95      0.00
   -1   50    0     -0.97      0.00
  -48   51    0      0.23      0.00
  -45   51    0     -1.04      0.00
   -6   51    0      0.88      0.00
   -3   51    0      1.49      0.00
    0   51    0      0.06      0.00
  -50   52    0      1.13      0.00
  -47   52    0     -0.84      0.00
  -44   52    0     -1.33      0.00
   -8   52    0     -0.42      0.00
   -5   52    0      2.51      0.00
   -2   52    0      0.92      0.00
  -49   53    0     -0.23      0.00
  -46   53    0     -0.23      0.00
  -43   53    0      0.07      0.00
  -40   53    0      0.61      0.00
  -13   53    0     -1.23      0.00
  -10   53    0      1.41      0.00
   -7   53    0      0.42      0.00
   -4   53    0      2.32      0.00
  -48   54    0     -1.03      0.00
  -45   54    0      0.50      0.00
  -42   54    0      1.16      0.00
  -39   54    0     -1.32      0.00
  -36   54    0      0.27      0.00
  -18   54    0     -1.20      0.00
  -15   54    0     -3.13      0.00
  -12   54    0      1.37      0.00
   -9   54    0      0.24      0.00
   -6   54    0      1.22      0.00
   -5    3    1    -42.34      0.00
   -4    4    1    -76.02      0.00
   -8    6    1     84.80      0.00
   -6    8    1     83.37      0.00
   27   29    1      1.74      0.00
   25   30    1      2.23      0.00
   28   30    1      0.88      0.00
   26   31    1      0.92      0.00
   24   32    1     -0.51      0.00
   27   32    1     -0.17      0.00
   22   33    1     -1.96      0.00
   25   33    1     -1.12      0.00
   23   34    1     -2.86      0.00
  -54   35    1      2.33      0.00
   21   35    1     -3.29      0.00
   24   35    1     -0.39      0.00
   19   36    1     -4.56      0.00
   22   36    1     -0.39      0.00
   17   37    1     -4.47      0.00
   20   37    1     -2.15      0.00
  -54   38    1      0.37      0.00
   18   38    1     -4.53      0.00
  -53   39    1      0.24      0.00
   16   39    1     -3.66      0.00
   19   39    1     -1.24      0.00
   14   40    1     -2.70      0.00
   17   40    1     -2.71      0.00
  -54   41    1      2.40      0.00
   12   41    1     -2.79      0.00
   15   41    1     -3.42      0.00
  -53   42    1      3.73      0.00
   10   42    1     -2.65      0.00
   13   42    1     -2.68      0.00
  -52   43    1      0.87      0.00
    8   43    1     -1.23      0.00
   11   43    1     -2.50      0.00
   14   43    1     -2.07      0.00
  -54   44    1      1.01      0.00
  -51   44    1     -0.76      0.00
    9   44    1     -3.23      0.00
   12   44    1     -0.94      0.00
  -53   45    1     -0.07      0.00
  -50   45    1      0.44      0.00
    7   45    1      0.02      0.00
   10   45    1     -1.62      0.00
  -52   46    1      0.52      0.00
  -49   46    1     -1.49      0.00
    5   46    1      2.18      0.00
    8   46    1     -1.23      0.00
  -54   47    1      0.61      0.00
  -51   47    1      0.07      0.00
  -48   47    1     -3.94      0.00
    3   47    1     -0.53      0.00
    6   47    1      0.62      0.00
  -53   48    1      1.14      0.00
  -50   48    1     -2.89      0.00
  -47   48    1     -2.20      0.00
    1   48    1     -1.76      0.00
    4   48    1      0.27      0.00
  -52   49    1      0.65      0.00
  -49   49    1     -3.17      0.00
  -46   49    1     -0.62      0.00
   -1   49    1     -2.04      0.00
    2   49    1     -0.36      0.00
  -51   50    1      0.40      0.00
  -48   50    1     -0.75      0.00
  -45   50    1     -1.30      0.00
   -3   50    1     -2.25      0.00
    0   50    1     -0.67      0.00
    3   50    1      0.19      0.00
  -50   51    1      0.49      0.00
  -47   51    1     -0.30      0.00
  -44   51    1     -1.80      0.00
   -8   51    1     -0.46      0.00
   -5   51    1     -0.70      0.00
   -2   51    1     -1.50      0.00
    1   51    1     -0.21      0.00
  -49   52    1      0.63      0.00
  -46   52    1     -0.88      0.00
  -43   52    1     -1.68      0.00
  -10   52    1     -0.03      0.00
   -7   52    1     -0.60      0.00
   -4   52    1     -0.63      0.00
   -1   52    1     -0.96      0.00
  -48   53    1      0.76      0.00
  -45   53    1     -0.46      0.00
  -42   53    1     -1.55      0.00
  -39   53    1     -2.56      0.00
  -12   53    1      0.05      0.00
   -9   53    1     -0.41      0.00
   -6   53    1      0.34      0.00
   -3   53    1     -0.58      0.00
  -47   54    1      0.64      0.00
  -44   54    1     -0.43      0.00
  -41   54    1     -1.90      0.00
  -38   54    1     -0.48      0.00
  -35   54    1      1.84      0.00
  -17   54    1     -1.75      0.00
  -14   54    1      0.48      0.00
  -11   54    1      0.63      0.00
   -8   54    1      0.13      0.00
   -8    8    2    -24.33      0.00
  -11   11    2    -19.33      0.00
   27   28    2      1.08      0.00
   28   29    2     -0.67      0.00
   26   30    2     -1.05      0.00
   29   30    2     -1.76      0.00
   24   31    2     -1.65      0.00
   27   31    2     -2.17      0.00
   22   32    2     -0.07      0.00
   25   32    2     -1.98      0.00
   23   33    2     -0.95      0.00
   26   33    2     -0.40      0.00
  -54   34    2      0.04      0.00
   21   34    2      2.19      0.00
   24   34    2      0.21      0.00
   19   35    2      3.67      0.00
   22   35    2      2.13      0.00
   20   36    2      4.48      0.00
  -54   37    2     -2.21      0.00
   18   37    2      1.60      0.00
   21   37    2      1.72      0.00
  -53   38    2     -3.01      0.00
   16   38    2     -3.10      0.00
   19   38    2      0.54      0.00
   14   39    2     -3.97      0.00
   17   39    2     -1.94      0.00
  -54   40    2      0.74      0.00
   12   40    2     -3.07      0.00
   15   40    2     -3.16      0.00
  -53   41    2     -0.07      0.00
   13   41    2     -4.50      0.00
   16   41    2     -0.12      0.00
  -52   42    2      0.58      0.00
   11   42    2     -3.42      0.00
   14   42    2     -0.54      0.00
  -54   43    2     -0.58      0.00
  -51   43    2      1.87      0.00
    9   43    2      0.11      0.00
   12   43    2     -0.96      0.00
  -53   44    2      0.01      0.00
  -50   44    2      3.33      0.00
    7   44    2      1.21      0.00
   10   44    2     -0.48      0.00
  -52   45    2      1.22      0.00
  -49   45    2      3.07      0.00
    5   45    2      0.32      0.00
    8   45    2      0.07      0.00
  -54   46    2     -0.54      0.00
  -51   46    2      1.69      0.00
  -48   46    2      0.21      0.00
    3   46    2     -0.80      0.00
    6   46    2      0.72      0.00
    9   46    2     -0.47      0.00
  -53   47    2     -0.24      0.00
  -50   47    2     -0.26      0.00
  -47   47    2     -0.39      0.00
    1   47    2     -2.76      0.00
    4   47    2     -0.35      0.00
    7   47    2     -0.23      0.00
  -52   48    2     -0.94      0.00
  -49   48    2     -2.10      0.00
  -46   48    2      2.99      0.00
   -1   48    2     -3.15      0.00
    2   48    2     -0.73      0.00
    5   48    2     -0.29      0.00
  -51   49    2     -2.13      0.00
  -48   49    2     -1.01      0.00
  -45   49    2      3.52      0.00
   -3   49    2     -2.25      0.00
    0   49    2      0.20      0.00
    3   49    2     -0.72      0.00
  -50   50    2     -3.11      0.00
  -47   50    2      1.42      0.00
  -44   50    2     -0.22      0.00
   -5   50    2     -3.03      0.00
   -2   50    2      0.54      0.00
    1   50    2      1.15      0.00
  -49   51    2     -2.69      0.00
  -46   51    2      1.05      0.00
  -43   51    2     -0.20      0.00
   -7   51    2     -2.17      0.00
   -4   51    2      1.22      0.00
   -1   51    2      1.45      0.00
  -48   52    2     -0.58      0.00
  -45   52    2     -0.63      0.00
  -42   52    2      2.19      0.00
  -12   52    2     -2.18      0.00
   -9   52    2     -0.06      0.00
   -6   52    2      0.29      0.00
   -3   52    2      1.05      0.00
  -47   53    2     -0.03      0.00
  -44   53    2      0.44      0.00
  -41   53    2      1.33      0.00
  -38   53    2     -0.41      0.00
  -14   53    2     -2.09      0.00
  -11   53    2     -0.90      0.00
   -8   53    2     -0.59      0.00
   -5   53    2      1.78      0.00
  -46   54    2     -0.45      0.00
  -43   54    2      1.19      0.00
  -40   54    2      0.63      0.00
  -37   54    2      1.10      0.00
  -34   54    2     -1.49      0.00
  -22   54    2     -1.07      0.00
  -19   54    2     -1.42      0.00
  -16   54    2     -2.44      0.00
  -13   54    2     -1.40      0.00
  -10   54    2      0.66      0.00
   -7   54    2      0.02      0.00
    0    0    3      8.48      0.00
   27   27    3      1.21      0.00
   28   28    3      2.99      0.00
   26   29    3      1.59      0.00
   29   29    3      1.99      0.00
  -54   30    3     -0.97      0.00
   24   30    3     -0.19      0.00
   27   30    3      2.12      0.00
   25   31    3     -0.81      0.00
   23   32    3     -0.89      0.00
   26   32    3      0.81      0.00
  -54   33    3      1.57      0.00
   21   33    3      2.29      0.00
   24   33    3     -0.08      0.00
  -53   34    3      1.80      0.00
   19   34    3      4.20      0.00
   22   34    3      0.69      0.00
   20   35    3      3.08      0.00
  -54   36    3      0.60      0.00
   18   36    3      3.25      0.00
   21   36    3     -0.74      0.00
  -53   37    3      1.11      0.00
   16   37    3      0.04      0.00
   19   37    3     -0.31      0.00
  -52   38    3      2.62      0.00
   14   38    3     -1.89      0.00
   17   38    3     -3.36      0.00
  -54   39    3      2.64      0.00
   15   39    3     -5.87      0.00
   18   39    3     -1.78      0.00
  -53   40    3      3.94      0.00
   13   40    3     -4.81      0.00
   16   40    3     -4.04      0.00
  -52   41    3      5.06      0.00
   11   41    3     -2.44      0.00
   14   41    3     -4.73      0.00
  -54   42    3      2.84      0.00
  -51   42    3      3.02      0.00
    9   42    3     -0.91      0.00
   12   42    3     -4.25      0.00
  -53   43    3      1.67      0.00
  -50   43    3      0.48      0.00
    7   43    3     -1.52      0.00
   10   43    3     -2.01      0.00
  -52   44    3     -0.12      0.00
  -49   44    3     -1.43      0.00
    5   44    3      0.08      0.00
    8   44    3     -0.33      0.00
   11   44    3     -1.86      0.00
  -54   45    3     -2.59      0.00
  -51   45    3      0.19      0.00
  -48   45    3     -4.56      0.00
    3   45    3      1.70      0.00
    6   45    3     -0.41      0.00
    9   45    3     -1.08      0.00
  -53   46    3     -1.63      0.00
  -50   46    3     -0.95      0.00
  -47   46    3     -5.91      0.00
    1   46    3      0.20      0.00
    4   46    3      1.48      0.00
    7   46    3     -0.56      0.00
  -52   47    3      0.48      0.00
  -49   47    3     -2.82      0.00
  -46   47    3     -4.28      0.00
   -1   47    3     -0.03      0.00
    2   47    3      1.87      0.00
    5   47    3      0.05      0.00
  -51   48    3      0.96      0.00
  -48   48    3     -2.48      0.00
  -45   48    3     -2.41      0.00
   -3   48    3     -3.33      0.00
    0   48    3      0.98      0.00
    3   48    3      0.58      0.00
  -50   49    3      0.03      0.00
  -47   49    3     -2.19      0.00
  -44   49    3     -2.60      0.00
   -5   49    3     -6.43      0.00
   -2   49    3      0.97      0.00
    1   49    3      0.63      0.00
  -49   50    3     -0.86      0.00
  -46   50    3     -1.85      0.00
  -43   50    3     -2.17      0.00
   -7   50    3     -1.53      0.00
   -4   50    3     -2.69      0.00
   -1   50    3      1.15      0.00
  -48   51    3     -1.26      0.00
  -45   51    3     -0.67      0.00
  -42   51    3      0.43      0.00
   -9   51    3     -0.27      0.00
   -6   51    3     -2.78      0.00
   -3   51    3      1.03      0.00
  -47   52    3     -0.37      0.00
  -44   52    3      0.04      0.00
  -41   52    3      0.78      0.00
  -38   52    3      1.08      0.00
  -14   52    3     -0.62      0.00
  -11   52    3     -4.25      0.00
   -8   52    3      2.05      0.00
   -5   52    3     -1.15      0.00
  -46   53    3      0.64      0.00
  -43   53    3      0.24      0.00
  -40   53    3      0.42      0.00
  -37   53    3      1.33      0.00
  -34   53    3      0.51      0.00
  -19   53    3      0.23      0.00
  -16   53    3      2.67      0.00
  -13   53    3     -3.32      0.00
  -10   53    3     -0.13      0.00
   -7   53    3     -0.84      0.00
  -45   54    3      0.08      0.00
  -42   54    3      0.25      0.00
  -39   54    3      1.22      0.00
  -36   54    3      0.55      0.00
  -33   54    3     -0.79      0.00
  -30   54    3     -1.44      0.00
  -27   54    3     -0.46      0.00
  -24   54    3     -0.50      0.00
  -21   54    3     -1.61      0.00
  -18   54    3      2.69      0.00
  -15   54    3     -0.75      0.00
  -12   54    3     -3.50      0.00
   -9   54    3      1.11      0.00
  -53   27    4      0.51      0.00
   26   28    4     -2.72      0.00
  -54   29    4      0.31      0.00
   24   29    4     -2.05      0.00
   27   29    4     -2.90      0.00
  -53   30    4     -1.34      0.00
   22   30    4     -0.56      0.00
   25   30    4     -2.32      0.00
  -52   31    4     -0.89      0.00
   23   31    4      1.34      0.00
   26   31    4     -1.41      0.00
  -54   32    4     -2.04      0.00
   21   32    4      4.74      0.00
   24   32    4     -0.36      0.00
  -53   33    4      0.39      0.00
   19   33    4      3.08      0.00
   22   33    4      4.32      0.00
  -52   34    4      2.69      0.00
   20   34    4      5.40      0.00
  -54   35    4      1.61      0.00
   18   35    4      2.83      0.00
   21   35    4      2.01      0.00
  -53   36    4      1.85      0.00
   16   36    4      2.38      0.00
   19   36    4      1.65      0.00
  -52   37    4     -0.40      0.00
   14   37    4      2.51      0.00
   17   37    4      2.17      0.00
  -54   38    4      0.70      0.00
  -51   38    4      1.24      0.00
   12   38    4      1.06      0.00
   15   38    4      3.30      0.00
   18   38    4      0.33      0.00
  -53   39    4      0.12      0.00
  -50   39    4      4.35      0.00
   10   39    4     -0.15      0.00
   13   39    4      2.16      0.00
   16   39    4      1.37      0.00
  -52   40    4      2.49      0.00
    8   40    4      2.46      0.00
   11   40    4      1.33      0.00
   14   40    4      1.82      0.00
  -54   41    4     -0.06      0.00
  -51   41    4      3.05      0.00
    9   41    4      1.85      0.00
   12   41    4      0.63      0.00
  -53   42    4      0.37      0.00
  -50   42    4      0.87      0.00
    7   42    4      4.00      0.00
   10   42    4      1.15      0.00
  -52   43    4      0.72      0.00
  -49   43    4     -1.60      0.00
    5   43    4      3.48      0.00
    8   43    4      2.77      0.00
   11   43    4     -0.57      0.00
  -51   44    4      0.47      0.00
  -48   44    4     -4.07      0.00
    3   44    4     -0.53      0.00
    6   44    4      3.89      0.00
    9   44    4      1.15      0.00
  -53   45    4      1.39      0.00
  -50   45    4     -1.82      0.00
  -47   45    4     -2.73      0.00
    1   45    4     -0.43      0.00
    4   45    4      2.99      0.00
    7   45    4      1.77      0.00
  -52   46    4      1.85      0.00
  -49   46    4     -4.05      0.00
  -46   46    4      1.26      0.00
   -1   46    4      0.18      0.00
    2   46    4      0.88      0.00
    5   46    4      1.11      0.00
  -51   47    4      0.83      0.00
  -48   47    4     -2.79      0.00
  -45   47    4      0.87      0.00
   -3   47    4     -1.97      0.00
    0   47    4      1.75      0.00
    3   47    4      0.69      0.00
  -50   48    4     -1.09      0.00
  -47   48    4     -0.79      0.00
  -44   48    4     -1.96      0.00
   -5   48    4     -2.04      0.00
   -2   48    4      1.36      0.00
    1   48    4      0.40      0.00
  -49   49    4     -1.93      0.00
  -46   49    4     -1.48      0.00
  -43   49    4     -1.78      0.00
   -7   49    4     -2.28      0.00
   -4   49    4     -1.47      0.00
   -1   49    4      2.24      0.00
  -48   50    4     -0.36      0.00
  -45   50    4     -1.25      0.00
  -42   50    4      1.03      0.00
  -39   50    4      1.92      0.00
  -12   50    4      2.52      0.00
   -9   50    4     -0.90      0.00
   -6   50    4     -0.86      0.00
   -3   50    4      0.93      0.00
  -47   51    4      0.74      0.00
  -44   51    4      0.43      0.00
  -41   51    4      2.91      0.00
  -38   51    4     -0.42      0.00
  -14   51    4     -1.58      0.00
  -11   51    4      2.61      0.00
   -8   51    4     -0.46      0.00
   -5   51    4     -1.62      0.00
  -46   52    4      1.28      0.00
  -43   52    4      0.67      0.00
  -40   52    4      2.16      0.00
  -37   52    4     -0.70      0.00
  -34   52    4     -0.71      0.00
  -31   52    4     -0.86      0.00
  -22   52    4     -0.10      0.00
  -19   52    4      1.98      0.00
  -16   52    4     -2.71      0.00
  -13   52    4      0.78      0.00
  -10   52    4     -1.29      0.00
   -7   52    4      0.51      0.00
  -45   53    4      0.82      0.00
  -42   53    4      0.89      0.00
  -39   53    4      0.70      0.00
  -36   53    4     -1.53      0.00
  -33   53    4     -0.02      0.00
  -30   53    4      0.00      0.00
  -27   53    4      2.41      0.00
  -24   53    4     -0.20      0.00
  -21   53    4      2.47      0.00
  -18   53    4     -0.99      0.00
  -15   53    4     -2.08      0.00
  -12   53    4     -0.11      0.00
   -9   53    4     -0.56      0.00
  -41   54    4      0.66      0.00
  -38   54    4     -0.15      0.00
  -35   54    4     -0.89      0.00
  -32   54    4     -0.35      0.00
  -29   54    4      0.44      0.00
  -26   54    4      0.92      0.00
  -23   54    4      0.21      0.00
  -20   54    4      0.56      0.00
  -17   54    4     -0.83      0.00
  -14   54    4     -0.44      0.00
  -11   54    4     -2.93      0.00
   25   26    5     -6.22      0.00
  -52   27    5     -2.32      0.00
   26   27    5     -2.55      0.00
  -54   28    5      0.46      0.00
  -51   28    5     -2.77      0.00
   24   28    5     -6.77      0.00
   27   28    5      0.21      0.00
  -53   29    5     -0.93      0.00
   22   29    5     -5.99      0.00
   25   29    5     -1.72      0.00
  -52   30    5     -2.25      0.00
   23   30    5     -3.52      0.00
  -54   31    5     -0.69      0.00
  -51   31    5     -0.34      0.00
   21   31    5     -2.06      0.00
   24   31    5     -0.89      0.00
  -53   32    5     -0.34      0.00
  -50   32    5      3.73      0.00
   19   32    5      0.68      0.00
   22   32    5     -0.89      0.00
  -52   33    5      1.92      0.00
   17   33    5     -0.94      0.00
   20   33    5      0.23      0.00
  -54   34    5      0.92      0.00
  -51   34    5      3.64      0.00
   18   34    5      0.32      0.00
   21   34    5     -0.48      0.00
  -53   35    5      1.88      0.00
  -50   35    5      2.21      0.00
   16   35    5     -1.52      0.00
   19   35    5     -1.28      0.00
  -52   36    5      1.96      0.00
  -49   36    5      1.66      0.00
   14   36    5     -2.29      0.00
   17   36    5     -1.10      0.00
  -54   37    5      0.27      0.00
  -51   37    5      1.32      0.00
   12   37    5     -5.07      0.00
   15   37    5      0.13      0.00
  -53   38    5      0.27      0.00
  -50   38    5      1.15      0.00
   10   38    5     -5.75      0.00
   13   38    5     -0.74      0.00
   16   38    5      0.61      0.00
  -52   39    5     -0.57      0.00
  -49   39    5      1.22      0.00
    8   39    5     -1.73      0.00
   11   39    5     -4.33      0.00
   14   39    5      1.14      0.00
  -51   40    5     -0.95      0.00
  -48   40    5     -0.30      0.00
    6   40    5     -2.96      0.00
    9   40    5     -3.70      0.00
   12   40    5     -1.03      0.00
  -53   41    5     -2.49      0.00
  -50   41    5      0.31      0.00
  -47   41    5     -3.04      0.00
    4   41    5     -6.01      0.00
    7   41    5     -1.00      0.00
   10   41    5     -2.47      0.00
  -52   42    5     -1.83      0.00
  -49   42    5     -0.60      0.00
  -46   42    5     -3.66      0.00
    5   42    5     -3.49      0.00
    8   42    5     -0.69      0.00
  -51   43    5     -0.55      0.00
  -48   43    5     -3.39      0.00
  -45   43    5     -1.43      0.00
    3   43    5     -4.31      0.00
    6   43    5      1.09      0.00
    9   43    5     -0.32      0.00
  -50   44    5     -1.45      0.00
  -47   44    5     -4.24      0.00
  -44   44    5      0.08      0.00
    1   44    5     -0.84      0.00
    4   44    5     -1.16      0.00
    7   44    5      1.63      0.00
  -49   45    5     -2.39      0.00
  -46   45    5     -2.70      0.00
  -43   45    5     -1.11      0.00
   -1   45    5      0.77      0.00
    2   45    5     -1.97      0.00
    5   45    5      2.23      0.00
  -48   46    5     -3.30      0.00
  -45   46    5     -1.62      0.00
  -42   46    5     -3.38      0.00
   -3   46    5      0.95      0.00
    0   46    5     -0.65      0.00
    3   46    5     -1.03      0.00
  -47   47    5     -2.99      0.00
  -44   47    5     -2.86      0.00
  -41   47    5     -2.70      0.00
   -5   47    5      1.27      0.00
   -2   47    5     -1.01      0.00
    1   47    5     -2.76      0.00
  -46   48    5     -1.65      0.00
  -43   48    5     -2.43      0.00
  -40   48    5      0.65      0.00
  -10   48    5     -1.98      0.00
   -7   48    5      2.60      0.00
   -4   48    5     -0.29      0.00
   -1   48    5     -2.32      0.00
  -45   49    5     -1.27      0.00
  -42   49    5      0.36      0.00
  -39   49    5      0.20      0.00
  -36   49    5      1.72      0.00
  -12   49    5     -4.27      0.00
   -9   49    5      2.90      0.00
   -6   49    5      0.66      0.00
   -3   49    5     -1.76      0.00
  -44   50    5     -0.14      0.00
  -41   50    5      0.33      0.00
  -38   50    5     -1.79      0.00
  -35   50    5      4.69      0.00
  -32   50    5     -0.64      0.00
  -17   50    5      1.77      0.00
  -14   50    5     -1.43      0.00
  -11   50    5     -0.52      0.00
   -8   50    5      1.21      0.00
   -5   50    5      0.00      0.00
  -43   51    5     -0.05      0.00
  -40   51    5     -1.18      0.00
  -37   51    5      0.28      0.00
  -34   51    5      2.71      0.00
  -31   51    5     -1.83      0.00
  -28   51    5     -1.81      0.00
  -25   51    5     -4.16      0.00
  -22   51    5     -2.37      0.00
  -19   51    5      3.73      0.00
  -16   51    5     -0.61      0.00
  -13   51    5     -2.04      0.00
  -10   51    5      1.95      0.00
   -7   51    5      0.16      0.00
  -42   52    5     -1.20      0.00
  -39   52    5     -1.11      0.00
  -36   52    5      1.60      0.00
  -33   52    5      1.07      0.00
  -30   52    5     -2.24      0.00
  -27   52    5     -2.82      0.00
  -24   52    5     -4.15      0.00
  -21   52    5      1.96      0.00
  -18   52    5      0.41      0.00
  -15   52    5     -0.43      0.00
  -12   52    5      0.04      0.00
   -9   52    5     -0.33      0.00
  -41   53    5     -0.43      0.00
  -38   53    5     -0.88      0.00
  -35   53    5      1.14      0.00
  -32   53    5      0.62      0.00
  -29   53    5     -2.77      0.00
  -26   53    5     -2.63      0.00
  -23   53    5     -0.85      0.00
  -20   53    5      1.78      0.00
  -17   53    5     -0.45      0.00
  -14   53    5     -0.47      0.00
  -37   54    5     -0.53      0.00
  -34   54    5      1.68      0.00
  -31   54    5     -1.87      0.00
  -28   54    5     -0.83      0.00
  -25   54    5     -0.56      0.00
  -22   54    5      0.29      0.00
  -19   54    5     -0.37      0.00
  -16   54    5      1.37      0.00
   25   25    6     -1.90      0.00
  -49   26    6      0.12      0.00
   23   26    6     -2.63      0.00
   26   26    6     -2.21      0.00
  -51   27    6     -1.63      0.00
   24   27    6     -2.09      0.00
   27   27    6     -0.30      0.00
  -53   28    6     -1.29      0.00
  -50   28    6     -1.80      0.00
   22   28    6      0.56      0.00
   25   28    6     -1.58      0.00
  -52   29    6     -2.46      0.00
  -49   29    6     -3.43      0.00
   20   29    6      1.99      0.00
   23   29    6      0.11      0.00
  -51   30    6     -3.88      0.00
   21   30    6      4.52      0.00
  -53   31    6     -2.15      0.00
  -50   31    6     -4.78      0.00
   19   31    6      4.08      0.00
   22   31    6     -0.06      0.00
  -52   32    6     -3.51      0.00
  -49   32    6     -2.47      0.00
   17   32    6      0.38      0.00
   20   32    6      3.60      0.00
  -51   33    6     -3.43      0.00
  -48   33    6     -0.57      0.00
   15   33    6     -2.03      0.00
   18   33    6      2.57      0.00
  -53   34    6     -1.00      0.00
  -50   34    6     -1.63      0.00
   16   34    6     -1.02      0.00
   19   34    6      1.91      0.00
  -52   35    6     -1.13      0.00
  -49   35    6     -1.20      0.00
   14   35    6     -2.30      0.00
   17   35    6      1.28      0.00
  -51   36    6     -0.49      0.00
  -48   36    6     -3.82      0.00
   12   36    6     -1.56      0.00
   15   36    6      0.27      0.00
  -50   37    6     -2.25      0.00
  -47   37    6     -5.10      0.00
   10   37    6     -2.21      0.00
   13   37    6      0.61      0.00
  -52   38    6     -0.22      0.00
  -49   38    6     -5.50      0.00
  -46   38    6     -4.52      0.00
    8   38    6     -3.57      0.00
   11   38    6     -0.84      0.00
   14   38    6      1.53      0.00
  -51   39    6     -1.65      0.00
  -48   39    6     -5.38      0.00
  -45   39    6     -5.63      0.00
    6   39    6     -2.86      0.00
    9   39    6     -1.30      0.00
   12   39    6      0.94      0.00
  -50   40    6     -2.00      0.00
  -47   40    6     -5.45      0.00
  -44   40    6     -4.39      0.00
    4   40    6     -1.88      0.00
    7   40    6     -1.65      0.00
   10   40    6     -0.45      0.00
  -49   41    6     -2.05      0.00
  -46   41    6     -6.75      0.00
    2   41    6     -0.72      0.00
    5   41    6     -3.44      0.00
    8   41    6      0.71      0.00
  -48   42    6     -3.60      0.00
  -45   42    6     -4.61      0.00
    0   42    6      0.35      0.00
    3   42    6     -2.67      0.00
    6   42    6     -1.68      0.00
  -47   43    6     -4.39      0.00
  -44   43    6     -1.81      0.00
   -2   43    6      0.12      0.00
    1   43    6     -0.49      0.00
    4   43    6     -4.65      0.00
  -49   44    6     -1.28      0.00
  -46   44    6     -3.15      0.00
  -43   44    6     -2.59      0.00
  -40   44    6     -3.63      0.00
   -4   44    6      1.47      0.00
   -1   44    6      0.53      0.00
    2   44    6     -3.15      0.00
    5   44    6     -2.44      0.00
  -48   45    6     -1.86      0.00
  -45   45    6     -1.99      0.00
  -42   45    6     -4.93      0.00
  -39   45    6     -5.05      0.00
   -6   45    6      0.21      0.00
   -3   45    6      1.05      0.00
    0   45    6     -1.96      0.00
    3   45    6     -3.48      0.00
  -47   46    6     -1.84      0.00
  -44   46    6     -3.24      0.00
  -41   46    6     -5.42      0.00
  -38   46    6     -2.71      0.00
   -8   46    6     -4.64      0.00
   -5   46    6      0.96      0.00
   -2   46    6     -2.53      0.00
    1   46    6     -2.08      0.00
  -46   47    6     -1.43      0.00
  -43   47    6     -3.89      0.00
  -40   47    6     -4.02      0.00
  -37   47    6     -1.58      0.00
  -13   47    6      0.07      0.00
  -10   47    6     -3.28      0.00
   -7   47    6     -0.31      0.00
   -4   47    6     -3.17      0.00
   -1   47    6     -2.93      0.00
  -45   48    6     -1.60      0.00
  -42   48    6     -2.44      0.00
  -39   48    6     -2.62      0.00
  -36   48    6     -2.88      0.00
  -33   48    6      0.68      0.00
  -15   48    6     -4.36      0.00
  -12   48    6     -0.24      0.00
   -9   48    6     -1.75      0.00
   -6   48    6     -1.57      0.00
   -3   48    6     -4.60      0.00
  -44   49    6     -1.17      0.00
  -41   49    6     -2.26      0.00
  -38   49    6     -1.54      0.00
  -35   49    6     -1.07      0.00
  -32   49    6      0.89      0.00
  -29   49    6      2.72      0.00
  -26   49    6      5.01      0.00
  -23   49    6     -1.79      0.00
  -20   49    6      3.19      0.00
  -17   49    6      0.22      0.00
  -14   49    6     -3.85      0.00
  -11   49    6     -0.27      0.00
   -8   49    6      0.89      0.00
   -5   49    6     -3.63      0.00
  -40   50    6     -0.89      0.00
  -37   50    6     -0.98      0.00
  -34   50    6      0.85      0.00
  -31   50    6      0.38      0.00
  -28   50    6      4.46      0.00
  -25   50    6      0.64      0.00
  -22   50    6     -0.15      0.00
  -19   50    6      5.35      0.00
  -16   50    6     -5.29      0.00
  -13   50    6      0.95      0.00
  -10   50    6      1.11      0.00
  -39   51    6      1.29      0.00
  -36   51    6     -0.60      0.00
  -33   51    6      0.11      0.00
  -30   51    6      1.21      0.00
  -27   51    6      1.88      0.00
  -24   51    6     -1.92      0.00
  -21   51    6      4.55      0.00
  -18   51    6     -0.03      0.00
  -15   51    6     -2.40      0.00
  -12   51    6      2.12      0.00
  -38   52    6     -0.15      0.00
  -35   52    6      0.35      0.00
  -32   52    6     -0.61      0.00
  -29   52    6      0.09      0.00
  -26   52    6     -0.91      0.00
  -23   52    6      0.95      0.00
  -20   52    6      3.09      0.00
  -17   52    6     -3.33      0.00
  -14   52    6      2.26      0.00
  -34   53    6      0.15      0.00
  -31   53    6     -1.14      0.00
  -28   53    6     -0.58      0.00
  -25   53    6     -0.12      0.00
  -22   53    6      1.04      0.00
  -19   53    6     -0.56      0.00
  -27   54    6      0.73      0.00
  -47   24    7     -1.13      0.00
  -49   25    7     -3.86      0.00
   23   25    7     -6.27      0.00
  -51   26    7     -2.93      0.00
  -48   26    7      1.15      0.00
   21   26    7     -3.88      0.00
   24   26    7     -4.46      0.00
  -50   27    7     -1.22      0.00
  -47   27    7      0.13      0.00
   16   27    7     -1.46      0.00
   19   27    7      1.93      0.00
   22   27    7     -4.95      0.00
  -49   28    7      0.42      0.00
  -46   28    7     -1.90      0.00
   17   28    7      3.54      0.00
   20   28    7     -1.01      0.00
   23   28    7     -0.45      0.00
  -51   29    7      0.06      0.00
  -48   29    7     -1.82      0.00
   18   29    7      3.23      0.00
   21   29    7     -0.27      0.00
  -50   30    7      0.19      0.00
  -47   30    7     -0.64      0.00
   16   30    7      3.35      0.00
   19   30    7      0.44      0.00
  -49   31    7      1.22      0.00
  -46   31    7     -0.13      0.00
   14   31    7      1.01      0.00
   17   31    7      0.25      0.00
   20   31    7      0.33      0.00
  -51   32    7      1.72      0.00
  -48   32    7      3.28      0.00
  -45   32    7     -3.23      0.00
   12   32    7     -0.60      0.00
   15   32    7     -2.04      0.00
   18   32    7     -1.30      0.00
  -50   33    7      3.10      0.00
  -47   33    7      2.07      0.00
   13   33    7     -4.31      0.00
   16   33    7     -2.50      0.00
  -49   34    7      3.07      0.00
  -46   34    7     -0.07      0.00
   11   34    7     -1.04      0.00
   14   34    7     -4.14      0.00
  -48   35    7      1.57      0.00
  -45   35    7      2.05      0.00
    9   35    7      3.70      0.00
   12   35    7     -1.78      0.00
   15   35    7     -0.68      0.00
  -50   36    7     -0.75      0.00
  -47   36    7      1.01      0.00
  -44   36    7      2.16      0.00
    7   36    7      0.37      0.00
   10   36    7      2.70      0.00
   13   36    7      0.53      0.00
  -49   37    7     -1.37      0.00
  -46   37    7      2.12      0.00
  -43   37    7     -1.60      0.00
    5   37    7     -2.73      0.00
    8   37    7      1.96      0.00
   11   37    7      3.69      0.00
  -48   38    7     -0.71      0.00
  -45   38    7      0.52      0.00
  -42   38    7     -0.61      0.00
    3   38    7      1.52      0.00
    6   38    7      0.15      0.00
    9   38    7      2.85      0.00
  -47   39    7     -0.65      0.00
  -44   39    7     -0.68      0.00
  -41   39    7     -0.83      0.00
    1   39    7      3.39      0.00
    4   39    7      1.79      0.00
    7   39    7      1.32      0.00
   10   39    7      1.33      0.00
  -46   40    7     -0.69      0.00
  -43   40    7      1.17      0.00
  -40   40    7     -4.48      0.00
   -1   40    7      2.23      0.00
    2   40    7      3.12      0.00
    5   40    7      3.26      0.00
    8   40    7     -0.39      0.00
  -48   41    7     -1.54      0.00
  -45   41    7      0.61      0.00
  -42   41    7      0.48      0.00
  -39   41    7     -1.35      0.00
   -3   41    7      2.03      0.00
    0   41    7      1.59      0.00
    3   41    7      3.23      0.00
    6   41    7      0.13      0.00
  -47   42    7     -0.18      0.00
  -44   42    7      2.25      0.00
  -41   42    7     -0.19      0.00
  -38   42    7      0.55      0.00
   -5   42    7      1.19      0.00
   -2   42    7      0.77      0.00
    1   42    7      0.06      0.00
    4   42    7      1.45      0.00
  -46   43    7      1.03      0.00
  -43   43    7      2.94      0.00
  -40   43    7      1.08      0.00
  -37   43    7     -2.16      0.00
  -10   43    7      0.61      0.00
   -7   43    7      0.70      0.00
   -4   43    7      3.55      0.00
   -1   43    7     -2.36      0.00
    2   43    7     -0.26      0.00
  -45   44    7      2.08      0.00
  -42   44    7      1.48      0.00
  -39   44    7     -0.27      0.00
  -36   44    7      0.02      0.00
  -12   44    7      0.03      0.00
   -9   44    7     -1.06      0.00
   -6   44    7      3.92      0.00
   -3   44    7      1.82      0.00
    0   44    7     -3.71      0.00
  -44   45    7      2.02      0.00
  -41   45    7     -0.05      0.00
  -38   45    7     -1.29      0.00
  -35   45    7      1.07      0.00
  -32   45    7     -1.32      0.00
  -17   45    7     -6.45      0.00
  -14   45    7      1.48      0.00
  -11   45    7     -2.61      0.00
   -8   45    7     -0.68      0.00
   -5   45    7      7.87      0.00
   -2   45    7     -2.65      0.00
  -43   46    7     -0.02      0.00
  -40   46    7     -0.42      0.00
  -37   46    7     -0.43      0.00
  -34   46    7     -0.75      0.00
  -31   46    7      0.54      0.00
  -28   46    7     -2.58      0.00
  -19   46    7     -3.40      0.00
  -16   46    7     -2.21      0.00
  -13   46    7     -0.20      0.00
  -10   46    7     -3.56      0.00
   -7   46    7      4.94      0.00
   -4   46    7      3.34      0.00
  -42   47    7     -0.25      0.00
  -39   47    7     -1.69      0.00
  -36   47    7     -0.08      0.00
  -33   47    7      1.13      0.00
  -30   47    7     -0.93      0.00
  -27   47    7     -2.44      0.00
  -24   47    7      0.31      0.00
  -21   47    7     -1.71      0.00
  -18   47    7     -4.69      0.00
  -15   47    7      1.34      0.00
  -12   47    7     -3.40      0.00
   -9   47    7      0.01      0.00
   -6   47    7      5.07      0.00
  -41   48    7     -0.20      0.00
  -38   48    7     -1.34      0.00
  -35   48    7      0.81      0.00
  -32   48    7      1.89      0.00
  -29   48    7     -2.47      0.00
  -26   48    7      0.37      0.00
  -23   48    7     -3.05      0.00
  -20   48    7     -3.75      0.00
  -17   48    7     -0.26      0.00
  -14   48    7     -1.95      0.00
  -11   48    7     -0.57      0.00
   -8   48    7      1.83      0.00
  -37   49    7      0.73      0.00
  -34   49    7      1.66      0.00
  -31   49    7      0.21      0.00
  -28   49    7      0.14      0.00
  -25   49    7     -2.10      0.00
  -22   49    7     -4.13      0.00
  -19   49    7     -1.20      0.00
  -16   49    7     -0.09      0.00
  -13   49    7     -1.14      0.00
  -10   49    7      0.65      0.00
  -36   50    7      0.40      0.00
  -33   50    7      1.87      0.00
  -30   50    7      0.63      0.00
  -27   50    7     -0.07      0.00
  -24   50    7     -3.98      0.00
  -21   50    7     -0.72      0.00
  -18   50    7      0.11      0.00
  -15   50    7     -1.06      0.00
  -32   51    7      1.60      0.00
  -29   51    7      0.88      0.00
  -26   51    7     -1.89      0.00
  -23   51    7     -0.48      0.00
  -20   51    7      0.51      0.00
    7   20    8     -1.90      0.00
    8   21    8     -0.79      0.00
    9   22    8     -0.82      0.00
   21   22    8      2.22      0.00
  -44   23    8      1.25      0.00
   10   23    8     -3.93      0.00
   19   23    8      4.27      0.00
   22   23    8      1.80      0.00
  -46   24    8      2.38      0.00
   11   24    8     -4.09      0.00
   20   24    8      3.58      0.00
   23   24    8     -0.33      0.00
  -48   25    8      1.30      0.00
  -45   25    8      1.45      0.00
   12   25    8     -2.06      0.00
   15   25    8      0.92      0.00
   18   25    8      4.41      0.00
   21   25    8      0.17      0.00
   24   25    8     -0.09      0.00
  -47   26    8      2.90      0.00
  -44   26    8      0.34      0.00
   13   26    8     -1.51      0.00
   16   26    8      1.92      0.00
   19   26    8      1.94      0.00
   22   26    8     -1.02      0.00
  -49   27    8      1.40      0.00
  -46   27    8      1.16      0.00
  -43   27    8      1.93      0.00
   14   27    8     -1.00      0.00
   17   27    8      2.18      0.00
   20   27    8     -0.22      0.00
  -48   28    8      1.57      0.00
  -45   28    8      2.03      0.00
   15   28    8      0.47      0.00
   18   28    8      0.61      0.00
   21   28    8     -0.13      0.00
  -47   29    8      1.74      0.00
  -44   29    8      3.21      0.00
   16   29    8     -0.26      0.00
   19   29    8      0.11      0.00
  -46   30    8      2.10      0.00
  -43   30    8      1.46      0.00
   14   30    8      1.01      0.00
   17   30    8     -1.12      0.00
  -48   31    8      1.15      0.00
  -45   31    8      1.73      0.00
  -42   31    8      3.17      0.00
   12   31    8      4.02      0.00
   15   31    8     -1.77      0.00
  -47   32    8     -0.65      0.00
  -44   32    8      1.98      0.00
   10   32    8      2.35      0.00
   13   32    8     -0.98      0.00
   16   32    8     -0.92      0.00
  -46   33    8     -0.21      0.00
  -43   33    8      2.63      0.00
    8   33    8      2.37      0.00
   11   33    8     -1.29      0.00
   14   33    8     -1.22      0.00
  -45   34    8     -0.35      0.00
  -42   34    8     -0.56      0.00
    6   34    8      6.70      0.00
    9   34    8      0.49      0.00
   12   34    8     -2.54      0.00
  -47   35    8     -0.67      0.00
  -44   35    8     -2.82      0.00
  -41   35    8     -1.63      0.00
    7   35    8      3.24      0.00
   10   35    8     -0.20      0.00
  -46   36    8     -2.19      0.00
  -43   36    8     -4.35      0.00
  -40   36    8      5.90      0.00
    5   36    8      2.90      0.00
    8   36    8      2.92      0.00
   11   36    8      0.55      0.00
  -45   37    8     -3.55      0.00
  -42   37    8     -0.40      0.00
  -39   37    8      6.39      0.00
    0   37    8     -0.75      0.00
    3   37    8      2.06      0.00
    6   37    8      0.04      0.00
    9   37    8      3.16      0.00
  -44   38    8     -2.41      0.00
  -41   38    8      4.17      0.00
  -38   38    8     -1.42      0.00
   -2   38    8     -0.30      0.00
    1   38    8      2.41      0.00
    4   38    8     -0.51      0.00
    7   38    8      1.27      0.00
  -43   39    8     -1.35      0.00
  -40   39    8      0.50      0.00
  -37   39    8      0.82      0.00
   -4   39    8      0.89      0.00
   -1   39    8      2.38      0.00
    2   39    8      2.90      0.00
    5   39    8     -1.87      0.00
  -42   40    8     -1.42      0.00
  -39   40    8     -2.05      0.00
  -36   40    8      4.10      0.00
   -9   40    8      1.26      0.00
   -6   40    8      2.87      0.00
   -3   40    8      0.37      0.00
    0   40    8      3.99      0.00
    3   40    8     -0.21      0.00
  -44   41    8     -1.69      0.00
  -41   41    8     -1.94      0.00
  -38   41    8      2.20      0.00
  -35   41    8     -0.33      0.00
  -11   41    8     -1.11      0.00
   -8   41    8      1.42      0.00
   -5   41    8     -2.02      0.00
   -2   41    8      2.04      0.00
    1   41    8      2.36      0.00
  -43   42    8     -0.64      0.00
  -40   42    8     -2.05      0.00
  -37   42    8      1.85      0.00
  -34   42    8     -1.09      0.00
  -31   42    8     -1.55      0.00
  -13   42    8     -6.18      0.00
  -10   42    8     -0.42      0.00
   -7   42    8     -2.02      0.00
   -4   42    8     -3.07      0.00
   -1   42    8      2.35      0.00
  -42   43    8     -0.58      0.00
  -39   43    8     -0.47      0.00
  -36   43    8     -2.05      0.00
  -33   43    8     -0.13      0.00
  -30   43    8     -2.78      0.00
  -27   43    8      2.79      0.00
  -18   43    8      3.52      0.00
  -15   43    8     -6.28      0.00
  -12   43    8     -2.62      0.00
   -9   43    8     -2.28      0.00
   -6   43    8     -4.93      0.00
   -3   43    8     -0.28      0.00
  -41   44    8     -2.26      0.00
  -38   44    8     -0.33      0.00
  -35   44    8     -1.87      0.00
  -32   44    8     -0.92      0.00
  -29   44    8      1.37      0.00
  -26   44    8      1.29      0.00
  -23   44    8     -3.50      0.00
  -20   44    8      0.47      0.00
  -17   44    8     -0.39      0.00
  -14   44    8     -5.43      0.00
  -11   44    8     -2.76      0.00
   -8   44    8     -3.01      0.00
   -5   44    8     -2.14      0.00
  -37   45    8     -2.48      0.00
  -34   45    8      0.32      0.00
  -31   45    8      0.79      0.00
  -28   45    8      2.76      0.00
  -25   45    8     -1.80      0.00
  -22   45    8     -1.38      0.00
  -19   45    8      0.67      0.00
  -16   45    8     -4.50      0.00
  -13   45    8     -1.68      0.00
  -10   45    8     -3.54      0.00
   -7   45    8     -1.13      0.00
  -36   46    8     -1.08      0.00
  -33   46    8      1.07      0.00
  -30   46    8      2.24      0.00
  -27   46    8      0.82      0.00
  -24   46    8     -0.05      0.00
  -21   46    8     -2.04      0.00
  -18   46    8     -1.53      0.00
  -15   46    8     -2.02      0.00
  -12   46    8     -2.53      0.00
   -9   46    8     -1.13      0.00
  -35   47    8      1.43      0.00
  -32   47    8      0.55      0.00
  -29   47    8      1.86      0.00
  -26   47    8      1.70      0.00
  -23   47    8     -1.43      0.00
  -20   47    8     -1.86      0.00
  -17   47    8     -1.73      0.00
  -14   47    8     -0.60      0.00
  -11   47    8     -1.66      0.00
  -31   48    8      1.07      0.00
  -28   48    8      1.78      0.00
  -25   48    8      1.44      0.00
  -22   48    8     -3.06      0.00
  -19   48    8     -0.08      0.00
  -16   48    8     -0.89      0.00
  -27   49    8      1.50      0.00
  -24   49    8     -0.75      0.00
  -21   49    8     -0.64      0.00
    4   19    9      5.76      0.00
    7   19    9     -0.93      0.00
    5   20    9      6.45      0.00
    8   20    9     -6.11      0.00
   20   20    9     -5.91      0.00
    6   21    9      1.82      0.00
    9   21    9     -2.71      0.00
   12   21    9      3.17      0.00
   18   21    9     -5.80      0.00
   21   21    9     -3.25      0.00
  -41   22    9     -1.76      0.00
    7   22    9     -2.27      0.00
   10   22    9      4.10      0.00
   13   22    9     -0.72      0.00
   16   22    9     -3.20      0.00
   19   22    9     -2.98      0.00
   22   22    9     -1.14      0.00
  -43   23    9     -1.49      0.00
  -40   23    9      1.80      0.00
    8   23    9      0.31      0.00
   11   23    9      2.41      0.00
   14   23    9     -1.55      0.00
   17   23    9     -1.12      0.00
   20   23    9     -1.06      0.00
  -45   24    9      0.19      0.00
  -42   24    9      0.63      0.00
    9   24    9     -0.17      0.00
   12   24    9     -1.14      0.00
   15   24    9      0.37      0.00
   18   24    9     -0.58      0.00
   21   24    9     -0.72      0.00
  -44   25    9     -0.35      0.00
  -41   25    9      2.34      0.00
   10   25    9     -3.95      0.00
   13   25    9     -0.87      0.00
   16   25    9     -0.90      0.00
   19   25    9     -1.21      0.00
  -43   26    9      1.37      0.00
  -40   26    9     -1.09      0.00
   11   26    9     -4.99      0.00
   14   26    9     -2.12      0.00
   17   26    9     -1.95      0.00
  -45   27    9      0.77      0.00
  -42   27    9      0.98      0.00
  -39   27    9     -1.82      0.00
   12   27    9     -5.45      0.00
   15   27    9     -3.30      0.00
   18   27    9     -1.01      0.00
  -44   28    9      1.18      0.00
  -41   28    9     -2.30      0.00
   13   28    9     -4.94      0.00
   16   28    9     -1.23      0.00
  -43   29    9     -0.64      0.00
  -40   29    9      0.92      0.00
   11   29    9     -1.13      0.00
   14   29    9     -3.04      0.00
  -45   30    9     -0.34      0.00
  -42   30    9      0.04      0.00
  -39   30    9      3.90      0.00
    9   30    9      4.91      0.00
   12   30    9      0.21      0.00
   15   30    9     -0.68      0.00
  -44   31    9      0.23      0.00
  -41   31    9      2.89      0.00
  -38   31    9      0.06      0.00
    7   31    9      0.62      0.00
   10   31    9      5.50      0.00
   13   31    9     -0.39      0.00
  -43   32    9      1.74      0.00
  -40   32    9     -0.19      0.00
  -37   32    9      0.26      0.00
    5   32    9     -6.59      0.00
    8   32    9      3.28      0.00
   11   32    9      2.79      0.00
  -42   33    9     -0.19      0.00
  -39   33    9     -3.18      0.00
  -36   33    9      2.58      0.00
    3   33    9     -5.21      0.00
    6   33    9     -1.15      0.00
    9   33    9      0.54      0.00
  -41   34    9     -2.68      0.00
  -38   34    9      1.91      0.00
  -35   34    9      0.21      0.00
    1   34    9     -1.74      0.00
    4   34    9     -2.04      0.00
    7   34    9     -1.38      0.00
  -43   35    9     -0.25      0.00
  -40   35    9     -0.22      0.00
  -37   35    9      1.67      0.00
  -34   35    9      0.02      0.00
   -1   35    9     -0.78      0.00
    2   35    9      0.05      0.00
    5   35    9      0.53      0.00
    8   35    9     -2.72      0.00
  -42   36    9      1.35      0.00
  -39   36    9      2.14      0.00
  -36   36    9     -4.33      0.00
  -33   36    9      2.57      0.00
   -3   36    9     -2.69      0.00
    0   36    9      3.53      0.00
    3   36    9      0.44      0.00
    6   36    9     -1.23      0.00
  -41   37    9      2.31      0.00
  -38   37    9     -3.53      0.00
  -35   37    9     -0.92      0.00
  -32   37    9      1.80      0.00
   -8   37    9      0.48      0.00
   -5   37    9     -4.70      0.00
   -2   37    9      3.11      0.00
    1   37    9      2.08      0.00
    4   37    9      0.20      0.00
  -40   38    9      0.54      0.00
  -37   38    9     -6.35      0.00
  -34   38    9      2.37      0.00
  -31   38    9      1.11      0.00
  -10   38    9      1.13      0.00
   -7   38    9     -1.95      0.00
   -4   38    9     -0.01      0.00
   -1   38    9      3.75      0.00
    2   38    9      0.12      0.00
  -39   39    9     -2.14      0.00
  -36   39    9     -1.27      0.00
  -33   39    9     -1.15      0.00
  -30   39    9      3.51      0.00
  -27   39    9      0.29      0.00
  -12   39    9      3.38      0.00
   -9   39    9     -0.65      0.00
   -6   39    9     -0.75      0.00
   -3   39    9      1.81      0.00
    0   39    9      1.02      0.00
  -38   40    9     -2.60      0.00
  -35   40    9     -0.70      0.00
  -32   40    9      0.25      0.00
  -29   40    9      3.35      0.00
  -26   40    9     -1.35      0.00
  -23   40    9      2.95      0.00
  -20   40    9      0.58      0.00
  -17   40    9     -2.93      0.00
  -14   40    9      5.09      0.00
  -11   40    9     -3.35      0.00
   -8   40    9     -0.53      0.00
   -5   40    9      0.05      0.00
   -2   40    9      1.13      0.00
  -37   41    9     -0.80      0.00
  -34   41    9     -2.55      0.00
  -31   41    9      3.31      0.00
  -28   41    9      1.09      0.00
  -25   41    9      0.22      0.00
  -22   41    9      0.56      0.00
  -19   41    9     -0.43      0.00
  -16   41    9      1.44      0.00
  -13   41    9     -3.88      0.00
  -10   41    9     -2.10      0.00
   -7   41    9     -1.46      0.00
   -4   41    9     -0.41      0.00
  -36   42    9     -0.10      0.00
  -33   42    9     -0.03      0.00
  -30   42    9      2.44      0.00
  -27   42    9      0.75      0.00
  -24   42    9     -1.15      0.00
  -21   42    9      0.22      0.00
  -18   42    9      1.13      0.00
  -15   42    9     -2.63      0.00
  -12   42    9     -5.42      0.00
   -9   42    9     -1.56      0.00
   -6   42    9     -1.96      0.00
  -35   43    9     -0.50      0.00
  -32   43    9      2.41      0.00
  -29   43    9      1.40      0.00
  -26   43    9     -0.69      0.00
  -23   43    9     -2.31      0.00
  -20   43    9      3.02      0.00
  -17   43    9     -0.84      0.00
  -14   43    9     -6.07      0.00
  -11   43    9     -1.05      0.00
   -8   43    9     -1.84      0.00
  -31   44    9      1.82      0.00
  -28   44    9     -0.11      0.00
  -25   44    9     -1.96      0.00
  -22   44    9      0.87      0.00
  -19   44    9      1.55      0.00
  -16   44    9     -2.49      0.00
  -13   44    9     -1.93      0.00
  -30   45    9     -0.21      0.00
  -27   45    9     -0.72      0.00
  -24   45    9     -0.63      0.00
  -21   45    9      1.67      0.00
  -18   45    9      0.28      0.00
  -15   45    9     -0.89      0.00
  -35   18   10      5.96      0.00
    1   18   10     -3.14      0.00
    4   18   10      5.05      0.00
   16   18   10      0.51      0.00
  -37   19   10      4.04      0.00
    2   19   10      5.06      0.00
    5   19   10     -0.24      0.00
    8   19   10     -5.33      0.00
   11   19   10     -2.60      0.00
   14   19   10     -1.65      0.00
   17   19   10      0.68      0.00
  -39   20   10      1.54      0.00
  -36   20   10      4.26      0.00
    3   20   10      7.53      0.00
    6   20   10     -3.62      0.00
    9   20   10     -3.57      0.00
   12   20   10     -1.74      0.00
   15   20   10     -4.36      0.00
   18   20   10      1.35      0.00
  -41   21   10      1.86      0.00
  -38   21   10      0.24      0.00
  -35   21   10      0.31      0.00
    4   21   10      1.60      0.00
    7   21   10      2.16      0.00
   10   21   10     -2.40      0.00
   13   21   10     -2.69      0.00
   16   21   10     -1.80      0.00
   19   21   10      2.57      0.00
  -40   22   10      0.00      0.00
  -37   22   10     -1.43      0.00
    5   22   10      5.25      0.00
    8   22   10      3.19      0.00
   11   22   10     -0.28      0.00
   14   22   10     -1.60      0.00
   17   22   10      1.65      0.00
   20   22   10      2.30      0.00
  -42   23   10      0.27      0.00
  -39   23   10     -0.66      0.00
  -36   23   10     -2.02      0.00
    6   23   10      9.14      0.00
    9   23   10     -0.43      0.00
   12   23   10      3.66      0.00
   15   23   10      0.68      0.00
   18   23   10      2.15      0.00
  -41   24   10      1.11      0.00
  -38   24   10     -0.95      0.00
  -35   24   10     -3.29      0.00
    7   24   10      0.13      0.00
   10   24   10      3.51      0.00
   13   24   10      4.15      0.00
   16   24   10     -0.32      0.00
  -40   25   10      2.21      0.00
  -37   25   10     -1.46      0.00
  -34   25   10     -4.20      0.00
    8   25   10     -3.18      0.00
   11   25   10      6.29      0.00
   14   25   10     -0.05      0.00
  -39   26   10      0.09      0.00
  -36   26   10     -1.00      0.00
    9   26   10      1.16      0.00
   12   26   10      0.37      0.00
   15   26   10     -1.38      0.00
  -41   27   10      1.39      0.00
  -38   27   10      0.28      0.00
  -35   27   10     -0.49      0.00
    7   27   10     -0.91      0.00
   10   27   10     -3.04      0.00
   13   27   10     -1.51      0.00
  -40   28   10      0.34      0.00
  -37   28   10      1.11      0.00
  -34   28   10      1.74      0.00
    2   28   10     -2.87      0.00
    5   28   10     -0.28      0.00
    8   28   10     -1.22      0.00
   11   28   10     -6.22      0.00
  -39   29   10      1.54      0.00
  -36   29   10     -1.69      0.00
  -33   29   10      1.99      0.00
    3   29   10     -2.99      0.00
    6   29   10      3.34      0.00
    9   29   10     -5.43      0.00
  -38   30   10     -0.50      0.00
  -35   30   10     -2.21      0.00
  -32   30   10     -0.84      0.00
    1   30   10     -1.38      0.00
    4   30   10     -0.07      0.00
    7   30   10      1.05      0.00
   10   30   10     -3.25      0.00
  -40   31   10      0.68      0.00
  -37   31   10     -4.21      0.00
  -34   31   10     -1.95      0.00
  -31   31   10     -0.43      0.00
   -1   31   10      1.36      0.00
    2   31   10     -3.16      0.00
    5   31   10      0.31      0.00
    8   31   10      0.39      0.00
  -39   32   10     -0.85      0.00
  -36   32   10     -3.22      0.00
  -33   32   10     -2.93      0.00
  -30   32   10      0.38      0.00
   -3   32   10      1.03      0.00
    0   32   10     -1.68      0.00
    3   32   10     -2.17      0.00
    6   32   10      0.42      0.00
  -38   33   10     -1.32      0.00
  -35   33   10     -2.43      0.00
  -32   33   10     -0.59      0.00
  -29   33   10     -0.13      0.00
   -5   33   10      1.87      0.00
   -2   33   10     -1.24      0.00
    1   33   10     -0.42      0.00
    4   33   10     -1.31      0.00
  -37   34   10      0.15      0.00
  -34   34   10     -2.76      0.00
  -31   34   10      1.45      0.00
  -28   34   10     -1.45      0.00
  -25   34   10     -3.66      0.00
  -10   34   10     -2.15      0.00
   -7   34   10      0.32      0.00
   -4   34   10      0.79      0.00
   -1   34   10      0.09      0.00
    2   34   10      2.06      0.00
  -36   35   10     -0.23      0.00
  -33   35   10      1.09      0.00
  -30   35   10     -2.03      0.00
  -27   35   10     -3.92      0.00
  -24   35   10     -1.17      0.00
  -21   35   10     -1.22      0.00
  -18   35   10      0.50      0.00
  -15   35   10      4.65      0.00
  -12   35   10     -1.04      0.00
   -9   35   10     -0.40      0.00
   -6   35   10      1.93      0.00
   -3   35   10     -0.43      0.00
    0   35   10      4.64      0.00
  -35   36   10      0.17      0.00
  -32   36   10      0.81      0.00
  -29   36   10     -4.88      0.00
  -26   36   10     -2.13      0.00
  -23   36   10     -0.22      0.00
  -20   36   10     -1.35      0.00
  -17   36   10      2.74      0.00
  -14   36   10      0.83      0.00
  -11   36   10      2.45      0.00
   -8   36   10     -0.08      0.00
   -5   36   10      0.11      0.00
   -2   36   10      3.17      0.00
  -34   37   10      2.21      0.00
  -31   37   10     -4.57      0.00
  -28   37   10     -2.16      0.00
  -25   37   10      0.16      0.00
  -22   37   10     -1.53      0.00
  -19   37   10     -0.70      0.00
  -16   37   10      2.23      0.00
  -13   37   10      3.23      0.00
  -10   37   10      1.67      0.00
   -7   37   10     -0.52      0.00
   -4   37   10      1.29      0.00
  -33   38   10     -0.46      0.00
  -30   38   10     -2.93      0.00
  -27   38   10     -0.78      0.00
  -24   38   10     -0.27      0.00
  -21   38   10     -0.55      0.00
  -18   38   10     -0.81      0.00
  -15   38   10      3.16      0.00
  -12   38   10      5.55      0.00
   -9   38   10     -2.24      0.00
   -6   38   10      1.56      0.00
  -32   39   10     -2.37      0.00
  -29   39   10      0.22      0.00
  -26   39   10     -1.68      0.00
  -23   39   10      1.17      0.00
  -20   39   10     -1.42      0.00
  -17   39   10      1.57      0.00
  -14   39   10      5.26      0.00
  -11   39   10     -0.51      0.00
   -8   39   10      0.88      0.00
  -31   40   10      0.14      0.00
  -28   40   10     -1.56      0.00
  -25   40   10     -0.17      0.00
  -22   40   10      1.66      0.00
  -19   40   10     -0.41      0.00
  -16   40   10      2.53      0.00
  -13   40   10      2.32      0.00
  -10   40   10     -1.28      0.00
  -27   41   10     -1.54      0.00
  -24   41   10      0.84      0.00
  -21   41   10      1.22      0.00
  -18   41   10      1.27      0.00
  -15   41   10      0.45      0.00
  -23   42   10      1.35      0.00
  -20   42   10      1.52      0.00
   14   15   11      0.41      0.00
  -30   16   11      4.67      0.00
   12   16   11      1.75      0.00
   15   16   11      2.97      0.00
  -32   17   11      4.81      0.00
  -29   17   11      4.99      0.00
   10   17   11      3.12      0.00
   13   17   11      2.40      0.00
   16   17   11      0.32      0.00
  -34   18   11      1.25      0.00
  -31   18   11      5.85      0.00
    2   18   11      1.80      0.00
    5   18   11     -2.68      0.00
    8   18   11     -4.40      0.00
   11   18   11      7.47      0.00
   14   18   11     -1.46      0.00
   17   18   11      0.02      0.00
  -36   19   11      0.48      0.00
  -33   19   11      4.49      0.00
  -30   19   11      3.05      0.00
    3   19   11      0.85      0.00
    6   19   11    -10.34      0.00
    9   19   11      5.74      0.00
   12   19   11      0.05      0.00
   15   19   11     -2.10      0.00
   18   19   11      2.46      0.00
  -35   20   11      2.29      0.00
  -32   20   11      2.83      0.00
  -29   20   11      1.57      0.00
    1   20   11      4.62      0.00
    4   20   11     -5.47      0.00
    7   20   11     -4.23      0.00
   10   20   11      4.46      0.00
   13   20   11     -4.14      0.00
   16   20   11      2.62      0.00
  -37   21   11     -0.28      0.00
  -34   21   11      4.90      0.00
  -31   21   11     -1.93      0.00
  -28   21   11      3.18      0.00
    2   21   11      1.61      0.00
    5   21   11     -4.98      0.00
    8   21   11      3.97      0.00
   11   21   11     -3.80      0.00
   14   21   11      0.94      0.00
  -36   22   11      2.47      0.00
  -33   22   11      1.45      0.00
  -30   22   11      0.07      0.00
    3   22   11      1.43      0.00
    6   22   11      1.98      0.00
    9   22   11     -0.47      0.00
   12   22   11     -0.39      0.00
   15   22   11      3.26      0.00
  -35   23   11      3.75      0.00
  -32   23   11     -2.10      0.00
  -29   23   11      3.34      0.00
    4   23   11      3.98      0.00
    7   23   11      1.87      0.00
   10   23   11     -0.45      0.00
   13   23   11      3.00      0.00
  -34   24   11      1.75      0.00
  -31   24   11     -0.29      0.00
  -28   24   11      0.91      0.00
    2   24   11      3.78      0.00
    5   24   11      1.76      0.00
    8   24   11      0.00      0.00
   11   24   11      4.47      0.00
  -36   25   11      2.15      0.00
  -33   25   11     -1.41      0.00
  -30   25   11      1.71      0.00
  -27   25   11      1.04      0.00
    3   25   11      0.46      0.00
    6   25   11     -0.92      0.00
    9   25   11      3.26      0.00
  -35   26   11      1.82      0.00
  -32   26   11     -1.33      0.00
  -29   26   11      1.57      0.00
  -26   26   11      3.49      0.00
   -2   26   11      4.33      0.00
    1   26   11     -1.38      0.00
    4   26   11     -1.89      0.00
    7   26   11      0.01      0.00
   10   26   11      2.71      0.00
  -34   27   11     -0.98      0.00
  -31   27   11      1.09      0.00
  -28   27   11      2.53      0.00
  -25   27   11      1.55      0.00
   -4   27   11      4.36      0.00
   -1   27   11      0.50      0.00
    2   27   11     -1.86      0.00
    5   27   11      0.11      0.00
    8   27   11     -0.35      0.00
  -33   28   11     -0.12      0.00
  -30   28   11      1.17      0.00
  -27   28   11      2.73      0.00
  -24   28   11     -0.05      0.00
  -21   28   11      3.67      0.00
   -6   28   11      0.30      0.00
   -3   28   11      2.48      0.00
    0   28   11     -0.22      0.00
    3   28   11      2.07      0.00
    6   28   11     -0.47      0.00
  -32   29   11      1.63      0.00
  -29   29   11      0.80      0.00
  -26   29   11      0.92      0.00
  -23   29   11      1.44      0.00
  -20   29   11      2.34      0.00
  -17   29   11      2.05      0.00
  -14   29   11      2.90      0.00
  -11   29   11      3.30      0.00
   -8   29   11      0.08      0.00
   -5   29   11      0.17      0.00
   -2   29   11      0.68      0.00
    1   29   11      3.96      0.00
    4   29   11      2.53      0.00
  -34   30   11      0.72      0.00
  -31   30   11      0.66      0.00
  -28   30   11      0.54      0.00
  -25   30   11      1.77      0.00
  -22   30   11     -0.35      0.00
  -19   30   11     -0.36      0.00
  -16   30   11      4.29      0.00
  -13   30   11      2.31      0.00
  -10   30   11      0.71      0.00
   -7   30   11      0.44      0.00
   -4   30   11     -1.41      0.00
   -1   30   11      3.98      0.00
    2   30   11      3.51      0.00
  -33   31   11      1.92      0.00
  -30   31   11     -0.01      0.00
  -27   31   11      0.59      0.00
  -24   31   11      1.43      0.00
  -21   31   11     -2.97      0.00
  -18   31   11      1.30      0.00
  -15   31   11      4.29      0.00
  -12   31   11     -0.41      0.00
   -9   31   11      0.67      0.00
   -6   31   11      0.37      0.00
   -3   31   11      0.14      0.00
    0   31   11      3.50      0.00
  -32   32   11      1.40      0.00
  -29   32   11     -0.01      0.00
  -26   32   11      1.36      0.00
  -23   32   11     -1.14      0.00
  -20   32   11     -1.00      0.00
  -17   32   11      3.24      0.00
  -14   32   11      1.54      0.00
  -11   32   11     -1.90      0.00
   -8   32   11      3.61      0.00
   -5   32   11     -0.25      0.00
   -2   32   11      1.15      0.00
  -31   33   11      1.06      0.00
  -28   33   11     -0.70      0.00
  -25   33   11      1.21      0.00
  -22   33   11      1.12      0.00
  -19   33   11      0.16      0.00
  -16   33   11      3.07      0.00
  -13   33   11     -0.30      0.00
  -10   33   11      0.40      0.00
   -7   33   11      4.71      0.00
   -4   33   11     -1.06      0.00
  -30   34   11      0.12      0.00
  -27   34   11     -0.06      0.00
  -24   34   11      2.85      0.00
  -21   34   11      1.73      0.00
  -18   34   11      1.13      0.00
  -15   34   11      2.78      0.00
  -12   34   11     -1.53      0.00
   -9   34   11      5.27      0.00
   -6   34   11      1.13      0.00
  -26   35   11      2.94      0.00
  -23   35   11      3.05      0.00
  -20   35   11     -0.24      0.00
  -17   35   11      3.55      0.00
  -14   35   11      0.93      0.00
  -11   35   11      1.31      0.00
   -8   35   11      3.83      0.00
  -25   36   11      2.66      0.00
  -22   36   11     -0.22      0.00
  -19   36   11      2.39      0.00
  -16   36   11      2.57      0.00
  -13   36   11      0.15      0.00
  -10   36   11      2.93      0.00
  -21   37   11      0.14      0.00
  -18   37   11      2.81      0.00
  -15   37   11      1.27      0.00
   11   11   12      4.70      0.00
  -21   12   12      6.03      0.00
    9   12   12      0.00      0.00
   12   12   12      0.81      0.00
  -23   13   12      5.53      0.00
    7   13   12     -3.65      0.00
   10   13   12     -1.05      0.00
   13   13   12      0.82      0.00
  -25   14   12      2.63      0.00
  -22   14   12      3.43      0.00
    5   14   12      0.52      0.00
    8   14   12     -3.01      0.00
   11   14   12     -1.83      0.00
   14   14   12      2.75      0.00
  -27   15   12      1.54      0.00
  -24   15   12      4.90      0.00
  -21   15   12     -2.22      0.00
    6   15   12     -1.25      0.00
    9   15   12     -2.11      0.00
   12   15   12      2.04      0.00
   15   15   12      1.76      0.00
  -29   16   12      2.24      0.00
  -26   16   12      1.28      0.00
  -23   16   12      3.10      0.00
  -20   16   12     -0.71      0.00
    4   16   12      3.22      0.00
    7   16   12     -0.19      0.00
   10   16   12     -0.01      0.00
   13   16   12      2.48      0.00
  -31   17   12      1.81      0.00
  -28   17   12     -0.10      0.00
  -25   17   12      2.93      0.00
  -22   17   12      1.04      0.00
  -19   17   12      1.93      0.00
    2   17   12      2.48      0.00
    5   17   12      0.71      0.00
    8   17   12      0.48      0.00
   11   17   12      3.42      0.00
   14   17   12     -1.80      0.00
  -30   18   12      1.06      0.00
  -27   18   12     -0.46      0.00
  -24   18   12      2.89      0.00
  -21   18   12      2.37      0.00
  -18   18   12      0.86      0.00
    0   18   12      0.38      0.00
    3   18   12     -0.05      0.00
    6   18   12      0.47      0.00
    9   18   12      2.09      0.00
   12   18   12      0.18      0.00
  -29   19   12     -0.10      0.00
  -26   19   12      1.76      0.00
  -23   19   12      0.50      0.00
  -20   19   12      3.29      0.00
  -17   19   12      0.16      0.00
   -2   19   12      3.18      0.00
    1   19   12     -2.13      0.00
    4   19   12     -2.69      0.00
    7   19   12      1.25      0.00
   10   19   12      1.74      0.00
  -28   20   12      1.26      0.00
  -25   20   12     -0.09      0.00
  -22   20   12      1.41      0.00
  -19   20   12      1.68      0.00
  -16   20   12     -1.32      0.00
   -4   20   12      3.94      0.00
   -1   20   12     -1.31      0.00
    2   20   12     -3.59      0.00
    5   20   12     -0.31      0.00
    8   20   12      0.15      0.00
  -30   21   12      1.50      0.00
  -27   21   12      1.14      0.00
  -24   21   12     -1.92      0.00
  -21   21   12      2.29      0.00
  -18   21   12     -0.83      0.00
  -15   21   12     -1.62      0.00
  -12   21   12      4.13      0.00
   -9   21   12      1.37      0.00
   -6   21   12      0.56      0.00
   -3   21   12      1.42      0.00
    0   21   12     -1.72      0.00
    3   21   12     -1.79      0.00
    6   21   12     -0.47      0.00
    9   21   12     -0.71      0.00
  -29   22   12      1.16      0.00
  -26   22   12     -1.07      0.00
  -23   22   12      1.11      0.00
  -20   22   12     -1.49      0.00
  -17   22   12     -0.82      0.00
  -14   22   12      1.33      0.00
  -11   22   12      3.80      0.00
   -8   22   12      0.38      0.00
   -5   22   12     -0.01      0.00
   -2   22   12     -0.19      0.00
    1   22   12      0.60      0.00
    4   22   12     -0.25      0.00
    7   22   12     -2.10      0.00
  -28   23   12      0.23      0.00
  -25   23   12     -0.20      0.00
  -22   23   12      0.20      0.00
  -19   23   12     -2.14      0.00
  -16   23   12      0.72      0.00
  -13   23   12      1.95      0.00
  -10   23   12      1.17      0.00
   -7   23   12     -0.61      0.00
   -4   23   12      0.26      0.00
   -1   23   12      2.09      0.00
    2   23   12     -0.26      0.00
    5   23   12     -1.82      0.00
  -27   24   12      0.17      0.00
  -24   24   12      1.32      0.00
  -21   24   12     -2.47      0.00
  -18   24   12      0.79      0.00
  -15   24   12     -0.03      0.00
  -12   24   12     -0.95      0.00
   -9   24   12      0.74      0.00
   -6   24   12      0.90      0.00
   -3   24   12      1.35      0.00
    0   24   12     -0.18      0.00
    3   24   12     -2.00      0.00
  -26   25   12     -0.99      0.00
  -23   25   12      0.51      0.00
  -20   25   12     -0.37      0.00
  -17   25   12     -0.06      0.00
  -14   25   12     -2.35      0.00
  -11   25   12     -0.86      0.00
   -8   25   12      2.09      0.00
   -5   25   12      2.70      0.00
   -2   25   12     -0.79      0.00
    1   25   12     -4.85      0.00
  -28   26   12     -0.37      0.00
  -25   26   12     -0.77      0.00
  -22   26   12      0.53      0.00
  -19   26   12      0.34      0.00
  -16   26   12     -2.53      0.00
  -13   26   12     -1.98      0.00
  -10   26   12      2.45      0.00
   -7   26   12      3.02      0.00
   -4   26   12      0.41      0.00
   -1   26   12     -5.99      0.00
    2   26   12     -2.85      0.00
  -27   27   12     -2.72      0.00
  -24   27   12      0.48      0.00
  -21   27   12      0.98      0.00
  -18   27   12     -1.87      0.00
  -15   27   12     -1.68      0.00
  -12   27   12      2.37      0.00
   -9   27   12      2.29      0.00
   -6   27   12      1.07      0.00
   -3   27   12     -3.05      0.00
    0   27   12     -5.82      0.00
  -26   28   12     -1.16      0.00
  -23   28   12      0.28      0.00
  -20   28   12     -0.50      0.00
  -17   28   12     -1.20      0.00
  -14   28   12      1.95      0.00
  -11   28   12      3.45      0.00
   -8   28   12     -0.78      0.00
   -5   28   12     -1.09      0.00
   -2   28   12     -3.61      0.00
  -22   29   12     -0.63      0.00
  -19   29   12     -0.83      0.00
  -16   29   12      1.97      0.00
  -13   29   12      3.10      0.00
  -10   29   12     -0.29      0.00
   -7   29   12     -1.96      0.00
  -21   30   12     -1.41      0.00
  -18   30   12      1.91      0.00
  -15   30   12      1.97      0.00
  -12   30   12      0.49      0.00
   -9   30   12     -1.60      0.00
  -17   31   12      1.98      0.00
  -14   31   12     -0.21      0.00
    0    0    0      0.00      0.00
# SQUEEZE RESULTS (Version =  30715)
# Note: Data are Listed for all Voids in the P1 Unit Cell
# i.e. Centre of Gravity, Solvent Accessible Volume,
# Recovered number of Electrons in the Void and
# Details about the Squeezed Material
loop_
  _platon_squeeze_void_nr
  _platon_squeeze_void_average_x
  _platon_squeeze_void_average_y
  _platon_squeeze_void_average_z
  _platon_squeeze_void_volume
  _platon_squeeze_void_count_electrons
  _platon_squeeze_void_content
   1  0.000  0.000 -0.009      2114       204 ' '
   2  0.333  0.667  0.786      2110       203 ' '
   3  0.667  0.333  0.453      2110       204 ' '
# Missing Reflections Below sin(th)/lambda = 0.25
loop_
  _platon_missing_refln_index_h
  _platon_missing_refln_index_k
  _platon_missing_refln_index_l
  _platon_missing_refln_theta
   -1    2    0     1.003
   -2    4    0     2.005
   -4    8    0     4.013
   -5    3    1     3.301
   -4    4    1     3.145
   -8    6    1     4.689
   -6    8    1     4.689
   -8    8    2     6.300
  -11   11    2     7.679
    0    0    3     6.392
_platon_squeeze_void_probe_radius                  1.20
_platon_squeeze_details
)
TITL CuNbO2 in R-3 148 18
CELL   45.7240   45.7240   10.7780     90.00     90.00    120.00
SPGR R-3
# Solvent Accessible Volume =    6399.2
# Electrons Found in S.A.V. =     604.8
# Note: Atoms in Void as Cxxx and Qxxx all others
Q101 0.847 0.151 0.158 !       1.34 eA-3
Q102 0.913 0.458 0.344 !       1.04 eA-3
Q103 0.739 0.179 0.216 !       1.02 eA-3
Q104 0.738 0.559 0.222 !       1.01 eA-3
Q105 0.539 0.771 0.313 !       0.90 eA-3
Q106 0.277 0.188 0.253 !       0.87 eA-3
Q107 0.910 0.188 0.251 !       0.82 eA-3
C108 0.008 0.008 0.165 !       0.77 eA-3
C109 0.999 1.001 0.111 !       0.67 eA-3
Q110 0.911 0.160 0.173 !       0.60 eA-3
Q111 0.055 0.375 0.265 !       0.59 eA-3
C112 0.063 0.019 0.079 !       0.58 eA-3
Q113 0.938 0.485 0.450 !       0.58 eA-3
Q114 0.312 0.381 0.062 !       0.57 eA-3
Q115 0.261 0.804 0.081 !       0.57 eA-3
Q116 0.312 0.929 0.064 !       0.57 eA-3
C117 0.821 0.871 0.078 !       0.57 eA-3
C118 0.653 0.353 0.386 !       0.56 eA-3
C119 0.997 0.008-0.004 !       0.56 eA-3
Q120 0.253 0.164 0.172 !       0.56 eA-3
Q121 0.144 0.573 0.157 !       0.54 eA-3
Q122 0.196 0.738 0.080 !       0.53 eA-3
C123 0.687 0.327 0.471 !       0.53 eA-3
C124 0.008 0.031 0.031 !       0.52 eA-3
Q125 0.820 0.887 0.359 !       0.51 eA-3
)
;
_shelx_fab_checksum              6757
loop_
_space_group_symop_operation_xyz
'x, y, z'
'-y, x-y, z'
'-x+y, -x, z'
'x+2/3, y+1/3, z+1/3'
'-y+2/3, x-y+1/3, z+1/3'
'-x+y+2/3, -x+1/3, z+1/3'
'x+1/3, y+2/3, z+2/3'
'-y+1/3, x-y+2/3, z+2/3'
'-x+y+1/3, -x+2/3, z+2/3'
'-x, -y, -z'
'y, -x+y, -z'
'x-y, x, -z'
'-x+2/3, -y+1/3, -z+1/3'
'y+2/3, -x+y+1/3, -z+1/3'
'x-y+2/3, x+1/3, -z+1/3'
'-x+1/3, -y+2/3, -z+2/3'
'y+1/3, -x+y+2/3, -z+2/3'
'x-y+1/3, x+2/3, -z+2/3'
loop_
_atom_site_label
_atom_site_type_symbol
_atom_site_fract_x
_atom_site_fract_y
_atom_site_fract_z
_atom_site_U_iso_or_equiv
_atom_site_adp_type
_atom_site_occupancy
_atom_site_site_symmetry_order
_atom_site_calc_flag
_atom_site_refinement_flags_posn
_atom_site_refinement_flags_adp
_atom_site_refinement_flags_occupancy
_atom_site_disorder_assembly
_atom_site_disorder_group
Cu1 Cu 0.15472(2) 0.30946(2) 0.42079(4) 0.0482(4) Uani 1 1 d . . . . .
O1 O 0.11451(8) 0.28892(9) 0.3185(4) 0.0780(10) Uani 1 1 d . . . . .
O2 O 0.13462(8) 0.32928(9) 0.1706(3) 0.0740(10) Uani 1 1 d . . . . .
O3 O -0.11452(8) 0.17473(10) -0.3181(4) 0.0765(10) Uani 1 1 d . . . . .
O4 O -0.13464(8) 0.19458(9) -0.1707(3) 0.0744(10) Uani 1 1 d . . . . .
C1 C 0.01693(11) 0.25191(12) 0.0327(5) 0.0638(11) Uani 1 1 d . . . . .
C2 C 0.02208(13) 0.23912(14) 0.1397(5) 0.0799(15) Uani 1 1 d . . . . .
H2 H 0.0041 0.2187 0.1723 0.096 Uiso 0.5 1 calc R U P A 1
C3 C 0.05258(14) 0.25478(17) 0.2023(6) 0.098(2) Uani 1 1 d . . . . .
H3 H 0.0554 0.2454 0.2769 0.117 Uiso 1 1 calc R U . . .
C4 C 0.07861(11) 0.28396(12) 0.1549(5) 0.0658(12) Uani 1 1 d . . . . .
C5 C 0.07415(11) 0.29810(12) 0.0458(5) 0.0648(11) Uani 1 1 d . . . . .
H5 H 0.0919 0.3186 0.0130 0.078 Uiso 1 1 calc R U . . .
C6 C 0.04304(11) 0.28113(12) -0.0123(5) 0.0635(11) Uani 1 1 d . . . . .
H6 H 0.0398 0.2903 -0.0868 0.076 Uiso 0.5 1 calc R U P B 1
C7 C 0.11205(11) 0.30246(14) 0.2191(5) 0.0697(12) Uani 1 1 d . . . . .
C8 C -0.01692(11) 0.23490(12) -0.0309(5) 0.0638(11) Uani 1 1 d . . . . .
C9 C -0.02212(13) 0.21704(17) -0.1398(6) 0.0840(16) Uani 1 1 d . . . . .
H9 H -0.0040 0.2152 -0.1740 0.101 Uiso 0.5 1 calc R U P C 1
C10 C -0.05266(15) 0.20186(19) -0.2004(6) 0.094(2) Uani 1 1 d . . . . .
H10 H -0.0557 0.1891 -0.2736 0.113 Uiso 1 1 calc R U . . .
C11 C -0.07892(11) 0.20530(11) -0.1546(5) 0.0648(11) Uani 1 1 d . . . . .
C12 C -0.07417(11) 0.22396(12) -0.0461(5) 0.0636(11) Uani 1 1 d . . . . .
H12 H -0.0919 0.2268 -0.0135 0.076 Uiso 1 1 calc R U . . .
C13 C -0.04292(11) 0.23838(12) 0.0132(5) 0.0623(11) Uani 1 1 d . . . . .
H13 H -0.0397 0.2511 0.0868 0.075 Uiso 0.5 1 calc R U P D 1
C14 C -0.11183(12) 0.19050(12) -0.2196(5) 0.0676(12) Uani 1 1 d . . . . .
N1 N -0.0021(2) 0.2038(3) 0.1842(9) 0.081(2) Uani 0.5 1 d . . P E 2
O5 O -0.0275(2) 0.1890(3) 0.1367(13) 0.147(5) Uani 0.5 1 d . . P E 2
O6 O 0.0032(3) 0.1962(4) 0.2848(15) 0.179(6) Uani 0.5 1 d . U P E 2
N1' N 0.04145(19) 0.2943(2) -0.1341(8) 0.070(2) Uani 0.5 1 d . . P F 2
O5' O 0.01563(17) 0.2914(2) -0.1682(8) 0.086(2) Uani 0.5 1 d . . P F 2
O6' O 0.0680(2) 0.3075(2) -0.1948(7) 0.094(2) Uani 0.5 1 d . . P F 2
N2 N 0.0019(2) 0.2064(2) -0.1854(8) 0.079(2) Uani 0.5 1 d . . P G 2
O7 O 0.0275(2) 0.2165(3) -0.1361(12) 0.133(4) Uani 0.5 1 d . . P G 2
O8 O -0.0041(3) 0.1917(6) -0.2798(16) 0.239(11) Uani 0.5 1 d . . P G 2
N2' N -0.0417(2) 0.2525(2) 0.1347(8) 0.069(2) Uani 0.5 1 d . . P H 2
O7' O -0.01530(18) 0.2760(2) 0.1689(8) 0.089(2) Uani 0.5 1 d . . P H 2
O8' O -0.0674(2) 0.2395(2) 0.1965(7) 0.087(2) Uani 0.5 1 d . . P H 2
O9 O -0.03794(19) 0.26572(19) 0.3124(7) 0.084(2) Uani 0.5 1 d D . P I 3
N3 N 0.0052(4) 0.2843(3) 0.4513(17) 0.206(11) Uani 0.5 1 d D U P I 3
C15 C -0.0083(3) 0.2854(3) 0.3421(14) 0.164(9) Uani 0.5 1 d D U P I 3
C16 C 0.0153(4) 0.3193(3) 0.2777(16) 0.114(5) Uani 0.5 1 d D . P I 3
H16A H 0.0374 0.3302 0.3185 0.172 Uiso 0.5 1 calc R U P I 3
H16B H 0.0179 0.3152 0.1903 0.172 Uiso 0.5 1 calc R U P I 3
H16C H 0.0055 0.3340 0.2834 0.172 Uiso 0.5 1 calc R U P I 3
C17 C -0.0113(8) 0.2498(4) 0.5039(14) 0.38(3) Uani 0.5 1 d D . P I 3
H17A H -0.0007 0.2502 0.5833 0.577 Uiso 0.5 1 calc R U P I 3
H17B H -0.0353 0.2418 0.5172 0.577 Uiso 0.5 1 calc R U P I 3
H17C H -0.0088 0.2347 0.4462 0.577 Uiso 0.5 1 calc R U P I 3
C18 C 0.0410(4) 0.3058(7) 0.482(2) 0.30(3) Uani 0.5 1 d D . P I 3
H18A H 0.0452 0.3006 0.5661 0.446 Uiso 0.5 1 calc R U P I 3
H18B H 0.0548 0.3016 0.4228 0.446 Uiso 0.5 1 calc R U P I 3
H18C H 0.0471 0.3296 0.4774 0.446 Uiso 0.5 1 calc R U P I 3
O9' O 0.0382(2) 0.3037(2) 0.6864(8) 0.085(2) Uani 0.5 1 d D . P J 4
N3' N -0.0083(4) 0.2720(5) 0.5645(13) 0.170(8) Uani 0.5 1 d D U P J 4
C15' C 0.0087(4) 0.2940(4) 0.6537(15) 0.174(10) Uani 0.5 1 d D U P J 4
C16' C -0.0171(4) 0.3020(4) 0.7211(14) 0.115(5) Uani 0.5 1 d D . P J 4
H16D H -0.0386 0.2913 0.6759 0.172 Uiso 0.5 1 calc R U P J 4
H16E H -0.0209 0.2932 0.8060 0.172 Uiso 0.5 1 calc R U P J 4
H16F H -0.0079 0.3265 0.7233 0.172 Uiso 0.5 1 calc R U P J 4
C18' C -0.0412(4) 0.2645(5) 0.5178(18) 0.165(10) Uani 0.5 1 d D . P J 4
H18D H -0.0485 0.2474 0.4522 0.248 Uiso 0.5 1 calc R U P J 4
H18E H -0.0577 0.2560 0.5857 0.248 Uiso 0.5 1 calc R U P J 4
H18F H -0.0396 0.2852 0.4841 0.248 Uiso 0.5 1 calc R U P J 4
C17' C 0.0130(9) 0.2684(6) 0.467(3) 0.40(5) Uani 0.5 1 d D . P J 4
H17D H -0.0017 0.2517 0.4054 0.607 Uiso 0.5 1 calc R U P J 4
H17E H 0.0269 0.2902 0.4259 0.607 Uiso 0.5 1 calc R U P J 4
H17F H 0.0276 0.2610 0.5053 0.607 Uiso 0.5 1 calc R U P J 4
O10 O 0.13537(13) 0.27023(14) 0.5528(5) 0.1115(17) Uani 1 1 d D . . . .
N4AB N 0.1068(3) 0.2139(2) 0.6116(12) 0.095(3) Uani 0.5 1 d D . P . .
C19A C 0.1096(3) 0.2440(3) 0.583(2) 0.079(6) Uani 0.25 1 d D . P K 1
C20A C 0.0751(8) 0.2423(13) 0.599(8) 0.25(3) Uani 0.25 1 d D U P K 1
H20A H 0.0580 0.2193 0.6228 0.370 Uiso 0.25 1 calc R U P K 1
H20B H 0.0769 0.2582 0.6633 0.370 Uiso 0.25 1 calc R U P K 1
H20C H 0.0686 0.2482 0.5201 0.370 Uiso 0.25 1 calc R U P K 1
C21A C 0.1302(7) 0.2035(7) 0.560(3) 0.25(3) Uani 0.25 1 d D . P K 1
H21A H 0.1240 0.1810 0.5918 0.371 Uiso 0.25 1 calc R U P K 1
H21B H 0.1287 0.2028 0.4696 0.371 Uiso 0.25 1 calc R U P K 1
H21C H 0.1533 0.2197 0.5856 0.371 Uiso 0.25 1 calc R U P K 1
C22A C 0.0771(6) 0.1871(6) 0.677(3) 0.128(8) Uani 0.25 1 d D . P K 1
H22A H 0.0800 0.1674 0.6888 0.192 Uiso 0.25 1 calc R U P K 1
H22B H 0.0748 0.1955 0.7581 0.192 Uiso 0.25 1 calc R U P K 1
H22C H 0.0567 0.1806 0.6278 0.192 Uiso 0.25 1 calc R U P K 1
C19B C 0.1336(4) 0.2439(3) 0.584(2) 0.088(7) Uani 0.25 1 d D . P K 2
C20B C 0.1706(4) 0.2546(8) 0.612(3) 0.092(8) Uani 0.25 1 d D U P K 2
H20D H 0.1721 0.2349 0.6390 0.138 Uiso 0.25 1 calc R U P K 2
H20E H 0.1843 0.2642 0.5375 0.138 Uiso 0.25 1 calc R U P K 2
H20F H 0.1791 0.2716 0.6786 0.138 Uiso 0.25 1 calc R U P K 2
C21B C 0.0723(7) 0.2012(7) 0.559(3) 0.35(5) Uani 0.25 1 d D . P K 2
H21D H 0.0569 0.1787 0.5928 0.521 Uiso 0.25 1 calc R U P K 2
H21E H 0.0642 0.2167 0.5814 0.521 Uiso 0.25 1 calc R U P K 2
H21F H 0.0732 0.1998 0.4686 0.521 Uiso 0.25 1 calc R U P K 2
C22B C 0.1100(7) 0.1867(7) 0.681(4) 0.127(8) Uani 0.25 1 d D . P K 2
H22D H 0.0875 0.1668 0.6920 0.190 Uiso 0.25 1 calc R U P K 2
H22E H 0.1243 0.1804 0.6340 0.190 Uiso 0.25 1 calc R U P K 2
H22F H 0.1201 0.1953 0.7629 0.190 Uiso 0.25 1 calc R U P K 2
N4CD N 0.1319(5) 0.2645(8) 0.7711(11) 0.246(15) Uani 0.5 1 d D . P . .
C19C C 0.1243(5) 0.2684(7) 0.6566(17) 0.113(12) Uani 0.25 1 d D . P K 3
C20C C 0.0884(5) 0.2621(8) 0.631(2) 0.091(7) Uani 0.25 1 d D U P K 3
H20G H 0.0769 0.2602 0.7098 0.137 Uiso 0.25 1 calc R U P K 3
H20H H 0.0898 0.2810 0.5828 0.137 Uiso 0.25 1 calc R U P K 3
H20I H 0.0756 0.2411 0.5837 0.137 Uiso 0.25 1 calc R U P K 3
C21C C 0.1672(6) 0.2770(7) 0.811(3) 0.25(3) Uani 0.25 1 d D . P K 3
H21G H 0.1675 0.2717 0.8988 0.371 Uiso 0.25 1 calc R U P K 3
H21H H 0.1771 0.2662 0.7612 0.371 Uiso 0.25 1 calc R U P K 3
H21I H 0.1804 0.3015 0.7992 0.371 Uiso 0.25 1 calc R U P K 3
C22C C 0.1071(7) 0.2530(8) 0.874(3) 0.128(8) Uani 0.25 1 d D . P K 3
H22G H 0.1179 0.2518 0.9504 0.192 Uiso 0.25 1 calc R U P K 3
H22H H 0.0990 0.2690 0.8843 0.192 Uiso 0.25 1 calc R U P K 3
H22I H 0.0881 0.2306 0.8539 0.192 Uiso 0.25 1 calc R U P K 3
C19D C 0.1466(7) 0.2692(7) 0.661(2) 0.099(9) Uani 0.25 1 d D . P K 4
C20D C 0.1778(12) 0.2663(19) 0.629(6) 0.21(3) Uani 0.25 1 d D U P K 4
H20J H 0.1888 0.2653 0.7051 0.321 Uiso 0.25 1 calc R U P K 4
H20K H 0.1707 0.2457 0.5801 0.321 Uiso 0.25 1 calc R U P K 4
H20L H 0.1936 0.2860 0.5798 0.321 Uiso 0.25 1 calc R U P K 4
C21D C 0.1072(7) 0.2756(7) 0.802(3) 0.35(5) Uani 0.25 1 d D . P K 4
H21J H 0.0996 0.2695 0.8879 0.521 Uiso 0.25 1 calc R U P K 4
H21K H 0.1180 0.3002 0.7919 0.521 Uiso 0.25 1 calc R U P K 4
H21L H 0.0877 0.2645 0.7461 0.521 Uiso 0.25 1 calc R U P K 4
C22D C 0.1451(7) 0.2553(8) 0.886(3) 0.127(8) Uani 0.25 1 d D . P K 4
H22J H 0.1307 0.2529 0.9573 0.190 Uiso 0.25 1 calc R U P K 4
H22K H 0.1446 0.2339 0.8717 0.190 Uiso 0.25 1 calc R U P K 4
H22L H 0.1683 0.2731 0.9028 0.190 Uiso 0.25 1 calc R U P K 4
loop_
_atom_site_aniso_label
_atom_site_aniso_U_11
_atom_site_aniso_U_22
_atom_site_aniso_U_33
_atom_site_aniso_U_23
_atom_site_aniso_U_13
_atom_site_aniso_U_12
Cu1 0.0378(4) 0.0600(4) 0.0542(5) -0.00654(19) -0.00319(17) 0.0299(3)
O1 0.0523(17) 0.078(2) 0.089(2) -0.0001(18) -0.0286(16) 0.0216(16)
O2 0.0478(16) 0.070(2) 0.086(2) -0.0015(17) -0.0241(16) 0.0158(15)
O3 0.0537(17) 0.088(2) 0.084(2) -0.0291(19) -0.0285(16) 0.0326(17)
O4 0.0491(16) 0.087(2) 0.084(2) -0.0253(18) -0.0258(16) 0.0313(16)
C1 0.053(2) 0.068(3) 0.069(3) -0.008(2) -0.011(2) 0.029(2)
C2 0.056(3) 0.076(3) 0.082(3) -0.002(3) -0.020(2) 0.013(2)
C3 0.065(3) 0.101(4) 0.083(4) 0.021(3) -0.028(3) 0.009(3)
C4 0.049(2) 0.069(3) 0.074(3) 0.003(2) -0.017(2) 0.025(2)
C5 0.045(2) 0.066(3) 0.072(3) 0.001(2) -0.0057(19) 0.019(2)
C6 0.050(2) 0.069(3) 0.067(3) 0.003(2) -0.0141(19) 0.026(2)
C7 0.050(2) 0.083(3) 0.076(3) 0.003(3) -0.012(2) 0.034(2)
C8 0.051(2) 0.063(3) 0.071(3) -0.008(2) -0.013(2) 0.023(2)
C9 0.059(3) 0.115(4) 0.084(3) -0.029(3) -0.025(3) 0.048(3)
C10 0.068(3) 0.132(5) 0.086(4) -0.046(4) -0.031(3) 0.053(4)
C11 0.052(2) 0.062(2) 0.074(3) -0.017(2) -0.017(2) 0.023(2)
C12 0.042(2) 0.071(3) 0.071(3) -0.008(2) -0.0054(19) 0.0230(19)
C13 0.050(2) 0.063(3) 0.067(3) -0.019(2) -0.0160(19) 0.0227(19)
C14 0.053(2) 0.058(2) 0.080(3) -0.015(2) -0.010(2) 0.019(2)
N1 0.063(5) 0.097(6) 0.076(5) 0.008(5) -0.030(4) 0.035(5)
O5 0.073(5) 0.121(7) 0.169(10) 0.073(8) -0.031(6) -0.011(5)
O6 0.102(7) 0.150(9) 0.172(11) 0.049(8) -0.051(7) -0.022(6)
N1' 0.047(4) 0.071(5) 0.069(5) 0.002(4) 0.001(4) 0.012(4)
O5' 0.059(4) 0.090(5) 0.092(5) 0.011(4) -0.021(3) 0.024(4)
O6' 0.088(5) 0.098(5) 0.061(4) -0.006(4) -0.003(4) 0.022(4)
N2 0.061(5) 0.089(6) 0.074(5) -0.041(5) -0.030(4) 0.029(4)
O7 0.065(5) 0.192(11) 0.156(9) -0.079(9) -0.017(6) 0.074(6)
O8 0.112(8) 0.44(3) 0.230(15) -0.218(19) -0.092(10) 0.191(14)
N2' 0.056(4) 0.085(5) 0.069(5) -0.001(4) -0.007(4) 0.038(4)
O7' 0.063(4) 0.099(5) 0.099(5) -0.033(4) -0.023(4) 0.036(4)
O8' 0.079(5) 0.114(6) 0.066(4) 0.007(4) 0.002(4) 0.047(5)
O9 0.088(5) 0.085(5) 0.077(4) -0.003(4) 0.002(4) 0.043(4)
N3 0.186(15) 0.089(9) 0.35(3) -0.114(14) -0.154(18) 0.072(10)
C15 0.158(14) 0.157(15) 0.23(2) -0.113(15) -0.115(15) 0.120(13)
C16 0.101(9) 0.084(8) 0.138(13) 0.001(8) 0.037(9) 0.032(7)
C17 1.07(11) 0.34(4) 0.047(7) 0.005(14) -0.01(2) 0.57(6)
C18 0.19(2) 0.48(5) 0.33(4) -0.34(4) -0.20(3) 0.25(3)
O9' 0.079(5) 0.096(5) 0.081(5) 0.003(4) 0.000(4) 0.046(4)
N3' 0.152(13) 0.209(19) 0.128(13) 0.069(13) -0.034(10) 0.074(13)
C15' 0.21(2) 0.120(13) 0.137(15) 0.059(12) -0.049(15) 0.044(14)
C16' 0.109(10) 0.158(14) 0.116(10) 0.041(10) 0.039(8) 0.097(10)
C18' 0.119(13) 0.162(16) 0.121(13) 0.049(12) -0.046(11) 0.001(12)
C17' 0.73(10) 0.095(14) 0.26(4) 0.013(18) 0.35(6) 0.11(3)
O10 0.101(3) 0.113(3) 0.133(4) 0.067(3) 0.037(3) 0.062(3)
N4AB 0.083(6) 0.070(6) 0.125(9) 0.016(6) 0.012(6) 0.033(5)
C19A 0.113(18) 0.073(13) 0.079(13) -0.014(11) -0.007(13) 0.068(13)
C20A 0.25(4) 0.25(4) 0.25(4) 0.01(2) -0.01(2) 0.14(2)
C21A 0.46(7) 0.087(16) 0.21(4) -0.06(2) -0.20(4) 0.14(3)
C22A 0.122(16) 0.117(16) 0.19(3) -0.014(16) 0.002(17) 0.092(15)
C19B 0.056(11) 0.085(15) 0.093(16) -0.014(13) -0.027(11) 0.014(11)
C20B 0.065(10) 0.115(15) 0.105(14) 0.037(12) -0.013(10) 0.051(11)
C21B 0.36(6) 0.079(15) 0.35(6) -0.08(2) 0.30(5) -0.08(2)
C22B 0.064(10) 0.114(16) 0.17(2) 0.009(16) -0.013(12) 0.020(10)
N4CD 0.26(2) 0.54(5) 0.057(7) -0.064(15) -0.035(11) 0.28(3)
C19C 0.19(4) 0.081(17) 0.083(18) 0.036(15) 0.06(2) 0.07(2)
C20C 0.065(10) 0.115(15) 0.091(13) 0.022(11) 0.045(10) 0.042(10)
C21C 0.46(7) 0.087(16) 0.21(4) -0.06(2) -0.20(4) 0.14(3)
C22C 0.122(16) 0.117(16) 0.19(3) -0.014(16) 0.002(17) 0.092(15)
C19D 0.11(2) 0.081(16) 0.11(2) 0.012(15) -0.040(17) 0.048(15)
C20D 0.21(4) 0.23(4) 0.20(4) 0.002(19) -0.004(19) 0.10(2)
C21D 0.36(6) 0.079(15) 0.35(6) -0.08(2) 0.30(5) -0.08(2)
C22D 0.064(10) 0.114(16) 0.17(2) 0.009(16) -0.013(12) 0.020(10)
loop_
_atom_type_symbol
_atom_type_description
_atom_type_scat_dispersion_real
_atom_type_scat_dispersion_imag
_atom_type_scat_source
C C 0.0050 0.0020 'International Tables Vol C Tables 4.2.6.8 and 6.1.1.4'
H H 0.0000 0.0000 'International Tables Vol C Tables 4.2.6.8 and 6.1.1.4'
N N 0.0090 0.0040 'International Tables Vol C Tables 4.2.6.8 and 6.1.1.4'
O O 0.0150 0.0080 'International Tables Vol C Tables 4.2.6.8 and 6.1.1.4'
Cu Cu 0.2830 1.5900 'International Tables Vol C Tables 4.2.6.8 and 6.1.1.4'
loop_
_geom_angle_atom_site_label_1
_geom_angle_atom_site_label_2
_geom_angle_atom_site_label_3
_geom_angle
_geom_angle_site_symmetry_1
_geom_angle_site_symmetry_3
O3 Cu1 O1 90.22(18) 11 .
O3 Cu1 O4 167.36(16) 11 8
O1 Cu1 O4 88.78(17) . 8
O3 Cu1 O2 88.34(17) 11 16
O1 Cu1 O2 167.78(16) . 16
O4 Cu1 O2 89.97(18) 8 16
O3 Cu1 O10 94.41(19) 11 .
O1 Cu1 O10 94.5(2) . .
O4 Cu1 O10 98.23(19) 8 .
O2 Cu1 O10 97.70(19) 16 .
O3 Cu1 Cu1 83.63(11) 11 16
O1 Cu1 Cu1 84.03(12) . 16
O4 Cu1 Cu1 83.74(11) 8 16
O2 Cu1 Cu1 83.76(11) 16 16
O10 Cu1 Cu1 177.54(18) . 16
C7 O1 Cu1 122.5(3) . .
C7 O2 Cu1 123.0(3) . 16
C14 O3 Cu1 123.5(3) . 12
C14 O4 Cu1 123.1(3) . 6_454
C6 C1 C2 117.9(4) . .
C6 C1 C8 121.0(4) . .
C2 C1 C8 121.1(4) . .
C1 C2 C3 122.3(5) . .
C1 C2 N1 122.4(5) . .
C3 C2 N1 114.1(5) . .
C4 C3 C2 118.9(5) . .
C3 C4 C5 120.4(4) . .
C3 C4 C7 121.6(4) . .
C5 C4 C7 118.0(4) . .
C6 C5 C4 117.8(4) . .
C1 C6 C5 122.7(4) . .
C1 C6 N1' 121.7(5) . .
C5 C6 N1' 115.1(5) . .
O2 C7 O1 126.7(4) . .
O2 C7 C4 117.9(4) . .
O1 C7 C4 115.4(4) . .
C13 C8 C9 117.6(4) . .
C13 C8 C1 120.8(4) . .
C9 C8 C1 121.4(4) . .
C10 C9 C8 122.3(5) . .
C10 C9 N2 114.0(5) . .
C8 C9 N2 122.4(5) . .
C11 C10 C9 119.6(5) . .
C10 C11 C12 119.4(4) . .
C10 C11 C14 121.5(4) . .
C12 C11 C14 119.1(4) . .
C13 C12 C11 118.8(4) . .
C8 C13 C12 122.2(4) . .
C8 C13 N2' 121.7(5) . .
C12 C13 N2' 115.3(5) . .
O4 C14 O3 126.0(4) . .
O4 C14 C11 117.4(4) . .
O3 C14 C11 116.6(4) . .
O5 N1 O6 122.0(11) . .
O5 N1 C2 118.7(8) . .
O6 N1 C2 116.9(9) . .
O5' N1' O6' 124.9(9) . .
O5' N1' C6 119.2(7) . .
O6' N1' C6 115.9(8) . .
O7 N2 O8 122.0(10) . .
O7 N2 C9 119.0(8) . .
O8 N2 C9 118.2(8) . .
O7' N2' O8' 124.0(9) . .
O7' N2' C13 118.2(8) . .
O8' N2' C13 117.7(8) . .
C15 N3 C18 123.5(13) . .
C15 N3 C17 112.3(10) . .
C18 N3 C17 115.7(12) . .
O9 C15 N3 123.8(12) . .
O9 C15 C16 125.2(11) . .
N3 C15 C16 109.3(11) . .
C15' N3' C18' 124.7(16) . .
C15' N3' C17' 115.4(16) . .
C18' N3' C17' 112.6(18) . .
O9' C15' N3' 126.4(14) . .
O9' C15' C16' 126.3(14) . .
N3' C15' C16' 106.9(13) . .
C19C O10 Cu1 131.6(13) . .
C19B O10 Cu1 145.5(13) . .
C19A O10 Cu1 142.9(10) . .
C19D O10 Cu1 129.7(13) . .
C19A N4AB C22A 122.3(12) . .
C19A N4AB C21A 121.7(13) . .
C22A N4AB C21A 115.1(12) . .
C19B N4AB C21B 124.4(14) . .
C19B N4AB C22B 122.2(13) . .
C21B N4AB C22B 112.5(13) . .
O10 C19A N4AB 127.6(12) . .
O10 C19A C20A 122.1(19) . .
N4AB C19A C20A 110.2(18) . .
O10 C19B N4AB 130.5(14) . .
O10 C19B C20B 102.8(13) . .
N4AB C19B C20B 125.7(14) . .
C19C N4CD C22C 122.7(16) . .
C19C N4CD C21C 121.9(18) . .
C22C N4CD C21C 114.5(14) . .
C19D N4CD C21D 123.5(19) . .
C19D N4CD C22D 122.3(18) . .
C21D N4CD C22D 112.6(16) . .
O10 C19C N4CD 138.0(17) . .
O10 C19C C20C 102.4(13) . .
N4CD C19C C20C 118.0(17) . .
O10 C19D N4CD 130(2) . .
O10 C19D C20D 101(3) . .
N4CD C19D C20D 127(3) . .
loop_
_geom_bond_atom_site_label_1
_geom_bond_atom_site_label_2
_geom_bond_distance
_geom_bond_site_symmetry_2
Cu1 O3 1.939(3) 11
Cu1 O1 1.936(3) .
Cu1 O4 1.939(3) 8
Cu1 O2 1.941(3) 16
Cu1 O10 2.106(4) .
Cu1 Cu1 2.6701(10) 16
O1 C7 1.270(6) .
O2 C7 1.255(6) .
O2 Cu1 1.941(3) 16
O3 C14 1.255(6) .
O3 Cu1 1.939(3) 12
O4 C14 1.263(6) .
O4 Cu1 1.939(3) 6_454
C1 C6 1.361(7) .
C1 C2 1.365(8) .
C1 C8 1.506(6) .
C2 C3 1.383(7) .
C2 N1 1.508(11) .
C3 C4 1.367(8) .
C4 C5 1.405(7) .
C4 C7 1.497(6) .
C5 C6 1.383(6) .
C6 N1' 1.460(10) .
C8 C13 1.361(7) .
C8 C9 1.381(7) .
C9 C10 1.375(7) .
C9 N2 1.489(11) .
C10 C11 1.378(8) .
C11 C12 1.399(7) .
C11 C14 1.482(6) .
C12 C13 1.394(6) .
C13 N2' 1.449(10) .
N1 O5 1.134(12) .
N1 O6 1.200(15) .
N1' O5' 1.179(10) .
N1' O6' 1.239(11) .
N2 O7 1.150(12) .
N2 O8 1.174(14) .
N2' O7' 1.205(11) .
N2' O8' 1.217(11) .
O9 C15 1.237(8) .
N3 C15 1.342(9) .
N3 C18 1.467(9) .
N3 C17 1.476(9) .
C15 C16 1.539(8) .
O9' C15' 1.244(13) .
N3' C15' 1.327(16) .
N3' C18' 1.459(15) .
N3' C17' 1.494(17) .
C15' C16' 1.575(14) .
O10 C19C 1.21(2) .
O10 C19B 1.215(10) .
O10 C19A 1.232(8) .
O10 C19D 1.29(2) .
N4AB C19B 1.338(17) .
N4AB C19A 1.351(13) .
N4AB C22A 1.476(16) .
N4AB C21A 1.479(16) .
N4AB C21B 1.49(3) .
N4AB C22B 1.52(3) .
C19A C20A 1.550(9) .
C19B C20B 1.538(9) .
N4CD C19D 1.32(2) .
N4CD C19C 1.319(16) .
N4CD C22C 1.477(17) .
N4CD C21C 1.481(17) .
N4CD C21D 1.49(3) .
N4CD C22D 1.53(3) .
C19C C20C 1.544(9) .
C19D C20D 1.539(9) .
