#------------------------------------------------------------------------------
#$Date: 2017-08-10 04:18:16 +0300 (Thu, 10 Aug 2017) $
#$Revision: 199688 $
#$URL: file:///home/coder/svn-repositories/cod/cif/7/12/05/7120533.cif $
#------------------------------------------------------------------------------
#
# This file is available in the Crystallography Open Database (COD),
# http://www.crystallography.net/
#
# All data on this site have been placed in the public domain by the
# contributors.
#
data_7120533
loop_
_publ_author_name
'Zhang, Chen'
'Sikligar, Kanishka'
'Patil, Rahul S.'
'Barnes, Charles L.'
'Teat, Simon'
'Atwood, Jerry L.'
_publ_section_title
;
 Self-assembly of M7L2 Metal-Organic Nanocapsules Using Mixed Macrocycles
;
_journal_name_full               'Chem. Commun.'
_journal_paper_doi               10.1039/C7CC06099H
_journal_year                    2017
_chemical_formula_moiety         'C123 H109 N9 O28 Zn7'
_chemical_formula_sum            'C123 H109 N9 O28 Zn7'
_chemical_formula_weight         2618.78
_chemical_name_common            'P3R1C3, Zn, py, NO3'
_chemical_name_systematic
'C-propylpyrogallol[3]resorcin[1]arene, zinc, pyridine, nitrate'
_space_group_crystal_system      monoclinic
_space_group_IT_number           15
_space_group_name_Hall           '-C 2yc'
_space_group_name_H-M_alt        'C 1 2/c 1'
_symmetry_space_group_name_Hall  '-C 2yc'
_symmetry_space_group_name_H-M   'C 1 2/c 1'
_atom_sites_solution_hydrogens   geom
_audit_creation_method           SHELXL-2014/7
_audit_update_record
;
2017-07-27 deposited with the CCDC.
2017-08-09 downloaded from the CCDC.
;
_cell_angle_alpha                90
_cell_angle_beta                 90.588(2)
_cell_angle_gamma                90
_cell_formula_units_Z            4
_cell_length_a                   28.6437(12)
_cell_length_b                   25.8870(10)
_cell_length_c                   16.8049(6)
_cell_measurement_reflns_used    9907
_cell_measurement_temperature    100(2)
_cell_measurement_theta_max      65.17
_cell_measurement_theta_min      2.30
_cell_volume                     12460.2(8)
_computing_cell_refinement       'APEX2 (Bruker AXS, 2008)'
_computing_data_collection       'APEX2 (Bruker AXS, 2008)'
_computing_data_reduction        'APEX2 (Bruker AXS, 2008)'
_computing_molecular_graphics    'X-SEED, Barbour, 2001'
_computing_publication_material  'CIFTAB (Sheldrick, 2013)'
_computing_structure_refinement  'SHELXL-2013 (Sheldrick, 2013)'
_computing_structure_solution    'SHELXS-2013 (Sheldrick, 2013)'
_diffrn_ambient_temperature      100(2)
_diffrn_measured_fraction_theta_full 0.994
_diffrn_measured_fraction_theta_max 0.994
_diffrn_measurement_device_type  'Bruker APEXII CCD area detector'
_diffrn_measurement_method       'omega scans'
_diffrn_radiation_type           CuK\a
_diffrn_radiation_wavelength     1.54178
_diffrn_reflns_av_R_equivalents  0.0565
_diffrn_reflns_av_unetI/netI     0.0365
_diffrn_reflns_Laue_measured_fraction_full 0.994
_diffrn_reflns_Laue_measured_fraction_max 0.994
_diffrn_reflns_limit_h_max       33
_diffrn_reflns_limit_h_min       -33
_diffrn_reflns_limit_k_max       30
_diffrn_reflns_limit_k_min       -30
_diffrn_reflns_limit_l_max       19
_diffrn_reflns_limit_l_min       -19
_diffrn_reflns_number            87497
_diffrn_reflns_point_group_measured_fraction_full 0.994
_diffrn_reflns_point_group_measured_fraction_max 0.994
_diffrn_reflns_theta_full        65.615
_diffrn_reflns_theta_max         65.615
_diffrn_reflns_theta_min         2.300
_diffrn_standards_decay_%        0.0
_exptl_absorpt_coefficient_mu    2.094
_exptl_absorpt_correction_T_max  0.679
_exptl_absorpt_correction_T_min  0.523
_exptl_absorpt_correction_type   multi-scan
_exptl_absorpt_process_details
;
 Data were corrected for decay and absorption using the program SADABS 
 (Sheldrick, G. M. (2003). SADABS. Version 2.10. University of
 G\"ottingen, Germany).
;
_exptl_crystal_colour            yellow
_exptl_crystal_density_diffrn    1.396
_exptl_crystal_description       block
_exptl_crystal_F_000             5376
_exptl_crystal_size_max          0.400
_exptl_crystal_size_mid          0.400
_exptl_crystal_size_min          0.200
_refine_diff_density_max         2.006
_refine_diff_density_min         -1.466
_refine_diff_density_rms         0.178
_refine_ls_extinction_method     none
_refine_ls_goodness_of_fit_ref   2.074
_refine_ls_hydrogen_treatment    constr
_refine_ls_matrix_type           full
_refine_ls_number_parameters     720
_refine_ls_number_reflns         10689
_refine_ls_number_restraints     36
_refine_ls_restrained_S_all      2.078
_refine_ls_R_factor_all          0.1631
_refine_ls_R_factor_gt           0.1320
_refine_ls_shift/su_max          0.001
_refine_ls_shift/su_mean         0.000
_refine_ls_structure_factor_coef Fsqd
_refine_ls_weighting_details
'w=1/[\s^2^(Fo^2^)+(0.2000P)^2^] where P=(Fo^2^+2Fc^2^)/3'
_refine_ls_weighting_scheme      calc
_refine_ls_wR_factor_gt          0.4146
_refine_ls_wR_factor_ref         0.4675
_reflns_Friedel_coverage         0.000
_reflns_number_gt                7862
_reflns_number_total             10689
_reflns_threshold_expression     'I > 2\s(I)'
_cod_data_source_file            c7cc06099h2.cif
_cod_data_source_block           1_CCDC1
_cod_database_code               7120533
_shelx_shelxl_version_number     2014/7
_shelx_space_group_comment
;
The symmetry employed for this shelxl refinement is uniquely defined
by the following loop, which should always be used as a source of
symmetry information in preference to the above space-group names.
They are only intended as comments.
;
_shelx_estimated_absorpt_t_min   0.488
_shelx_estimated_absorpt_t_max   0.679
_shelx_res_file
;

    C:\Users\ZHANGCHE\Dropbox\RESEAR~1\X-ray\Zn7L2\work2\1.res created by SHELXL-2014/7

TITL try_a.res in C2/c
CELL 1.54178 28.6437 25.8870 16.8049 90.000 90.588 90.000
ZERR 4.0000 0.0012 0.0010 0.0006 0.000 0.002 0.000
LATT 7
SYMM -X, Y, 0.5-Z
SFAC C H N O ZN
UNIT 492 436 36 112 28
MERG 2
FMAP 2
GRID
PLAN 40
TEMP -173
SIZE 0.2 0.4 0.4
EQIV $1 1-X,Y,1/2-Z
BOND $H
CONF
DFIX 1.40 0.03 N2 C1S
DFIX 1.40 0.03 C1S C2S
DFIX 1.40 0.03 C2S C3S
DFIX 1.40 0.03 C3S C4S
DFIX 1.40 0.03 C4S C5S
DFIX 1.40 0.03 C5S N2
DANG 2.45 0.06 N2 C2S
DANG 2.45 0.06 C1S C3S
DANG 2.45 0.06 C2S C4S
DANG 2.45 0.06 C3S C5S
DANG 2.45 0.06 C4S N2
DANG 2.45 0.06 C5S C1S
FLAT N2 C1S C2S C3S C4S C5S
DFIX 1.40 0.03 C19S C20S
DFIX 1.40 0.03 C20S C21S
DFIX 1.40 0.03 C21S C22S
DANG 2.45 0.06 C19S C21S
DANG 2.45 0.06 C20S C22S
FLAT C19S C20S C21S C22S
DFIX 1.40 0.03 N5 C14S
DFIX 1.40 0.03 C14S C15S
DFIX 1.40 0.03 C15S C16S
DFIX 1.40 0.03 C16S C17S
DFIX 1.40 0.03 C17S C18S
DFIX 1.40 0.03 C18S N5
DANG 2.45 0.06 N5 C15S
DANG 2.45 0.06 C14S C16S
DANG 2.45 0.06 C15S C17S
DANG 2.45 0.06 C16S C18S
DANG 2.45 0.06 C17S N5
DANG 2.45 0.06 C18S C14S
FLAT N5 C14S C15S C16S C17S C18S
ABIN
L.S. 15
ACTA
WGHT    0.200000
FVAR       0.11138
ZN3   5    0.500000    0.534743    0.250000    10.50000    0.06637    0.06668 =
         0.05124    0.00000    0.01558    0.00000
ZN2   5    0.586398    0.590801    0.101693    11.00000    0.05663    0.08411 =
         0.04971    0.00875    0.01428    0.00961
ZN4   5    0.376766    0.723360    0.467266    11.00000    0.07462    0.09545 =
         0.04298   -0.01017    0.01750    0.00760
ZN1   5    0.396146    0.865059    0.432634    11.00000    0.15585    0.09214 =
         0.07961   -0.01262   -0.00729    0.02001
O9    4    0.478337    0.583009    0.452160    11.00000    0.05982    0.07448 =
         0.04622   -0.00399    0.01562   -0.00483
O7    4    0.561515    0.563614    0.206973    11.00000    0.06274    0.07898 =
         0.04653    0.00628    0.01736   -0.00215
O10   4    0.415916    0.659253    0.459962    11.00000    0.05341    0.08441 =
         0.05280   -0.01706    0.01476   -0.00661
O8    4    0.532992    0.547799    0.357323    11.00000    0.06591    0.06973 =
         0.05069    0.00277    0.01069    0.00440
O6    4    0.638465    0.618314    0.174556    11.00000    0.06576    0.10948 =
         0.04492    0.01445    0.01257    0.00589
O11   4    0.435226    0.750028    0.525712    11.00000    0.09395    0.07965 =
         0.04481   -0.01369    0.01645    0.00219
O5    4    0.663966    0.701944    0.131388    11.00000    0.07028    0.11113 =
         0.04707    0.01446    0.01751   -0.00521
O4    4    0.628468    0.791717    0.087235    11.00000    0.11386    0.10618 =
         0.04512    0.00154    0.00833   -0.01161
O1    4    0.456007    0.838703    0.485949    11.00000    0.12508    0.07904 =
         0.06165   -0.01175    0.01083   -0.00588
N5    3    0.329624    0.711018    0.554341    11.00000    0.06761    0.09886 =
         0.03829   -0.00733    0.01443    0.01746
N4    3    0.500000    0.455688    0.250000    10.50000    0.10747    0.06340 =
         0.04944    0.00000    0.03844    0.00000
O3    4    0.613653    0.870139    0.191957    11.00000    0.20248    0.07736 =
         0.05776    0.01266    0.02047   -0.03951
C24   1    0.493192    0.629080    0.482983    11.00000    0.06611    0.07332 =
         0.03422    0.00487    0.01354   -0.00737
C25   1    0.459801    0.668519    0.488595    11.00000    0.05745    0.08545 =
         0.03671   -0.00863    0.01381   -0.01445
C19   1    0.571715    0.578934    0.346879    11.00000    0.04632    0.06976 =
         0.06080    0.02524    0.01687    0.00571
C22   1    0.549344    0.687578    0.532517    11.00000    0.05902    0.09846 =
         0.03808    0.01077    0.00743   -0.01026
AFIX  43
H22   2    0.581046    0.694814    0.545399    11.00000   -1.20000
AFIX   0
C28   1    0.528871    0.782343    0.568395    11.00000    0.08564    0.08753 =
         0.05130   -0.00881    0.00812   -0.01839
AFIX  13
H28   2    0.500478    0.795245    0.596256    11.00000   -1.20000
AFIX   0
O2    4    0.556155    0.905601    0.290984    11.00000    0.30108    0.09020 =
         0.06463   -0.00066    0.05887   -0.03351
N3    3    0.630009    0.549889    0.028893    11.00000    0.05761    0.11611 =
         0.07198   -0.00368    0.01332    0.01439
C27   1    0.518140    0.727110    0.543023    11.00000    0.07622    0.09958 =
         0.03107   -0.00611    0.01163   -0.02357
C20   1    0.594685    0.602555    0.409026    11.00000    0.04660    0.08677 =
         0.04565    0.01582    0.00916    0.00256
C23   1    0.539724    0.638814    0.505465    11.00000    0.05691    0.08225 =
         0.03457    0.00762    0.01159   -0.00468
C26   1    0.470637    0.714922    0.520346    11.00000    0.07093    0.08632 =
         0.03210   -0.00162    0.01283   -0.00153
C18   1    0.586201    0.585469    0.267620    11.00000    0.05296    0.08940 =
         0.04840    0.01377    0.01187    0.02282
C16   1    0.650101    0.639353    0.311770    11.00000    0.04379    0.11102 =
         0.05084    0.02610    0.01038   -0.00122
C2    1    0.535565    0.818128    0.494170    11.00000    0.11473    0.08075 =
         0.05067   -0.02029    0.01231   -0.03097
C14   1    0.691091    0.677418    0.293342    11.00000    0.04827    0.15812 =
         0.05911    0.02136    0.01231   -0.01862
AFIX  13
H14   2    0.707406    0.663644    0.245486    11.00000   -1.20000
AFIX   0
C13   1    0.670809    0.730504    0.270089    11.00000    0.06363    0.11794 =
         0.04064    0.00868    0.01033   -0.03194
C21   1    0.577204    0.597542    0.493802    11.00000    0.05789    0.09101 =
         0.04943    0.01304    0.00789   -0.00401
AFIX  13
H21   2    0.561123    0.563341    0.497289    11.00000   -1.20000
AFIX   0
C12   1    0.657991    0.740276    0.187277    11.00000    0.06631    0.11359 =
         0.04619    0.00943    0.01135   -0.02548
C17   1    0.626416    0.614805    0.254498    11.00000    0.04546    0.10125 =
         0.05096    0.02388    0.01348    0.00540
C8    1    0.663590    0.770412    0.321743    11.00000    0.07884    0.15432 =
         0.04471    0.00189    0.00967   -0.04602
AFIX  43
H8    2    0.671413    0.765017    0.376184    11.00000   -1.20000
AFIX   0
C15   1    0.633957    0.633302    0.389955    11.00000    0.05838    0.10693 =
         0.03890    0.02026   -0.00474   -0.01174
AFIX  43
H15   2    0.650084    0.650586    0.431847    11.00000   -1.20000
AFIX   0
C10   1    0.634085    0.826856    0.219477    11.00000    0.11795    0.13382 =
         0.03589    0.00298    0.01811   -0.05789
C1    1    0.579606    0.823369    0.463381    11.00000    0.11571    0.08094 =
         0.04893   -0.00549    0.01272   -0.04284
AFIX  43
H1    2    0.605074    0.806309    0.488743    11.00000   -1.20000
AFIX   0
C6    1    0.588101    0.854461    0.392811    11.00000    0.14482    0.09546 =
         0.04835   -0.01788    0.03111   -0.04282
C9    1    0.645384    0.818933    0.299967    11.00000    0.11389    0.10909 =
         0.04163    0.00414    0.00978   -0.03738
C11   1    0.640737    0.785691    0.166400    11.00000    0.09462    0.11082 =
         0.04300    0.02025    0.01422   -0.03138
C9S   1    0.648486    0.510571   -0.094901    11.00000    0.11342    0.09870 =
         0.06398   -0.01596    0.02353   -0.03288
AFIX  43
H9S   2    0.636791    0.496604   -0.143433    11.00000   -1.20000
AFIX   0
C10S  1    0.617139    0.530345   -0.037570    11.00000    0.09660    0.08586 =
         0.07649   -0.00030    0.01874   -0.02217
AFIX  43
H10S  2    0.584653    0.528959   -0.049333    11.00000   -1.20000
AFIX   0
C38   1    0.568893    0.783572    0.630040    11.00000    0.10952    0.13355 =
         0.04294   -0.02578    0.01377   -0.04360
AFIX  23
H38A  2    0.595095    0.763164    0.608411    11.00000   -1.20000
H38B  2    0.579784    0.819753    0.634645    11.00000   -1.20000
AFIX   0
C5    1    0.550326    0.878924    0.359000    11.00000    0.20610    0.05633 =
         0.06105   -0.00739    0.00525   -0.00388
C35   1    0.614916    0.597271    0.555302    11.00000    0.06558    0.12301 =
         0.05036    0.01953    0.00597   -0.00665
AFIX  23
H35A  2    0.628053    0.632528    0.559958    11.00000   -1.20000
H35B  2    0.640242    0.574061    0.537606    11.00000   -1.20000
AFIX   0
O01C  4    0.362008    0.864479    0.547827    11.00000    0.14887    0.15035 =
         0.10867   -0.04252    0.00715    0.05502
C3    1    0.498784    0.841902    0.458707    11.00000    0.14468    0.06091 =
         0.05241   -0.01232   -0.00353    0.00118
C36   1    0.598596    0.579824    0.636678    11.00000    0.09938    0.13742 =
         0.04931    0.02289    0.01790    0.01163
AFIX  23
H36A  2    0.584525    0.545011    0.632025    11.00000   -1.20000
H36B  2    0.574169    0.603780    0.655627    11.00000   -1.20000
AFIX   0
C11S  1    0.478281    0.428531    0.191772    11.00000    0.12285    0.07558 =
         0.06337   -0.01789    0.04258   -0.03188
AFIX  43
H11S  2    0.462272    0.446714    0.150666    11.00000   -1.20000
AFIX   0
N2    3    0.410459    0.942606    0.443578    11.00000    0.20142    0.07585 =
         0.11446   -0.01436   -0.00768    0.03743
C4    1    0.505606    0.873779    0.388734    11.00000    0.14725    0.08666 =
         0.05555   -0.01585    0.03140   -0.01863
AFIX  43
H4    2    0.479949    0.890769    0.363823    11.00000   -1.20000
AFIX   0
C32   1    0.727415    0.681476    0.359657    11.00000    0.08206    0.17841 =
         0.05555    0.02055    0.00205   -0.04003
AFIX  23
H32A  2    0.739860    0.646614    0.371564    11.00000   -1.20000
H32B  2    0.712292    0.694641    0.408330    11.00000   -1.20000
AFIX   0
N1    3    0.323024    0.876029    0.525242    11.00000    0.18079    0.21772 =
         0.11001   -0.01336   -0.00572    0.08494
C7    1    0.635973    0.861615    0.359708    11.00000    0.14217    0.10425 =
         0.06660   -0.00015    0.02996   -0.05746
AFIX  13
H7    2    0.635794    0.894965    0.329676    11.00000   -1.20000
AFIX   0
C16S  1    0.262280    0.690553    0.668154    11.00000    0.11407    0.12398 =
         0.08540    0.00644    0.05372    0.01373
AFIX  43
H16S  2    0.239915    0.684804    0.708560    11.00000   -1.20000
AFIX   0
O01M  4    0.288147    0.878154    0.579826    11.00000    0.19985    0.33167 =
         0.16000   -0.05483    0.06814    0.08975
O01N  4    0.317266    0.894111    0.456407    11.00000    0.16383    0.19252 =
         0.11912   -0.01488    0.01018    0.06396
C12S  1    0.478616    0.374375    0.190077    11.00000    0.27197    0.11921 =
         0.08647   -0.03377    0.10833   -0.05127
AFIX  43
H12S  2    0.464087    0.355992    0.147625    11.00000   -1.20000
AFIX   0
C37   1    0.639032    0.578135    0.698438    11.00000    0.15804    0.31138 =
         0.05882    0.06162   -0.01427   -0.01995
AFIX  33
H37A  2    0.627016    0.566727    0.749924    11.00000   -1.50000
H37B  2    0.663017    0.553926    0.680447    11.00000   -1.50000
H37C  2    0.652664    0.612682    0.704044    11.00000   -1.50000
AFIX   0
C8S   1    0.692288    0.511555   -0.081277    11.00000    0.09700    0.15940 =
         0.17973   -0.07888    0.07629   -0.02914
AFIX  43
H8S   2    0.713444    0.495552   -0.116793    11.00000   -1.20000
AFIX   0
C21S  1    0.533037    0.703278    0.301236    11.00000    0.14349
C33   1    0.768278    0.717582    0.337760    11.00000    0.06633    0.33476 =
         0.08221    0.00755    0.01288   -0.05049
AFIX  23
H33A  2    0.786607    0.701123    0.295049    11.00000   -1.20000
H33B  2    0.755308    0.750235    0.316278    11.00000   -1.20000
AFIX   0
C13S  1    0.500000    0.349184    0.250000    10.50000    0.38126    0.12343 =
         0.12480    0.00000    0.17566    0.00000
AFIX  43
H13S  2    0.500000    0.312486    0.250000    10.50000   -1.20000
AFIX   0
C20S  1    0.548937    0.746337    0.274433    10.50000    0.06441
C6S   1    0.677146    0.554043    0.040610    11.00000    0.05988    0.28558 =
         0.25486   -0.19823   -0.01383    0.02376
AFIX  43
H6S   2    0.688561    0.569705    0.088087    11.00000   -1.20000
AFIX   0
C7S   1    0.708248    0.536365   -0.013849    11.00000    0.07835    0.35204 =
         0.22972   -0.20698    0.00032    0.04823
AFIX  43
H7S   2    0.740799    0.541143   -0.005313    11.00000   -1.20000
AFIX   0
C18S  1    0.302737    0.749016    0.581857    11.00000    0.13788    0.14496 =
         0.10722   -0.01278    0.04694    0.04595
AFIX  43
H18S  2    0.307644    0.783454    0.564295    11.00000   -1.20000
AFIX   0
C39   1    0.560395    0.766072    0.704301    11.00000    0.18318    0.23787 =
         0.05016    0.01205   -0.00764   -0.04969
AFIX  23
H39A  2    0.552842    0.728826    0.700592    11.00000   -1.20000
H39B  2    0.532232    0.783893    0.724126    11.00000   -1.20000
AFIX   0
C14S  1    0.324087    0.662616    0.582524    11.00000    0.09996    0.24380 =
         0.18358    0.05027    0.06982    0.07365
AFIX  43
H14S  2    0.343152    0.635185    0.564035    11.00000   -1.20000
AFIX   0
C5S   1    0.432550    0.959883    0.511355    11.00000    0.33184    0.11713 =
         0.11266   -0.01807   -0.06189   -0.03693
AFIX  43
H5S   2    0.442049    0.935373    0.550356    11.00000   -1.20000
AFIX   0
C3S   1    0.432756    1.048824    0.467341    11.00000    0.30739    0.12756 =
         0.11837   -0.03489    0.02516   -0.03187
AFIX  43
H3S   2    0.437898    1.084658    0.475917    11.00000   -1.20000
AFIX   0
C17S  1    0.269111    0.739025    0.633700    11.00000    0.14618    0.31374 =
         0.18811    0.07638    0.12283    0.13735
AFIX  43
H17S  2    0.248672    0.766308    0.648031    11.00000   -1.20000
AFIX   0
C15S  1    0.289035    0.653388    0.640663    11.00000    0.10453    0.20898 =
         0.24113    0.08113    0.06081    0.05170
AFIX  43
H15S  2    0.284881    0.619269    0.660167    11.00000   -1.20000
AFIX   0
C34   1    0.800196    0.729931    0.405501    11.00000    0.09846    0.33072 =
         0.10644    0.07437   -0.02605   -0.06428
AFIX  33
H34A  2    0.825097    0.752862    0.387180    11.00000   -1.50000
H34B  2    0.782590    0.747123    0.447606    11.00000   -1.50000
H34C  2    0.813932    0.697943    0.426347    11.00000   -1.50000
AFIX   0
C40   1    0.599943    0.772792    0.767331    11.00000    0.17864    0.41600 =
         0.09090    0.01920   -0.00854   -0.07846
AFIX  33
H40A  2    0.589713    0.758732    0.818413    11.00000   -1.50000
H40B  2    0.627882    0.754306    0.749871    11.00000   -1.50000
H40C  2    0.607195    0.809581    0.773493    11.00000   -1.50000
AFIX   0
C1S   1    0.403338    0.977596    0.384606    11.00000    0.53805    0.14826 =
         0.18028   -0.10995   -0.11624    0.13665
AFIX  43
H1S   2    0.389754    0.966778    0.335562    11.00000   -1.20000
AFIX   0
C30   1    0.713875    0.884610    0.394896    11.00000   10.25000
AFIX  23
H30A  2    0.708076    0.918306    0.368744    11.00000   -1.20000
H30B  2    0.727765    0.860443    0.356098    11.00000   -1.20000
AFIX   0
C29   1    0.675710    0.865746    0.425575    11.00000    0.14002    0.16890 =
         0.07182   -0.03343    0.02473   -0.08823
AFIX  23
H29A  2    0.665116    0.888390    0.469297    11.00000   -1.20000
H29B  2    0.682155    0.831087    0.448033    11.00000   -1.20000
AFIX   0
C4S   1    0.441498    1.011611    0.525001    11.00000    0.30372    0.13975 =
         0.32797    0.05369   -0.06164   -0.05459
AFIX  43
H4S   2    0.453951    1.021947    0.575137    11.00000   -1.20000
AFIX   0
C2S   1    0.415584    1.028669    0.395011    11.00000   10.25000
AFIX  43
H2S   2    0.412251    1.051462    0.351012    11.00000   -1.20000
AFIX   0
C22S  1    0.490229    0.680209    0.286377    11.00000    0.15613
C19S  1    0.524567    0.776732    0.220061    11.00000    0.21572
C31   1    0.747878    0.891110    0.476497    11.00000   10.25000
AFIX  33
H31A  2    0.778251    0.905248    0.461322    11.00000   -1.50000
H31B  2    0.732843    0.914597    0.514117    11.00000   -1.50000
H31C  2    0.752349    0.857272    0.501588    11.00000   -1.50000
AFIX   0
C41   1    0.518580    0.750380    0.308472    10.50000    0.07408
HKLF 4

REM  try_a.res in C2/c
REM R1 =  0.1320 for    7862 Fo > 4sig(Fo)  and  0.1631 for all   10689 data
REM    720 parameters refined using     36 restraints

END

WGHT      0.2000      0.0000

REM Highest difference peak  2.006,  deepest hole -1.466,  1-sigma level  0.178
Q1    1   0.5213  0.9257  0.2380  11.00000  0.05    2.01
Q2    1   0.4336  0.8624  0.4127  11.00000  0.05    1.79
Q3    1   0.5726  0.8334  0.6727  11.00000  0.05    1.34
Q4    1   0.2831  0.6990  0.5372  11.00000  0.05    1.30
Q5    1   0.3764  0.6881  0.4798  11.00000  0.05    1.29
Q6    1   0.2521  0.6872  0.5982  11.00000  0.05    1.24
Q7    1   0.3415  0.7143  0.6265  11.00000  0.05    1.20
Q8    1   0.5817  0.5566  0.0936  11.00000  0.05    1.17
Q9    1   0.3139  0.7007  0.6858  11.00000  0.05    1.16
Q10   1   0.3981  0.8300  0.4021  11.00000  0.05    1.13
Q11   1   0.5904  0.6205  0.0848  11.00000  0.05    1.13
Q12   1   0.5158  0.5417  0.3013  11.00000  0.05    1.12
Q13   1   0.5000  0.5674  0.2500  10.50000  0.05    1.12
Q14   1   0.5000  0.4998  0.2500  10.50000  0.05    1.05
Q15   1   0.6030  0.8330  0.7469  11.00000  0.05    1.02
Q16   1   0.5577  0.5800  0.0722  11.00000  0.05    0.91
Q17   1   0.3822  0.8593  0.3860  11.00000  0.05    0.88
Q18   1   0.5376  0.7098  0.2662  11.00000  0.05    0.87
Q19   1   0.6761  0.9119  0.4812  11.00000  0.05    0.84
Q20   1   0.4381  0.7604  0.5379  11.00000  0.05    0.82
Q21   1   0.6110  0.5981  0.1433  11.00000  0.05    0.75
Q22   1   0.5175  0.7282  0.3343  11.00000  0.05    0.72
Q23   1   0.6295  0.8314  0.2035  11.00000  0.05    0.70
Q24   1   0.4439  0.7870  0.5113  11.00000  0.05    0.69
Q25   1   0.7457  0.8364  0.3854  11.00000  0.05    0.68
Q26   1   0.4640  0.8913  0.3622  11.00000  0.05    0.67
Q27   1   0.6470  0.6529  0.1522  11.00000  0.05    0.67
Q28   1   0.3866  1.0306  0.4030  11.00000  0.05    0.64
Q29   1   0.7492  0.6207  0.3667  11.00000  0.05    0.63
Q30   1   0.5194  0.5679  0.3986  11.00000  0.05    0.63
Q31   1   0.5251  0.5473  0.2048  11.00000  0.05    0.61
Q32   1   0.5833  0.8650  0.4088  11.00000  0.05    0.57
Q33   1   0.6529  0.8269  0.3656  11.00000  0.05    0.56
Q34   1   0.6670  0.5391  0.0542  11.00000  0.05    0.55
Q35   1   0.5759  0.5949  0.3172  11.00000  0.05    0.55
Q36   1   0.2833  0.8832  0.6430  11.00000  0.05    0.54
Q37   1   0.6678  0.7920  0.3188  11.00000  0.05    0.54
Q38   1   0.5000  0.4313  0.2500  10.50000  0.05    0.54
Q39   1   0.3518  0.9062  0.5749  11.00000  0.05    0.54
Q40   1   0.6742  0.5336 -0.0463  11.00000  0.05    0.53
;
_shelx_res_checksum              87895
_shelx_fab_file
;
    0    0    2   -285.55      0.00
    0    0    4    114.80      0.00
    0    0    6    -23.42      0.00
    0    0    8      1.03      0.00
    0    0   10      1.32      0.00
    0    0   12     -4.93      0.00
    0    0   14      9.58      0.00
    0    0   16     -4.19      0.00
    0    0   18      3.01      0.00
    0    2    0    322.95      0.00
    0    2    1   -131.69      0.00
    0    2    2   -202.28      0.00
    0    2    3     55.76      0.00
    0    2    4     88.35      0.00
    0    2    5     -5.46      0.00
    0    2    6    -21.37      0.00
    0    2    7     -0.31      0.00
    0    2    8      1.69      0.00
    0    2    9     -4.64      0.00
    0    2   10      2.04      0.00
    0    2   11      5.13      0.00
    0    2   12     -3.06      0.00
    0    2   13      0.33      0.00
    0    2   14      5.30      0.00
    0    2   15     -2.26      0.00
    0    2   16     -2.35      0.00
    0    2   17     -0.46      0.00
    0    2   18      2.58      0.00
    0    2   19     -0.66      0.00
    0    4    0    124.39      0.00
    0    4    1   -100.55      0.00
    0    4    2    -72.10      0.00
    0    4    3     38.64      0.00
    0    4    4     46.07      0.00
    0    4    5      0.01      0.00
    0    4    6    -16.24      0.00
    0    4    7     -0.84      0.00
    0    4    8      1.88      0.00
    0    4    9     -5.63      0.00
    0    4   10      3.57      0.00
    0    4   11      7.08      0.00
    0    4   12     -1.08      0.00
    0    4   13     -3.38      0.00
    0    4   14      0.21      0.00
    0    4   15      0.27      0.00
    0    4   16     -0.43      0.00
    0    4   17     -1.38      0.00
    0    4   18      1.49      0.00
    0    4   19     -1.10      0.00
    0    6    0     45.60      0.00
    0    6    1    -16.29      0.00
    0    6    2    -26.41      0.00
    0    6    3      4.63      0.00
    0    6    4     27.46      0.00
    0    6    5      5.22      0.00
    0    6    6    -11.39      0.00
    0    6    7     -2.87      0.00
    0    6    8      1.94      0.00
    0    6    9     -2.70      0.00
    0    6   10      3.03      0.00
    0    6   11      4.50      0.00
    0    6   12     -0.25      0.00
    0    6   13     -4.79      0.00
    0    6   14      0.45      0.00
    0    6   15      1.80      0.00
    0    6   16     -0.92      0.00
    0    6   17     -1.48      0.00
    0    6   18      0.41      0.00
    0    6   19     -0.26      0.00
    0    8    0     32.48      0.00
    0    8    1      5.94      0.00
    0    8    2    -21.04      0.00
    0    8    3      3.82      0.00
    0    8    4     16.05      0.00
    0    8    5      0.64      0.00
    0    8    6     -6.57      0.00
    0    8    7     -2.85      0.00
    0    8    8      3.02      0.00
    0    8    9     -0.59      0.00
    0    8   10      0.87      0.00
    0    8   11      2.02      0.00
    0    8   12      1.19      0.00
    0    8   13     -2.83      0.00
    0    8   14      1.18      0.00
    0    8   15      0.12      0.00
    0    8   16     -0.88      0.00
    0    8   17     -0.88      0.00
    0    8   18      0.07      0.00
    0    8   19      1.00      0.00
    0   10    0     17.20      0.00
    0   10    1      5.52      0.00
    0   10    2     -9.58      0.00
    0   10    3      6.94      0.00
    0   10    4     -0.05      0.00
    0   10    5     -2.84      0.00
    0   10    6      0.70      0.00
    0   10    7     -0.89      0.00
    0   10    8      3.28      0.00
    0   10    9      0.16      0.00
    0   10   10      0.34      0.00
    0   10   11      0.16      0.00
    0   10   12      0.84      0.00
    0   10   13     -0.66      0.00
    0   10   14      0.96      0.00
    0   10   15     -0.83      0.00
    0   10   16      0.28      0.00
    0   10   17     -0.68      0.00
    0   10   18      0.01      0.00
    0   12    0     15.89      0.00
    0   12    1      2.59      0.00
    0   12    2     -9.13      0.00
    0   12    3      3.73      0.00
    0   12    4     -5.29      0.00
    0   12    5      1.10      0.00
    0   12    6      4.22      0.00
    0   12    7     -0.99      0.00
    0   12    8      4.32      0.00
    0   12    9      0.28      0.00
    0   12   10     -1.47      0.00
    0   12   11     -2.63      0.00
    0   12   12      1.09      0.00
    0   12   13      2.07      0.00
    0   12   14      0.40      0.00
    0   12   15     -0.82      0.00
    0   12   16      1.25      0.00
    0   12   17     -0.89      0.00
    0   12   18     -0.67      0.00
    0   14    0     10.38      0.00
    0   14    1    -13.76      0.00
    0   14    2     -6.95      0.00
    0   14    3      8.05      0.00
    0   14    4     -0.96      0.00
    0   14    5      2.20      0.00
    0   14    6      0.17      0.00
    0   14    7      0.48      0.00
    0   14    8      5.44      0.00
    0   14    9     -3.87      0.00
    0   14   10     -3.43      0.00
    0   14   11     -0.50      0.00
    0   14   12      3.48      0.00
    0   14   13      1.78      0.00
    0   14   14     -0.77      0.00
    0   14   15     -0.10      0.00
    0   14   16      1.35      0.00
    0   14   17     -1.54      0.00
    0   16    0     -7.31      0.00
    0   16    1    -15.39      0.00
    0   16    2      5.83      0.00
    0   16    3      8.59      0.00
    0   16    4      0.52      0.00
    0   16    5     -2.60      0.00
    0   16    6     -2.46      0.00
    0   16    7      4.54      0.00
    0   16    8      1.64      0.00
    0   16    9     -7.51      0.00
    0   16   10      0.93      0.00
    0   16   11      4.32      0.00
    0   16   12      1.29      0.00
    0   16   13     -1.41      0.00
    0   16   14      0.99      0.00
    0   16   15      0.41      0.00
    0   16   16     -0.94      0.00
    0   18    0     -6.23      0.00
    0   18    1     -2.22      0.00
    0   18    2      6.36      0.00
    0   18    3      1.29      0.00
    0   18    4      1.12      0.00
    0   18    5     -5.18      0.00
    0   18    6      0.55      0.00
    0   18    7      4.75      0.00
    0   18    8     -2.58      0.00
    0   18    9     -4.09      0.00
    0   18   10      5.06      0.00
    0   18   11      2.79      0.00
    0   18   12     -2.67      0.00
    0   18   13     -0.44      0.00
    0   18   14      3.32      0.00
    0   18   15     -2.30      0.00
    0   20    0      5.25      0.00
    0   20    1     -1.63      0.00
    0   20    2     -1.52      0.00
    0   20    3     -0.35      0.00
    0   20    4      3.09      0.00
    0   20    5     -3.73      0.00
    0   20    6      3.30      0.00
    0   20    7      2.12      0.00
    0   20    8     -1.96      0.00
    0   20    9     -1.31      0.00
    0   20   10      2.57      0.00
    0   20   11     -0.03      0.00
    0   20   12     -0.60      0.00
    0   20   13      1.55      0.00
    0   20   14      0.05      0.00
    0   22    0      2.87      0.00
    0   22    1     -5.10      0.00
    0   22    2      0.45      0.00
    0   22    3      1.49      0.00
    0   22    4      2.12      0.00
    0   22    5     -1.81      0.00
    0   22    6      3.83      0.00
    0   22    7      1.23      0.00
    0   22    8     -2.27      0.00
    0   22    9     -2.97      0.00
    0   22   10      1.99      0.00
    0   22   11      0.78      0.00
    0   22   12      1.99      0.00
    0   22   13     -0.95      0.00
    0   24    0     -2.33      0.00
    0   24    1      1.69      0.00
    0   24    2      5.03      0.00
    0   24    3     -1.82      0.00
    0   24    4     -0.54      0.00
    0   24    5      0.30      0.00
    0   24    6      3.75      0.00
    0   24    7      0.14      0.00
    0   24    8     -4.66      0.00
    0   24    9     -1.30      0.00
    0   24   10      4.25      0.00
    0   24   11     -0.93      0.00
    0   24   12      1.76      0.00
    0   26    0      0.74      0.00
    0   26    1      6.72      0.00
    0   26    2      2.61      0.00
    0   26    3     -5.75      0.00
    0   26    4     -0.38      0.00
    0   26    5      2.88      0.00
    0   26    6      2.11      0.00
    0   26    7     -1.94      0.00
    0   26    8     -3.09      0.00
    0   26    9      2.12      0.00
    0   26   10      1.68      0.00
    0   28    0      2.15      0.00
    0   28    1      2.19      0.00
    0   28    2     -0.16      0.00
    0   28    3     -4.27      0.00
    0   28    4      1.82      0.00
    0   28    5      3.60      0.00
    0   28    6     -1.01      0.00
    0   28    7     -2.06      0.00
    0   30    0     -2.48      0.00
    0   30    1     -2.17      0.00
    0   30    2      1.94      0.00
    0   30    3     -0.58      0.00
   -1    1   19      0.51      0.00
   -1    1   18     -3.95      0.00
   -1    1   17     -0.36      0.00
   -1    1   16      1.55      0.00
   -1    1   15      1.01      0.00
   -1    1   14     -4.36      0.00
   -1    1   13     -1.68      0.00
   -1    1   12      0.31      0.00
   -1    1   11     -0.09      0.00
   -1    1   10     -3.84      0.00
   -1    1    9      0.16      0.00
   -1    1    8      7.05      0.00
   -1    1    7      2.69      0.00
   -1    1    6      1.24      0.00
   -1    1    5      2.88      0.00
   -1    1    4    -48.71      0.00
   -1    1    3    -24.52      0.00
   -1    1    2    146.08      0.00
   -1    1    1     50.32      0.00
    1    1    0   -216.03      0.00
    1    1    1     56.08      0.00
    1    1    2    130.68      0.00
    1    1    3    -20.96      0.00
    1    1    4    -53.21      0.00
    1    1    5     -1.52      0.00
    1    1    6      9.33      0.00
    1    1    7     -0.02      0.00
    1    1    8     -2.77      0.00
    1    1    9      3.37      0.00
    1    1   10      0.04      0.00
    1    1   11     -2.56      0.00
    1    1   12      8.30      0.00
    1    1   13     -0.34      0.00
    1    1   14     -8.56      0.00
    1    1   15      0.95      0.00
    1    1   16      4.55      0.00
    1    1   17      0.77      0.00
    1    1   18     -0.21      0.00
    1    1   19     -0.31      0.00
   -1    3   19      1.66      0.00
   -1    3   18     -3.19      0.00
   -1    3   17     -1.36      0.00
   -1    3   16      1.54      0.00
   -1    3   15      1.33      0.00
   -1    3   14     -0.82      0.00
   -1    3   13     -0.48      0.00
   -1    3   12     -3.11      0.00
   -1    3   11     -2.39      0.00
   -1    3   10     -1.61      0.00
   -1    3    9      3.27      0.00
   -1    3    8     -2.09      0.00
   -1    3    7     -0.70      0.00
   -1    3    6     13.26      0.00
   -1    3    5     13.70      0.00
   -1    3    4    -41.71      0.00
   -1    3    3    -51.73      0.00
   -1    3    2     84.99      0.00
   -1    3    1     84.91      0.00
    1    3    0   -100.45      0.00
    1    3    1     85.17      0.00
    1    3    2     36.54      0.00
    1    3    3    -16.34      0.00
    1    3    4    -15.96      0.00
    1    3    5    -16.80      0.00
    1    3    6     -0.78      0.00
    1    3    7      6.31      0.00
    1    3    8      5.67      0.00
    1    3    9      3.75      0.00
    1    3   10     -5.14      0.00
    1    3   11     -4.17      0.00
    1    3   12      7.22      0.00
    1    3   13     -0.11      0.00
    1    3   14     -3.75      0.00
    1    3   15     -0.22      0.00
    1    3   16      1.48      0.00
    1    3   17      2.97      0.00
    1    3   18     -0.21      0.00
    1    3   19     -0.56      0.00
   -1    5   19      1.18      0.00
   -1    5   18     -0.77      0.00
   -1    5   17     -1.69      0.00
   -1    5   16      1.09      0.00
   -1    5   15      0.55      0.00
   -1    5   14     -0.26      0.00
   -1    5   13      3.57      0.00
   -1    5   12     -2.92      0.00
   -1    5   11     -4.30      0.00
   -1    5   10     -0.58      0.00
   -1    5    9      6.67      0.00
   -1    5    8     -5.83      0.00
   -1    5    7     -8.76      0.00
   -1    5    6     13.70      0.00
   -1    5    5     20.53      0.00
   -1    5    4    -27.84      0.00
   -1    5    3    -43.22      0.00
   -1    5    2     38.96      0.00
   -1    5    1     38.32      0.00
    1    5    0    -26.81      0.00
    1    5    1     21.56      0.00
    1    5    2     -9.81      0.00
    1    5    3     27.78      0.00
    1    5    4     -3.49      0.00
    1    5    5    -33.96      0.00
    1    5    6     -0.81      0.00
    1    5    7     15.93      0.00
    1    5    8      8.06      0.00
    1    5    9     -2.98      0.00
    1    5   10     -6.54      0.00
    1    5   11     -1.45      0.00
    1    5   12      3.92      0.00
    1    5   13      0.60      0.00
    1    5   14     -0.62      0.00
    1    5   15     -3.41      0.00
    1    5   16      0.86      0.00
    1    5   17      4.02      0.00
    1    5   18     -0.73      0.00
    1    5   19      0.17      0.00
   -1    7   19     -0.97      0.00
   -1    7   18      0.58      0.00
   -1    7   17     -1.07      0.00
   -1    7   16     -0.01      0.00
   -1    7   15      1.26      0.00
   -1    7   14     -0.73      0.00
   -1    7   13      3.38      0.00
   -1    7   12     -1.97      0.00
   -1    7   11     -2.91      0.00
   -1    7   10      1.30      0.00
   -1    7    9      5.77      0.00
   -1    7    8     -5.07      0.00
   -1    7    7     -7.54      0.00
   -1    7    6      8.23      0.00
   -1    7    5     14.02      0.00
   -1    7    4    -19.18      0.00
   -1    7    3    -25.45      0.00
   -1    7    2     28.55      0.00
   -1    7    1      3.75      0.00
    1    7    0    -23.94      0.00
    1    7    1    -11.04      0.00
    1    7    2      4.76      0.00
    1    7    3     33.50      0.00
    1    7    4    -10.20      0.00
    1    7    5    -27.20      0.00
    1    7    6      4.04      0.00
    1    7    7     14.99      0.00
    1    7    8      3.31      0.00
    1    7    9     -5.15      0.00
    1    7   10     -3.38      0.00
    1    7   11     -0.86      0.00
    1    7   12     -0.33      0.00
    1    7   13      1.18      0.00
    1    7   14     -0.16      0.00
    1    7   15     -3.55      0.00
    1    7   16      1.63      0.00
    1    7   17      2.79      0.00
    1    7   18     -0.27      0.00
    1    7   19      0.69      0.00
   -1    9   18      0.06      0.00
   -1    9   17     -1.64      0.00
   -1    9   16     -1.50      0.00
   -1    9   15      1.84      0.00
   -1    9   14      0.69      0.00
   -1    9   13      1.79      0.00
   -1    9   12     -2.03      0.00
   -1    9   11     -1.79      0.00
   -1    9   10      2.78      0.00
   -1    9    9      3.74      0.00
   -1    9    8     -5.42      0.00
   -1    9    7     -4.83      0.00
   -1    9    6      7.40      0.00
   -1    9    5     11.14      0.00
   -1    9    4    -16.25      0.00
   -1    9    3    -17.79      0.00
   -1    9    2     22.08      0.00
   -1    9    1     -0.27      0.00
    1    9    0    -20.61      0.00
    1    9    1     -3.82      0.00
    1    9    2      7.59      0.00
    1    9    3     14.89      0.00
    1    9    4     -1.29      0.00
    1    9    5    -14.38      0.00
    1    9    6     -0.17      0.00
    1    9    7      7.91      0.00
    1    9    8      1.68      0.00
    1    9    9     -1.91      0.00
    1    9   10     -3.01      0.00
    1    9   11     -2.22      0.00
    1    9   12     -0.95      0.00
    1    9   13      1.29      0.00
    1    9   14     -0.77      0.00
    1    9   15     -1.84      0.00
    1    9   16      1.16      0.00
    1    9   17      2.52      0.00
    1    9   18      0.78      0.00
   -1   11   18      0.63      0.00
   -1   11   17     -2.95      0.00
   -1   11   16     -2.49      0.00
   -1   11   15      1.38      0.00
   -1   11   14      1.04      0.00
   -1   11   13     -0.06      0.00
   -1   11   12     -0.32      0.00
   -1   11   11      0.92      0.00
   -1   11   10      1.54      0.00
   -1   11    9      1.08      0.00
   -1   11    8     -4.18      0.00
   -1   11    7     -5.22      0.00
   -1   11    6      2.35      0.00
   -1   11    5     14.18      0.00
   -1   11    4     -8.37      0.00
   -1   11    3    -15.10      0.00
   -1   11    2     14.35      0.00
   -1   11    1     -0.25      0.00
    1   11    0    -14.16      0.00
    1   11    1     -1.38      0.00
    1   11    2      4.03      0.00
    1   11    3      9.69      0.00
    1   11    4      6.69      0.00
    1   11    5    -13.95      0.00
    1   11    6     -4.34      0.00
    1   11    7      5.52      0.00
    1   11    8      1.83      0.00
    1   11    9     -0.90      0.00
    1   11   10     -3.11      0.00
    1   11   11      0.11      0.00
    1   11   12     -0.07      0.00
    1   11   13     -1.20      0.00
    1   11   14     -1.30      0.00
    1   11   15     -0.12      0.00
    1   11   16      0.50      0.00
    1   11   17      3.51      0.00
    1   11   18      0.73      0.00
   -1   13   17     -2.72      0.00
   -1   13   16     -2.35      0.00
   -1   13   15      1.30      0.00
   -1   13   14      0.75      0.00
   -1   13   13     -2.89      0.00
   -1   13   12     -0.97      0.00
   -1   13   11      4.70      0.00
   -1   13   10      2.43      0.00
   -1   13    9     -1.54      0.00
   -1   13    8     -2.70      0.00
   -1   13    7     -2.61      0.00
   -1   13    6     -3.61      0.00
   -1   13    5      9.71      0.00
   -1   13    4     -0.67      0.00
   -1   13    3    -12.01      0.00
   -1   13    2      9.17      0.00
   -1   13    1      8.10      0.00
    1   13    0    -13.17      0.00
    1   13    1      6.75      0.00
    1   13    2      7.40      0.00
    1   13    3      2.65      0.00
    1   13    4      2.29      0.00
    1   13    5    -12.27      0.00
    1   13    6     -0.55      0.00
    1   13    7      3.97      0.00
    1   13    8     -1.68      0.00
    1   13    9      0.77      0.00
    1   13   10      0.85      0.00
    1   13   11      1.19      0.00
    1   13   12     -2.72      0.00
    1   13   13     -2.90      0.00
    1   13   14      0.28      0.00
    1   13   15      0.39      0.00
    1   13   16     -0.18      0.00
    1   13   17      4.24      0.00
   -1   15   17     -1.24      0.00
   -1   15   16     -1.36      0.00
   -1   15   15      1.16      0.00
   -1   15   14      0.56      0.00
   -1   15   13     -2.28      0.00
   -1   15   12     -3.04      0.00
   -1   15   11      2.14      0.00
   -1   15   10      3.96      0.00
   -1   15    9      0.35      0.00
   -1   15    8     -2.27      0.00
   -1   15    7     -0.17      0.00
   -1   15    6     -1.59      0.00
   -1   15    5      3.28      0.00
   -1   15    4     -0.35      0.00
   -1   15    3     -8.49      0.00
   -1   15    2     -0.17      0.00
   -1   15    1     15.48      0.00
    1   15    0     -1.21      0.00
    1   15    1     14.32      0.00
    1   15    2      0.12      0.00
    1   15    3     -6.24      0.00
    1   15    4      1.54      0.00
    1   15    5     -4.10      0.00
    1   15    6      2.19      0.00
    1   15    7     -1.50      0.00
    1   15    8     -3.03      0.00
    1   15    9      5.40      0.00
    1   15   10      1.06      0.00
    1   15   11     -2.70      0.00
    1   15   12     -3.25      0.00
    1   15   13      0.25      0.00
    1   15   14      0.64      0.00
    1   15   15     -1.59      0.00
    1   15   16      1.03      0.00
    1   15   17      4.75      0.00
   -1   17   16     -0.04      0.00
   -1   17   15      1.14      0.00
   -1   17   14     -1.35      0.00
   -1   17   13     -0.18      0.00
   -1   17   12     -0.19      0.00
   -1   17   11     -2.81      0.00
   -1   17   10      0.66      0.00
   -1   17    9      3.49      0.00
   -1   17    8     -0.75      0.00
   -1   17    7     -0.91      0.00
   -1   17    6      2.38      0.00
   -1   17    5      2.50      0.00
   -1   17    4     -1.94      0.00
   -1   17    3     -3.27      0.00
   -1   17    2     -6.33      0.00
   -1   17    1      7.59      0.00
    1   17    0      6.05      0.00
    1   17    1      5.06      0.00
    1   17    2     -4.85      0.00
    1   17    3     -2.99      0.00
    1   17    4      3.10      0.00
    1   17    5      0.88      0.00
    1   17    6     -1.60      0.00
    1   17    7     -4.87      0.00
    1   17    8      1.05      0.00
    1   17    9      4.76      0.00
    1   17   10     -3.80      0.00
    1   17   11     -2.50      0.00
    1   17   12      1.22      0.00
    1   17   13      1.77      0.00
    1   17   14     -2.90      0.00
    1   17   15     -1.42      0.00
    1   17   16      4.89      0.00
   -1   19   15      2.24      0.00
   -1   19   14     -1.73      0.00
   -1   19   13     -1.12      0.00
   -1   19   12      2.53      0.00
   -1   19   11     -2.79      0.00
   -1   19   10     -2.14      0.00
   -1   19    9      3.86      0.00
   -1   19    8     -0.31      0.00
   -1   19    7     -1.94      0.00
   -1   19    6      3.63      0.00
   -1   19    5      2.32      0.00
   -1   19    4     -1.90      0.00
   -1   19    3      0.98      0.00
   -1   19    2     -3.18      0.00
   -1   19    1      0.83      0.00
    1   19    0     -2.11      0.00
    1   19    1     -0.34      0.00
    1   19    2      3.12      0.00
    1   19    3     -0.10      0.00
    1   19    4     -0.23      0.00
    1   19    5      1.34      0.00
    1   19    6     -6.57      0.00
    1   19    7     -2.43      0.00
    1   19    8      3.44      0.00
    1   19    9     -0.12      0.00
    1   19   10     -3.78      0.00
    1   19   11      1.85      0.00
    1   19   12      2.10      0.00
    1   19   13     -1.19      0.00
    1   19   14     -3.69      0.00
    1   19   15      2.36      0.00
   -1   21   14      1.31      0.00
   -1   21   13     -1.10      0.00
   -1   21   12      0.96      0.00
   -1   21   11     -1.63      0.00
   -1   21   10     -1.63      0.00
   -1   21    9      4.28      0.00
   -1   21    8     -0.41      0.00
   -1   21    7     -3.03      0.00
   -1   21    6      3.45      0.00
   -1   21    5      0.65      0.00
   -1   21    4     -1.10      0.00
   -1   21    3      1.95      0.00
   -1   21    2     -1.49      0.00
   -1   21    1      2.52      0.00
    1   21    0     -4.74      0.00
    1   21    1      4.66      0.00
    1   21    2      5.44      0.00
    1   21    3     -3.56      0.00
    1   21    4     -2.36      0.00
    1   21    5      0.87      0.00
    1   21    6     -7.44      0.00
    1   21    7      0.59      0.00
    1   21    8      2.21      0.00
    1   21    9      0.08      0.00
    1   21   10     -1.24      0.00
    1   21   11      0.87      0.00
    1   21   12     -0.77      0.00
    1   21   13     -1.06      0.00
    1   21   14     -0.18      0.00
   -1   23   13      0.50      0.00
   -1   23   12      0.08      0.00
   -1   23   11     -0.07      0.00
   -1   23   10     -2.02      0.00
   -1   23    9      3.01      0.00
   -1   23    8      2.17      0.00
   -1   23    7     -2.54      0.00
   -1   23    6      1.41      0.00
   -1   23    5     -0.68      0.00
   -1   23    4      0.29      0.00
   -1   23    3      2.91      0.00
   -1   23    2     -3.85      0.00
   -1   23    1     -0.26      0.00
    1   23    0      0.63      0.00
    1   23    1      2.34      0.00
    1   23    2     -0.21      0.00
    1   23    3     -2.41      0.00
    1   23    4     -0.99      0.00
    1   23    5      0.01      0.00
    1   23    6     -5.20      0.00
    1   23    7      0.74      0.00
    1   23    8      1.68      0.00
    1   23    9      2.43      0.00
    1   23   10     -3.18      0.00
    1   23   11     -2.07      0.00
    1   23   12     -0.70      0.00
   -1   25   11      3.12      0.00
   -1   25   10     -0.79      0.00
   -1   25    9     -1.04      0.00
   -1   25    8      3.50      0.00
   -1   25    7      0.83      0.00
   -1   25    6     -1.18      0.00
   -1   25    5     -1.78      0.00
   -1   25    4      1.47      0.00
   -1   25    3      4.21      0.00
   -1   25    2     -2.74      0.00
   -1   25    1     -5.72      0.00
    1   25    0     -0.15      0.00
    1   25    1     -4.82      0.00
    1   25    2     -0.88      0.00
    1   25    3      3.10      0.00
    1   25    4     -0.58      0.00
    1   25    5     -2.00      0.00
    1   25    6     -2.55      0.00
    1   25    7      0.69      0.00
    1   25    8      0.71      0.00
    1   25    9      0.80      0.00
    1   25   10     -3.57      0.00
    1   25   11     -0.99      0.00
   -1   27    9     -1.45      0.00
   -1   27    8      1.32      0.00
   -1   27    7      3.40      0.00
   -1   27    6     -1.90      0.00
   -1   27    5     -3.22      0.00
   -1   27    4      1.95      0.00
   -1   27    3      3.77      0.00
   -1   27    2      0.23      0.00
   -1   27    1     -4.19      0.00
    1   27    0     -3.81      0.00
    1   27    1     -4.45      0.00
    1   27    2      2.05      0.00
    1   27    3      4.54      0.00
    1   27    4     -2.57      0.00
    1   27    5     -3.71      0.00
    1   27    6      0.72      0.00
    1   27    7      1.03      0.00
    1   27    8     -2.38      0.00
    1   27    9     -0.58      0.00
   -1   29    6     -0.42      0.00
   -1   29    5     -4.04      0.00
   -1   29    4      1.18      0.00
   -1   29    3      2.54      0.00
   -1   29    2     -0.02      0.00
   -1   29    1      0.77      0.00
    1   29    0     -1.73      0.00
    1   29    1     -0.07      0.00
    1   29    2      1.20      0.00
    1   29    3      1.18      0.00
    1   29    4     -3.65      0.00
    1   29    5     -2.01      0.00
    1   29    6      2.78      0.00
   -2    0   18      1.86      0.00
   -2    0   16     -2.33      0.00
   -2    0   14      3.14      0.00
   -2    0   12     -2.05      0.00
   -2    0   10      0.65      0.00
   -2    0    8     -2.28      0.00
   -2    0    6     11.23      0.00
   -2    0    4    -13.90      0.00
   -2    0    2      9.83      0.00
    2    0    0    -71.89      0.00
    2    0    2     49.88      0.00
    2    0    4    -28.07      0.00
    2    0    6     16.49      0.00
    2    0    8     -1.34      0.00
    2    0   10     -1.24      0.00
    2    0   12     -6.00      0.00
    2    0   14      3.19      0.00
    2    0   16     -1.38      0.00
    2    0   18     -1.87      0.00
   -2    2   19     -0.39      0.00
   -2    2   18      2.10      0.00
   -2    2   17      0.88      0.00
   -2    2   16     -3.06      0.00
   -2    2   15     -0.31      0.00
   -2    2   14      2.51      0.00
   -2    2   13      2.70      0.00
   -2    2   12     -0.10      0.00
   -2    2   11     -1.62      0.00
   -2    2   10      0.70      0.00
   -2    2    9     -1.48      0.00
   -2    2    8      0.19      0.00
   -2    2    7     -3.11      0.00
   -2    2    6      2.62      0.00
   -2    2    5     -3.68      0.00
   -2    2    4     -6.10      0.00
   -2    2    3     20.69      0.00
   -2    2    2      5.59      0.00
   -2    2    1    -15.58      0.00
    2    2    0    -69.28      0.00
    2    2    1    -10.81      0.00
    2    2    2     55.35      0.00
    2    2    3     -5.51      0.00
    2    2    4    -31.66      0.00
    2    2    5     11.94      0.00
    2    2    6     18.14      0.00
    2    2    7     -3.87      0.00
    2    2    8     -5.78      0.00
    2    2    9     -1.51      0.00
    2    2   10      0.84      0.00
    2    2   11     -0.78      0.00
    2    2   12     -5.54      0.00
    2    2   13      1.53      0.00
    2    2   14      2.93      0.00
    2    2   15      1.49      0.00
    2    2   16     -0.97      0.00
    2    2   17     -1.93      0.00
    2    2   18     -1.38      0.00
    2    2   19      1.62      0.00
   -2    4   19     -1.14      0.00
   -2    4   18      1.08      0.00
   -2    4   17      2.46      0.00
   -2    4   16     -2.71      0.00
   -2    4   15     -1.33      0.00
   -2    4   14      1.41      0.00
   -2    4   13      1.42      0.00
   -2    4   12      1.79      0.00
   -2    4   11     -0.21      0.00
   -2    4   10      1.12      0.00
   -2    4    9     -3.71      0.00
   -2    4    8      2.20      0.00
   -2    4    7      3.71      0.00
   -2    4    6     -5.09      0.00
   -2    4    5    -16.05      0.00
   -2    4    4     -1.17      0.00
   -2    4    3     35.11      0.00
   -2    4    2      0.47      0.00
   -2    4    1    -16.40      0.00
    2    4    0    -50.51      0.00
    2    4    1      2.96      0.00
    2    4    2     45.96      0.00
    2    4    3    -28.21      0.00
    2    4    4    -24.50      0.00
    2    4    5     26.42      0.00
    2    4    6     13.48      0.00
    2    4    7    -11.56      0.00
    2    4    8     -9.58      0.00
    2    4    9      2.52      0.00
    2    4   10      2.52      0.00
    2    4   11     -2.12      0.00
    2    4   12     -3.13      0.00
    2    4   13      2.64      0.00
    2    4   14      2.07      0.00
    2    4   15      3.30      0.00
    2    4   16     -0.96      0.00
    2    4   17     -3.34      0.00
    2    4   18     -0.08      0.00
    2    4   19      1.55      0.00
   -2    6   19     -0.50      0.00
   -2    6   18     -0.65      0.00
   -2    6   17      2.16      0.00
   -2    6   16     -0.37      0.00
   -2    6   15     -1.80      0.00
   -2    6   14      0.12      0.00
   -2    6   13     -0.35      0.00
   -2    6   12      1.42      0.00
   -2    6   11      1.17      0.00
   -2    6   10      0.18      0.00
   -2    6    9     -4.09      0.00
   -2    6    8      1.09      0.00
   -2    6    7      7.20      0.00
   -2    6    6     -1.71      0.00
   -2    6    5    -14.20      0.00
   -2    6    4     -4.06      0.00
   -2    6    3     24.77      0.00
   -2    6    2     -3.25      0.00
   -2    6    1     -6.83      0.00
    2    6    0    -16.12      0.00
    2    6    1     12.51      0.00
    2    6    2     12.14      0.00
    2    6    3    -36.42      0.00
    2    6    4     -3.34      0.00
    2    6    5     25.85      0.00
    2    6    6      2.04      0.00
    2    6    7    -12.04      0.00
    2    6    8     -5.41      0.00
    2    6    9      4.58      0.00
    2    6   10      0.17      0.00
    2    6   11     -0.57      0.00
    2    6   12      0.79      0.00
    2    6   13      1.61      0.00
    2    6   14      0.39      0.00
    2    6   15      4.08      0.00
    2    6   16     -1.00      0.00
    2    6   17     -2.77      0.00
    2    6   18     -0.22      0.00
    2    6   19     -0.01      0.00
   -2    8   19     -0.15      0.00
   -2    8   18     -0.53      0.00
   -2    8   17      1.79      0.00
   -2    8   16      1.38      0.00
   -2    8   15     -1.68      0.00
   -2    8   14     -1.85      0.00
   -2    8   13     -0.68      0.00
   -2    8   12      1.49      0.00
   -2    8   11      1.85      0.00
   -2    8   10     -2.36      0.00
   -2    8    9     -3.29      0.00
   -2    8    8      1.51      0.00
   -2    8    7      3.76      0.00
   -2    8    6     -3.60      0.00
   -2    8    5     -2.93      0.00
   -2    8    4      6.30      0.00
   -2    8    3      5.27      0.00
   -2    8    2    -12.09      0.00
   -2    8    1     -0.74      0.00
    2    8    0      7.77      0.00
    2    8    1      3.21      0.00
    2    8    2     -8.12      0.00
    2    8    3    -23.04      0.00
    2    8    4      4.93      0.00
    2    8    5     15.63      0.00
    2    8    6     -1.54      0.00
    2    8    7     -5.32      0.00
    2    8    8     -2.22      0.00
    2    8    9      0.36      0.00
    2    8   10     -0.45      0.00
    2    8   11      3.77      0.00
    2    8   12      1.98      0.00
    2    8   13     -1.23      0.00
    2    8   14     -0.89      0.00
    2    8   15      4.01      0.00
    2    8   16      0.12      0.00
    2    8   17     -2.48      0.00
    2    8   18     -2.27      0.00
    2    8   19      0.18      0.00
   -2   10   18     -0.84      0.00
   -2   10   17      3.12      0.00
   -2   10   16      2.62      0.00
   -2   10   15     -1.55      0.00
   -2   10   14     -2.97      0.00
   -2   10   13     -0.41      0.00
   -2   10   12      0.95      0.00
   -2   10   11      1.63      0.00
   -2   10   10     -2.48      0.00
   -2   10    9     -2.09      0.00
   -2   10    8      1.53      0.00
   -2   10    7      3.13      0.00
   -2   10    6     -6.90      0.00
   -2   10    5     -6.13      0.00
   -2   10    4     17.18      0.00
   -2   10    3      4.20      0.00
   -2   10    2    -17.59      0.00
   -2   10    1     -2.84      0.00
    2   10    0     13.29      0.00
    2   10    1     -4.16      0.00
    2   10    2     -7.59      0.00
    2   10    3    -14.09      0.00
    2   10    4      2.78      0.00
    2   10    5     13.08      0.00
    2   10    6     -0.52      0.00
    2   10    7     -2.03      0.00
    2   10    8     -3.99      0.00
    2   10    9     -2.18      0.00
    2   10   10      2.74      0.00
    2   10   11      4.06      0.00
    2   10   12      0.03      0.00
    2   10   13     -1.78      0.00
    2   10   14     -0.39      0.00
    2   10   15      3.08      0.00
    2   10   16      0.26      0.00
    2   10   17     -3.29      0.00
    2   10   18     -2.37      0.00
   -2   12   18     -1.97      0.00
   -2   12   17      2.71      0.00
   -2   12   16      2.73      0.00
   -2   12   15     -1.28      0.00
   -2   12   14     -2.10      0.00
   -2   12   13      1.52      0.00
   -2   12   12      0.30      0.00
   -2   12   11     -1.62      0.00
   -2   12   10     -1.77      0.00
   -2   12    9      1.45      0.00
   -2   12    8     -0.70      0.00
   -2   12    7      2.45      0.00
   -2   12    6     -0.27      0.00
   -2   12    5    -11.93      0.00
   -2   12    4      9.44      0.00
   -2   12    3     10.23      0.00
   -2   12    2    -11.39      0.00
   -2   12    1     -8.55      0.00
    2   12    0     11.84      0.00
    2   12    1     -6.44      0.00
    2   12    2     -6.54      0.00
    2   12    3     -8.44      0.00
    2   12    4      4.76      0.00
    2   12    5     10.67      0.00
    2   12    6     -2.59      0.00
    2   12    7     -1.60      0.00
    2   12    8     -4.39      0.00
    2   12    9      0.24      0.00
    2   12   10      2.58      0.00
    2   12   11     -0.02      0.00
    2   12   12      0.55      0.00
    2   12   13      0.48      0.00
    2   12   14     -0.17      0.00
    2   12   15      0.91      0.00
    2   12   16     -0.46      0.00
    2   12   17     -2.72      0.00
    2   12   18     -0.61      0.00
   -2   14   17      1.15      0.00
   -2   14   16      0.54      0.00
   -2   14   15     -1.67      0.00
   -2   14   14     -0.84      0.00
   -2   14   13      3.39      0.00
   -2   14   12      2.00      0.00
   -2   14   11     -3.37      0.00
   -2   14   10     -4.20      0.00
   -2   14    9      3.51      0.00
   -2   14    8     -0.58      0.00
   -2   14    7     -1.62      0.00
   -2   14    6      5.37      0.00
   -2   14    5     -5.89      0.00
   -2   14    4     -0.83      0.00
   -2   14    3      7.15      0.00
   -2   14    2     -2.50      0.00
   -2   14    1    -11.16      0.00
    2   14    0      6.34      0.00
    2   14    1     -8.62      0.00
    2   14    2     -4.05      0.00
    2   14    3      0.25      0.00
    2   14    4      3.34      0.00
    2   14    5      3.72      0.00
    2   14    6     -2.52      0.00
    2   14    7     -0.08      0.00
    2   14    8     -1.71      0.00
    2   14    9      1.36      0.00
    2   14   10     -1.24      0.00
    2   14   11     -0.91      0.00
    2   14   12      3.01      0.00
    2   14   13      0.40      0.00
    2   14   14     -1.09      0.00
    2   14   15      0.82      0.00
    2   14   16     -0.42      0.00
    2   14   17     -2.53      0.00
   -2   16   16     -0.72      0.00
   -2   16   15     -2.42      0.00
   -2   16   14     -0.12      0.00
   -2   16   13      2.82      0.00
   -2   16   12      2.18      0.00
   -2   16   11     -0.16      0.00
   -2   16   10     -4.73      0.00
   -2   16    9      0.24      0.00
   -2   16    8      0.81      0.00
   -2   16    7     -3.15      0.00
   -2   16    6      3.01      0.00
   -2   16    5      0.99      0.00
   -2   16    4     -1.73      0.00
   -2   16    3      2.03      0.00
   -2   16    2      0.47      0.00
   -2   16    1     -7.29      0.00
    2   16    0      1.44      0.00
    2   16    1     -4.23      0.00
    2   16    2     -0.98      0.00
    2   16    3      2.16      0.00
    2   16    4     -1.22      0.00
    2   16    5      1.07      0.00
    2   16    6      0.20      0.00
    2   16    7      1.52      0.00
    2   16    8      0.00      0.00
    2   16    9     -0.33      0.00
    2   16   10     -1.57      0.00
    2   16   11      0.82      0.00
    2   16   12      1.50      0.00
    2   16   13     -2.01      0.00
    2   16   14      0.54      0.00
    2   16   15      3.35      0.00
    2   16   16     -2.32      0.00
   -2   18   15     -1.93      0.00
   -2   18   14      0.79      0.00
   -2   18   13      2.01      0.00
   -2   18   12     -0.84      0.00
   -2   18   11      2.02      0.00
   -2   18   10     -0.72      0.00
   -2   18    9     -3.09      0.00
   -2   18    8      0.10      0.00
   -2   18    7     -1.54      0.00
   -2   18    6     -1.06      0.00
   -2   18    5      2.78      0.00
   -2   18    4     -0.72      0.00
   -2   18    3      0.25      0.00
   -2   18    2     -1.01      0.00
   -2   18    1     -2.40      0.00
    2   18    0      3.97      0.00
    2   18    1      0.79      0.00
    2   18    2     -5.23      0.00
    2   18    3      0.79      0.00
    2   18    4     -0.31      0.00
    2   18    5      1.49      0.00
    2   18    6      1.82      0.00
    2   18    7      2.22      0.00
    2   18    8     -0.60      0.00
    2   18    9     -1.07      0.00
    2   18   10      0.71      0.00
    2   18   11      0.00      0.00
    2   18   12     -2.07      0.00
    2   18   13     -1.39      0.00
    2   18   14      4.32      0.00
    2   18   15      2.93      0.00
   -2   20   14      1.70      0.00
   -2   20   13      1.80      0.00
   -2   20   12     -2.55      0.00
   -2   20   11      1.61      0.00
   -2   20   10      1.62      0.00
   -2   20    9     -3.32      0.00
   -2   20    8     -0.40      0.00
   -2   20    7      0.41      0.00
   -2   20    6     -4.05      0.00
   -2   20    5      3.01      0.00
   -2   20    4     -0.53      0.00
   -2   20    3     -0.90      0.00
   -2   20    2     -2.08      0.00
   -2   20    1     -1.55      0.00
    2   20    0      5.89      0.00
    2   20    1     -1.33      0.00
    2   20    2     -8.07      0.00
    2   20    3      2.88      0.00
    2   20    4      1.82      0.00
    2   20    5      1.28      0.00
    2   20    6      2.01      0.00
    2   20    7      1.53      0.00
    2   20    8     -0.85      0.00
    2   20    9     -1.31      0.00
    2   20   10      1.11      0.00
    2   20   11     -0.56      0.00
    2   20   12     -2.40      0.00
    2   20   13      1.33      0.00
    2   20   14      4.73      0.00
   -2   22   13      0.84      0.00
   -2   22   12     -3.02      0.00
   -2   22   11      1.96      0.00
   -2   22   10      1.09      0.00
   -2   22    9     -2.82      0.00
   -2   22    8     -0.23      0.00
   -2   22    7      1.94      0.00
   -2   22    6     -4.73      0.00
   -2   22    5      2.26      0.00
   -2   22    4      0.24      0.00
   -2   22    3     -2.47      0.00
   -2   22    2     -1.46      0.00
   -2   22    1      0.27      0.00
    2   22    0      1.88      0.00
    2   22    1     -1.35      0.00
    2   22    2     -4.40      0.00
    2   22    3      2.30      0.00
    2   22    4      2.07      0.00
    2   22    5      1.56      0.00
    2   22    6      0.23      0.00
    2   22    7      0.80      0.00
    2   22    8      0.53      0.00
    2   22    9     -2.47      0.00
    2   22   10      1.13      0.00
    2   22   11      1.70      0.00
    2   22   12     -1.01      0.00
    2   22   13      1.06      0.00
   -2   24   12     -3.36      0.00
   -2   24   11      1.37      0.00
   -2   24   10     -0.48      0.00
   -2   24    9     -1.40      0.00
   -2   24    8     -0.10      0.00
   -2   24    7      0.97      0.00
   -2   24    6     -2.35      0.00
   -2   24    5      1.43      0.00
   -2   24    4      0.78      0.00
   -2   24    3     -3.22      0.00
   -2   24    2     -2.59      0.00
   -2   24    1      4.41      0.00
    2   24    0      0.99      0.00
    2   24    1      3.34      0.00
    2   24    2     -2.99      0.00
    2   24    3     -0.95      0.00
    2   24    4      2.42      0.00
    2   24    5      1.42      0.00
    2   24    6     -1.05      0.00
    2   24    7      1.03      0.00
    2   24    8      1.89      0.00
    2   24    9     -2.17      0.00
    2   24   10      1.10      0.00
    2   24   11      3.05      0.00
    2   24   12     -0.62      0.00
   -2   26   10     -3.52      0.00
   -2   26    9     -1.05      0.00
   -2   26    8      1.46      0.00
   -2   26    7     -1.32      0.00
   -2   26    6      0.19      0.00
   -2   26    5      1.48      0.00
   -2   26    4      0.05      0.00
   -2   26    3     -1.99      0.00
   -2   26    2     -4.63      0.00
   -2   26    1      4.42      0.00
    2   26    0      4.34      0.00
    2   26    1      3.96      0.00
    2   26    2     -3.99      0.00
    2   26    3     -1.54      0.00
    2   26    4      1.46      0.00
    2   26    5      1.82      0.00
    2   26    6      0.03      0.00
    2   26    7      0.12      0.00
    2   26    8      2.99      0.00
    2   26    9     -0.50      0.00
    2   26   10     -1.24      0.00
   -2   28    7     -1.46      0.00
   -2   28    6      1.17      0.00
   -2   28    5      2.04      0.00
   -2   28    4     -1.40      0.00
   -2   28    3     -0.97      0.00
   -2   28    2     -3.56      0.00
   -2   28    1      1.09      0.00
    2   28    0      4.15      0.00
    2   28    1      1.31      0.00
    2   28    2     -2.23      0.00
    2   28    3     -0.88      0.00
    2   28    4      0.16      0.00
    2   28    5      3.19      0.00
    2   28    6      0.15      0.00
    2   28    7     -1.14      0.00
   -2   30    3     -1.00      0.00
   -2   30    2     -1.14      0.00
   -2   30    1     -0.72      0.00
    2   30    0      0.97      0.00
    2   30    1      0.64      0.00
    2   30    2      0.08      0.00
    2   30    3     -0.29      0.00
   -3    1   19     -0.57      0.00
   -3    1   18      0.44      0.00
   -3    1   17      0.24      0.00
   -3    1   16      5.48      0.00
   -3    1   15     -0.09      0.00
   -3    1   14     -4.71      0.00
   -3    1   13     -0.43      0.00
   -3    1   12      4.30      0.00
   -3    1   11     -0.76      0.00
   -3    1   10      7.71      0.00
   -3    1    9      3.78      0.00
   -3    1    8    -17.85      0.00
   -3    1    7     -1.91      0.00
   -3    1    6     23.65      0.00
   -3    1    5      4.01      0.00
   -3    1    4    -39.70      0.00
   -3    1    3    -13.56      0.00
   -3    1    2     40.13      0.00
   -3    1    1      9.23      0.00
    3    1    0     62.62      0.00
    3    1    1     -4.65      0.00
    3    1    2    -40.98      0.00
    3    1    3      4.71      0.00
    3    1    4     31.05      0.00
    3    1    5     -3.18      0.00
    3    1    6    -17.88      0.00
    3    1    7      2.11      0.00
    3    1    8      3.45      0.00
    3    1    9     -0.35      0.00
    3    1   10      1.36      0.00
    3    1   11      1.72      0.00
    3    1   12      0.61      0.00
    3    1   13     -0.61      0.00
    3    1   14      1.87      0.00
    3    1   15     -1.88      0.00
    3    1   16     -3.00      0.00
    3    1   17      0.87      0.00
    3    1   18      1.96      0.00
    3    1   19     -1.02      0.00
   -3    3   19     -0.63      0.00
   -3    3   18     -0.18      0.00
   -3    3   17     -0.29      0.00
   -3    3   16      4.33      0.00
   -3    3   15      0.66      0.00
   -3    3   14     -3.25      0.00
   -3    3   13     -1.19      0.00
   -3    3   12      2.89      0.00
   -3    3   11     -1.68      0.00
   -3    3   10      2.97      0.00
   -3    3    9      6.72      0.00
   -3    3    8     -8.02      0.00
   -3    3    7     -4.23      0.00
   -3    3    6     15.32      0.00
   -3    3    5     10.60      0.00
   -3    3    4    -19.58      0.00
   -3    3    3    -29.55      0.00
   -3    3    2     18.03      0.00
   -3    3    1     21.36      0.00
    3    3    0     47.77      0.00
    3    3    1     -8.04      0.00
    3    3    2    -18.63      0.00
    3    3    3      8.68      0.00
    3    3    4     15.13      0.00
    3    3    5     -5.26      0.00
    3    3    6     -7.97      0.00
    3    3    7      3.17      0.00
    3    3    8      0.32      0.00
    3    3    9      0.81      0.00
    3    3   10      4.34      0.00
    3    3   11      1.51      0.00
    3    3   12     -2.33      0.00
    3    3   13     -0.50      0.00
    3    3   14      0.12      0.00
    3    3   15     -4.09      0.00
    3    3   16     -0.57      0.00
    3    3   17      1.77      0.00
    3    3   18      0.59      0.00
    3    3   19     -1.97      0.00
   -3    5   19      0.35      0.00
   -3    5   18      0.01      0.00
   -3    5   17     -0.68      0.00
   -3    5   16      1.43      0.00
   -3    5   15      0.89      0.00
   -3    5   14     -0.02      0.00
   -3    5   13     -0.94      0.00
   -3    5   12      1.06      0.00
   -3    5   11     -1.92      0.00
   -3    5   10     -0.20      0.00
   -3    5    9      3.51      0.00
   -3    5    8      0.60      0.00
   -3    5    7     -2.97      0.00
   -3    5    6      3.58      0.00
   -3    5    5      8.12      0.00
   -3    5    4      5.40      0.00
   -3    5    3    -17.47      0.00
   -3    5    2     -8.04      0.00
   -3    5    1     14.61      0.00
    3    5    0     30.68      0.00
    3    5    1     -6.53      0.00
    3    5    2      2.84      0.00
    3    5    3      5.64      0.00
    3    5    4     -0.88      0.00
    3    5    5      0.43      0.00
    3    5    6      1.87      0.00
    3    5    7     -2.56      0.00
    3    5    8     -2.69      0.00
    3    5    9      4.91      0.00
    3    5   10      5.78      0.00
    3    5   11     -3.25      0.00
    3    5   12     -3.05      0.00
    3    5   13      1.24      0.00
    3    5   14     -1.40      0.00
    3    5   15     -3.52      0.00
    3    5   16      0.96      0.00
    3    5   17      0.97      0.00
    3    5   18      0.29      0.00
    3    5   19     -1.00      0.00
   -3    7   19      1.06      0.00
   -3    7   18     -0.11      0.00
   -3    7   17     -0.31      0.00
   -3    7   16      0.09      0.00
   -3    7   15     -0.21      0.00
   -3    7   14      2.23      0.00
   -3    7   13      0.21      0.00
   -3    7   12      0.13      0.00
   -3    7   11     -1.99      0.00
   -3    7   10     -0.01      0.00
   -3    7    9      0.17      0.00
   -3    7    8      2.47      0.00
   -3    7    7      0.38      0.00
   -3    7    6     -0.86      0.00
   -3    7    5     -2.99      0.00
   -3    7    4      9.75      0.00
   -3    7    3     10.01      0.00
   -3    7    2    -10.75      0.00
   -3    7    1     -3.89      0.00
    3    7    0     11.94      0.00
    3    7    1     -6.91      0.00
    3    7    2     11.80      0.00
    3    7    3      3.79      0.00
    3    7    4     -6.07      0.00
    3    7    5      5.09      0.00
    3    7    6      2.30      0.00
    3    7    7     -8.61      0.00
    3    7    8     -1.25      0.00
    3    7    9      8.45      0.00
    3    7   10      3.99      0.00
    3    7   11     -6.66      0.00
    3    7   12     -0.72      0.00
    3    7   13      2.37      0.00
    3    7   14     -0.88      0.00
    3    7   15     -2.35      0.00
    3    7   16     -0.63      0.00
    3    7   17      0.47      0.00
    3    7   18      2.52      0.00
    3    7   19     -0.50      0.00
   -3    9   18      0.18      0.00
   -3    9   17     -1.35      0.00
   -3    9   16     -0.17      0.00
   -3    9   15      0.31      0.00
   -3    9   14      2.62      0.00
   -3    9   13      0.25      0.00
   -3    9   12     -0.25      0.00
   -3    9   11     -0.96      0.00
   -3    9   10      1.33      0.00
   -3    9    9     -1.46      0.00
   -3    9    8      1.38      0.00
   -3    9    7      2.03      0.00
   -3    9    6      2.45      0.00
   -3    9    5     -6.86      0.00
   -3    9    4     -4.28      0.00
   -3    9    3     19.05      0.00
   -3    9    2      5.37      0.00
   -3    9    1     -8.98      0.00
    3    9    0     -5.56      0.00
    3    9    1     -4.81      0.00
    3    9    2     12.21      0.00
    3    9    3      5.22      0.00
    3    9    4     -6.77      0.00
    3    9    5      1.94      0.00
    3    9    6      0.38      0.00
    3    9    7     -7.17      0.00
    3    9    8      2.29      0.00
    3    9    9      7.70      0.00
    3    9   10      1.16      0.00
    3    9   11     -5.91      0.00
    3    9   12      1.00      0.00
    3    9   13      2.54      0.00
    3    9   14      0.95      0.00
    3    9   15     -2.74      0.00
    3    9   16     -2.29      0.00
    3    9   17      1.61      0.00
    3    9   18      3.63      0.00
   -3   11   18      1.96      0.00
   -3   11   17     -1.23      0.00
   -3   11   16     -1.90      0.00
   -3   11   15      1.20      0.00
   -3   11   14      3.00      0.00
   -3   11   13     -0.85      0.00
   -3   11   12     -1.73      0.00
   -3   11   11      0.51      0.00
   -3   11   10      3.55      0.00
   -3   11    9     -2.54      0.00
   -3   11    8      0.84      0.00
   -3   11    7      2.09      0.00
   -3   11    6      2.84      0.00
   -3   11    5     -1.16      0.00
   -3   11    4    -10.08      0.00
   -3   11    3      7.52      0.00
   -3   11    2     12.10      0.00
   -3   11    1      0.41      0.00
    3   11    0    -11.32      0.00
    3   11    1      0.50      0.00
    3   11    2      8.90      0.00
    3   11    3      4.70      0.00
    3   11    4     -9.32      0.00
    3   11    5      0.24      0.00
    3   11    6      3.39      0.00
    3   11    7     -3.96      0.00
    3   11    8      3.51      0.00
    3   11    9      3.58      0.00
    3   11   10     -0.10      0.00
    3   11   11     -2.94      0.00
    3   11   12      0.61      0.00
    3   11   13      2.87      0.00
    3   11   14      1.53      0.00
    3   11   15     -3.27      0.00
    3   11   16     -1.07      0.00
    3   11   17      1.22      0.00
    3   11   18      1.57      0.00
   -3   13   17      1.10      0.00
   -3   13   16     -1.31      0.00
   -3   13   15      0.69      0.00
   -3   13   14      2.49      0.00
   -3   13   13     -1.21      0.00
   -3   13   12     -3.39      0.00
   -3   13   11     -0.31      0.00
   -3   13   10      5.74      0.00
   -3   13    9     -1.79      0.00
   -3   13    8      0.20      0.00
   -3   13    7      2.68      0.00
   -3   13    6     -0.86      0.00
   -3   13    5      1.45      0.00
   -3   13    4     -3.52      0.00
   -3   13    3     -1.18      0.00
   -3   13    2      6.88      0.00
   -3   13    1      6.41      0.00
    3   13    0     -8.15      0.00
    3   13    1      3.51      0.00
    3   13    2      5.46      0.00
    3   13    3      0.98      0.00
    3   13    4     -8.76      0.00
    3   13    5      4.42      0.00
    3   13    6      3.70      0.00
    3   13    7     -4.15      0.00
    3   13    8      3.49      0.00
    3   13    9     -0.11      0.00
    3   13   10      1.13      0.00
    3   13   11     -0.79      0.00
    3   13   12     -0.32      0.00
    3   13   13      2.99      0.00
    3   13   14      0.38      0.00
    3   13   15     -2.20      0.00
    3   13   16      0.38      0.00
    3   13   17     -1.09      0.00
   -3   15   17      0.12      0.00
   -3   15   16      1.77      0.00
   -3   15   15      1.85      0.00
   -3   15   14      0.92      0.00
   -3   15   13     -1.26      0.00
   -3   15   12     -2.54      0.00
   -3   15   11     -2.65      0.00
   -3   15   10      4.53      0.00
   -3   15    9      1.36      0.00
   -3   15    8     -0.19      0.00
   -3   15    7      2.30      0.00
   -3   15    6     -2.68      0.00
   -3   15    5     -0.59      0.00
   -3   15    4      1.53      0.00
   -3   15    3     -2.18      0.00
   -3   15    2      4.05      0.00
   -3   15    1      5.51      0.00
    3   15    0     -5.17      0.00
    3   15    1      3.22      0.00
    3   15    2      4.12      0.00
    3   15    3     -1.85      0.00
    3   15    4     -4.49      0.00
    3   15    5      5.53      0.00
    3   15    6      0.03      0.00
    3   15    7     -3.60      0.00
    3   15    8      3.18      0.00
    3   15    9     -0.71      0.00
    3   15   10      2.57      0.00
    3   15   11     -0.94      0.00
    3   15   12     -0.04      0.00
    3   15   13      2.52      0.00
    3   15   14     -0.94      0.00
    3   15   15     -1.62      0.00
    3   15   16      0.34      0.00
    3   15   17     -1.01      0.00
   -3   17   16      1.71      0.00
   -3   17   15      3.37      0.00
   -3   17   14      0.45      0.00
   -3   17   13     -1.55      0.00
   -3   17   12      0.01      0.00
   -3   17   11     -2.62      0.00
   -3   17   10      0.00      0.00
   -3   17    9      3.27      0.00
   -3   17    8      1.81      0.00
   -3   17    7      0.85      0.00
   -3   17    6     -2.69      0.00
   -3   17    5     -2.38      0.00
   -3   17    4      2.33      0.00
   -3   17    3     -2.22      0.00
   -3   17    2      5.52      0.00
   -3   17    1      3.01      0.00
    3   17    0     -5.09      0.00
    3   17    1      1.27      0.00
    3   17    2      5.43      0.00
    3   17    3     -2.69      0.00
    3   17    4     -2.67      0.00
    3   17    5      2.63      0.00
    3   17    6      0.25      0.00
    3   17    7     -2.44      0.00
    3   17    8      1.77      0.00
    3   17    9      1.36      0.00
    3   17   10      1.95      0.00
    3   17   11     -1.97      0.00
    3   17   12      1.65      0.00
    3   17   13      1.81      0.00
    3   17   14     -2.78      0.00
    3   17   15     -2.42      0.00
    3   17   16      1.36      0.00
   -3   19   15      1.77      0.00
   -3   19   14     -0.78      0.00
   -3   19   13     -0.88      0.00
   -3   19   12      1.90      0.00
   -3   19   11     -0.97      0.00
   -3   19   10     -3.00      0.00
   -3   19    9      1.89      0.00
   -3   19    8      4.07      0.00
   -3   19    7      0.79      0.00
   -3   19    6     -1.41      0.00
   -3   19    5     -3.51      0.00
   -3   19    4      0.93      0.00
   -3   19    3     -1.76      0.00
   -3   19    2      7.56      0.00
   -3   19    1      1.53      0.00
    3   19    0     -6.42      0.00
    3   19    1      0.35      0.00
    3   19    2      7.14      0.00
    3   19    3     -2.89      0.00
    3   19    4     -2.66      0.00
    3   19    5      0.61      0.00
    3   19    6      3.47      0.00
    3   19    7     -3.08      0.00
    3   19    8      0.19      0.00
    3   19    9      3.67      0.00
    3   19   10      0.70      0.00
    3   19   11     -2.46      0.00
    3   19   12      2.86      0.00
    3   19   13      0.16      0.00
    3   19   14     -4.62      0.00
    3   19   15     -1.52      0.00
   -3   21   14     -4.08      0.00
   -3   21   13     -0.01      0.00
   -3   21   12      3.63      0.00
   -3   21   11     -1.55      0.00
   -3   21   10     -2.89      0.00
   -3   21    9      0.72      0.00
   -3   21    8      3.47      0.00
   -3   21    7      0.40      0.00
   -3   21    6      1.27      0.00
   -3   21    5     -2.36      0.00
   -3   21    4     -1.97      0.00
   -3   21    3     -0.75      0.00
   -3   21    2      8.13      0.00
   -3   21    1      0.82      0.00
    3   21    0     -4.99      0.00
    3   21    1      0.09      0.00
    3   21    2      6.04      0.00
    3   21    3     -0.71      0.00
    3   21    4     -2.44      0.00
    3   21    5     -1.53      0.00
    3   21    6      5.76      0.00
    3   21    7     -3.59      0.00
    3   21    8     -0.75      0.00
    3   21    9      4.41      0.00
    3   21   10      0.65      0.00
    3   21   11     -2.76      0.00
    3   21   12      1.62      0.00
    3   21   13     -1.51      0.00
    3   21   14     -3.22      0.00
   -3   23   12      4.95      0.00
   -3   23   11     -3.25      0.00
   -3   23   10     -1.69      0.00
   -3   23    9      1.32      0.00
   -3   23    8      1.62      0.00
   -3   23    7     -1.15      0.00
   -3   23    6      1.59      0.00
   -3   23    5      0.37      0.00
   -3   23    4     -3.07      0.00
   -3   23    3      0.62      0.00
   -3   23    2      7.19      0.00
   -3   23    1     -1.97      0.00
    3   23    0     -2.02      0.00
    3   23    1     -2.65      0.00
    3   23    2      4.86      0.00
    3   23    3      2.49      0.00
    3   23    4     -3.83      0.00
    3   23    5     -2.43      0.00
    3   23    6      6.17      0.00
    3   23    7     -3.06      0.00
    3   23    8     -0.84      0.00
    3   23    9      2.88      0.00
    3   23   10      1.68      0.00
    3   23   11     -3.06      0.00
    3   23   12     -0.79      0.00
   -3   25   11     -3.94      0.00
   -3   25   10      1.26      0.00
   -3   25    9      2.17      0.00
   -3   25    8     -0.87      0.00
   -3   25    7     -1.12      0.00
   -3   25    6      0.00      0.00
   -3   25    5      0.49      0.00
   -3   25    4     -2.15      0.00
   -3   25    3      2.16      0.00
   -3   25    2      6.73      0.00
   -3   25    1     -4.51      0.00
    3   25    0     -2.43      0.00
    3   25    1     -4.04      0.00
    3   25    2      5.34      0.00
    3   25    3      1.48      0.00
    3   25    4     -3.41      0.00
    3   25    5     -0.53      0.00
    3   25    6      2.75      0.00
    3   25    7     -1.52      0.00
    3   25    8     -0.44      0.00
    3   25    9      0.46      0.00
    3   25   10      3.48      0.00
    3   25   11     -3.22      0.00
   -3   27    9      4.33      0.00
   -3   27    8     -3.37      0.00
   -3   27    7     -1.20      0.00
   -3   27    6      0.27      0.00
   -3   27    5     -0.48      0.00
   -3   27    4     -1.57      0.00
   -3   27    3      1.96      0.00
   -3   27    2      5.43      0.00
   -3   27    1     -2.90      0.00
    3   27    0     -2.52      0.00
    3   27    1     -1.32      0.00
    3   27    2      2.87      0.00
    3   27    3     -0.78      0.00
    3   27    4      1.11      0.00
    3   27    5     -0.83      0.00
    3   27    6     -1.80      0.00
    3   27    7      1.03      0.00
    3   27    8     -0.45      0.00
    3   27    9      0.09      0.00
   -3   29    6      0.39      0.00
   -3   29    5      0.55      0.00
   -3   29    4     -0.90      0.00
   -3   29    3      0.43      0.00
   -3   29    2      2.12      0.00
   -3   29    1     -0.74      0.00
    3   29    0      0.73      0.00
    3   29    1      0.22      0.00
    3   29    2     -1.08      0.00
    3   29    3      0.50      0.00
    3   29    4      3.04      0.00
    3   29    5     -3.56      0.00
   -4    0   18     -1.27      0.00
   -4    0   16     -3.98      0.00
   -4    0   14      3.41      0.00
   -4    0   12     -1.71      0.00
   -4    0   10    -12.27      0.00
   -4    0    8     23.73      0.00
   -4    0    6    -49.52      0.00
   -4    0    4    113.67      0.00
   -4    0    2   -162.72      0.00
    4    0    0    127.79      0.00
    4    0    2    -73.34      0.00
    4    0    4      9.50      0.00
    4    0    6      4.86      0.00
    4    0    8     -2.43      0.00
    4    0   10      1.55      0.00
    4    0   12     -0.81      0.00
    4    0   14     -1.20      0.00
    4    0   16      3.25      0.00
    4    0   18     -0.09      0.00
   -4    2   19      1.45      0.00
   -4    2   18     -0.34      0.00
   -4    2   17     -1.67      0.00
   -4    2   16     -3.12      0.00
   -4    2   15      0.18      0.00
   -4    2   14      2.33      0.00
   -4    2   13     -2.06      0.00
   -4    2   12     -2.15      0.00
   -4    2   11      5.87      0.00
   -4    2   10     -9.12      0.00
   -4    2    9     -8.42      0.00
   -4    2    8     16.78      0.00
   -4    2    7      8.93      0.00
   -4    2    6    -38.46      0.00
   -4    2    5    -12.99      0.00
   -4    2    4     87.69      0.00
   -4    2    3     30.65      0.00
   -4    2    2   -119.59      0.00
   -4    2    1    -44.32      0.00
    4    2    0     94.50      0.00
    4    2    1    -15.95      0.00
    4    2    2    -63.85      0.00
    4    2    3      1.27      0.00
    4    2    4     13.73      0.00
    4    2    5      3.90      0.00
    4    2    6     -1.48      0.00
    4    2    7     -3.42      0.00
    4    2    8      2.42      0.00
    4    2    9     -0.80      0.00
    4    2   10     -2.10      0.00
    4    2   11      0.14      0.00
    4    2   12      2.04      0.00
    4    2   13     -1.84      0.00
    4    2   14     -1.29      0.00
    4    2   15      3.84      0.00
    4    2   16      1.74      0.00
    4    2   17     -1.51      0.00
    4    2   18      0.32      0.00
    4    2   19      0.36      0.00
   -4    4   19      0.92      0.00
   -4    4   18      0.99      0.00
   -4    4   17     -2.13      0.00
   -4    4   16     -1.11      0.00
   -4    4   15      1.15      0.00
   -4    4   14     -0.69      0.00
   -4    4   13     -2.13      0.00
   -4    4   12     -1.47      0.00
   -4    4   11      6.59      0.00
   -4    4   10     -4.31      0.00
   -4    4    9     -7.77      0.00
   -4    4    8      5.24      0.00
   -4    4    7      7.13      0.00
   -4    4    6    -18.07      0.00
   -4    4    5    -10.27      0.00
   -4    4    4     38.47      0.00
   -4    4    3     20.76      0.00
   -4    4    2    -40.11      0.00
   -4    4    1    -34.93      0.00
    4    4    0     31.56      0.00
    4    4    1     -8.02      0.00
    4    4    2    -40.38      0.00
    4    4    3      3.51      0.00
    4    4    4     17.08      0.00
    4    4    5     -1.25      0.00
    4    4    6    -10.19      0.00
    4    4    7      3.14      0.00
    4    4    8      8.73      0.00
    4    4    9     -8.15      0.00
    4    4   10     -5.86      0.00
    4    4   11      6.11      0.00
    4    4   12      3.72      0.00
    4    4   13     -6.35      0.00
    4    4   14      0.10      0.00
    4    4   15      4.82      0.00
    4    4   16     -0.88      0.00
    4    4   17     -0.92      0.00
    4    4   18      0.57      0.00
    4    4   19     -0.10      0.00
   -4    6   19     -0.44      0.00
   -4    6   18      1.55      0.00
   -4    6   17     -2.07      0.00
   -4    6   16     -0.70      0.00
   -4    6   15      3.21      0.00
   -4    6   14     -2.85      0.00
   -4    6   13     -2.41      0.00
   -4    6   12      0.50      0.00
   -4    6   11      4.92      0.00
   -4    6   10     -1.78      0.00
   -4    6    9     -2.97      0.00
   -4    6    8      0.09      0.00
   -4    6    7      0.83      0.00
   -4    6    6     -5.97      0.00
   -4    6    5      0.28      0.00
   -4    6    4      7.88      0.00
   -4    6    3     -9.87      0.00
   -4    6    2      1.87      0.00
   -4    6    1      5.29      0.00
    4    6    0     -1.42      0.00
    4    6    1     16.07      0.00
    4    6    2    -20.23      0.00
    4    6    3      0.30      0.00
    4    6    4     12.49      0.00
    4    6    5     -8.04      0.00
    4    6    6     -7.76      0.00
    4    6    7     12.74      0.00
    4    6    8      5.59      0.00
    4    6    9    -14.79      0.00
    4    6   10     -3.02      0.00
    4    6   11      9.56      0.00
    4    6   12     -0.96      0.00
    4    6   13     -7.30      0.00
    4    6   14      2.71      0.00
    4    6   15      2.26      0.00
    4    6   16     -1.21      0.00
    4    6   17      0.84      0.00
    4    6   18     -0.70      0.00
    4    6   19     -0.73      0.00
   -4    8   18      1.51      0.00
   -4    8   17     -0.77      0.00
   -4    8   16     -2.29      0.00
   -4    8   15      3.06      0.00
   -4    8   14     -1.78      0.00
   -4    8   13     -2.60      0.00
   -4    8   12      0.86      0.00
   -4    8   11      2.36      0.00
   -4    8   10     -0.24      0.00
   -4    8    9      0.69      0.00
   -4    8    8     -0.20      0.00
   -4    8    7     -1.59      0.00
   -4    8    6     -3.30      0.00
   -4    8    5      6.08      0.00
   -4    8    4      1.22      0.00
   -4    8    3    -24.38      0.00
   -4    8    2      1.05      0.00
   -4    8    1     24.40      0.00
    4    8    0      1.84      0.00
    4    8    1     26.27      0.00
    4    8    2    -13.25      0.00
    4    8    3     -3.56      0.00
    4    8    4      7.00      0.00
    4    8    5     -8.70      0.00
    4    8    6      1.09      0.00
    4    8    7     12.75      0.00
    4    8    8     -2.49      0.00
    4    8    9    -12.36      0.00
    4    8   10      0.40      0.00
    4    8   11      5.33      0.00
    4    8   12     -4.14      0.00
    4    8   13     -2.75      0.00
    4    8   14      2.04      0.00
    4    8   15     -0.37      0.00
    4    8   16      0.98      0.00
    4    8   17      1.18      0.00
    4    8   18     -2.22      0.00
   -4   10   18      0.16      0.00
   -4   10   17      1.01      0.00
   -4   10   16     -1.44      0.00
   -4   10   15      0.08      0.00
   -4   10   14     -0.94      0.00
   -4   10   13     -0.72      0.00
   -4   10   12      1.33      0.00
   -4   10   11     -1.33      0.00
   -4   10   10     -1.57      0.00
   -4   10    9      3.07      0.00
   -4   10    8      0.81      0.00
   -4   10    7     -0.97      0.00
   -4   10    6     -3.44      0.00
   -4   10    5      5.96      0.00
   -4   10    4      3.05      0.00
   -4   10    3    -18.78      0.00
   -4   10    2     -7.72      0.00
   -4   10    1     16.17      0.00
    4   10    0      8.41      0.00
    4   10    1     16.99      0.00
    4   10    2     -8.78      0.00
    4   10    3     -2.20      0.00
    4   10    4      3.96      0.00
    4   10    5     -6.85      0.00
    4   10    6      4.25      0.00
    4   10    7      5.76      0.00
    4   10    8     -4.33      0.00
    4   10    9     -5.17      0.00
    4   10   10     -0.99      0.00
    4   10   11      0.85      0.00
    4   10   12     -1.67      0.00
    4   10   13     -0.55      0.00
    4   10   14     -1.37      0.00
    4   10   15      0.70      0.00
    4   10   16      2.32      0.00
    4   10   17      0.45      0.00
    4   10   18     -1.93      0.00
   -4   12   18     -1.61      0.00
   -4   12   17      0.44      0.00
   -4   12   16      1.35      0.00
   -4   12   15     -0.97      0.00
   -4   12   14     -2.21      0.00
   -4   12   13      0.65      0.00
   -4   12   12      3.45      0.00
   -4   12   11     -1.80      0.00
   -4   12   10     -5.22      0.00
   -4   12    9      2.12      0.00
   -4   12    8      2.02      0.00
   -4   12    7     -0.26      0.00
   -4   12    6     -2.92      0.00
   -4   12    5      3.50      0.00
   -4   12    4      3.45      0.00
   -4   12    3     -7.20      0.00
   -4   12    2     -8.86      0.00
   -4   12    1      3.93      0.00
    4   12    0      6.49      0.00
    4   12    1      6.13      0.00
    4   12    2     -3.51      0.00
    4   12    3     -0.56      0.00
    4   12    4      2.53      0.00
    4   12    5     -7.06      0.00
    4   12    6      1.94      0.00
    4   12    7      3.37      0.00
    4   12    8     -0.69      0.00
    4   12    9     -2.26      0.00
    4   12   10     -3.73      0.00
    4   12   11      1.34      0.00
    4   12   12      0.05      0.00
    4   12   13     -2.83      0.00
    4   12   14     -1.47      0.00
    4   12   15      2.92      0.00
    4   12   16      1.13      0.00
    4   12   17      0.94      0.00
    4   12   18     -1.25      0.00
   -4   14   17     -0.55      0.00
   -4   14   16      0.83      0.00
   -4   14   15     -0.28      0.00
   -4   14   14     -2.11      0.00
   -4   14   13      0.01      0.00
   -4   14   12      3.18      0.00
   -4   14   11      1.44      0.00
   -4   14   10     -4.39      0.00
   -4   14    9     -1.39      0.00
   -4   14    8      1.49      0.00
   -4   14    7      0.18      0.00
   -4   14    6     -2.00      0.00
   -4   14    5      1.18      0.00
   -4   14    4      1.39      0.00
   -4   14    3      1.19      0.00
   -4   14    2     -6.01      0.00
   -4   14    1     -2.60      0.00
    4   14    0      3.22      0.00
    4   14    1     -1.21      0.00
    4   14    2     -2.23      0.00
    4   14    3      1.28      0.00
    4   14    4      2.73      0.00
    4   14    5     -8.52      0.00
    4   14    6      1.17      0.00
    4   14    7      6.16      0.00
    4   14    8     -0.22      0.00
    4   14    9     -4.60      0.00
    4   14   10     -3.03      0.00
    4   14   11      3.60      0.00
    4   14   12     -2.07      0.00
    4   14   13     -3.11      0.00
    4   14   14      1.58      0.00
    4   14   15      1.73      0.00
    4   14   16     -0.05      0.00
    4   14   17      2.05      0.00
   -4   16   16     -1.45      0.00
   -4   16   15     -1.40      0.00
   -4   16   14     -0.60      0.00
   -4   16   13     -0.31      0.00
   -4   16   12      0.03      0.00
   -4   16   11      2.52      0.00
   -4   16   10      0.94      0.00
   -4   16    9     -2.37      0.00
   -4   16    8     -1.01      0.00
   -4   16    7      0.86      0.00
   -4   16    6     -0.72      0.00
   -4   16    5     -0.55      0.00
   -4   16    4     -0.44      0.00
   -4   16    3      4.22      0.00
   -4   16    2     -3.76      0.00
   -4   16    1     -3.92      0.00
    4   16    0      0.22      0.00
    4   16    1     -5.26      0.00
    4   16    2     -1.12      0.00
    4   16    3      4.05      0.00
    4   16    4      2.19      0.00
    4   16    5     -8.40      0.00
    4   16    6      1.70      0.00
    4   16    7      6.78      0.00
    4   16    8     -3.31      0.00
    4   16    9     -5.94      0.00
    4   16   10      0.20      0.00
    4   16   11      3.71      0.00
    4   16   12     -3.94      0.00
    4   16   13     -0.16      0.00
    4   16   14      2.72      0.00
    4   16   15     -0.94      0.00
    4   16   16      0.14      0.00
   -4   18   15     -1.90      0.00
   -4   18   14      0.26      0.00
   -4   18   13     -0.76      0.00
   -4   18   12     -2.20      0.00
   -4   18   11      1.19      0.00
   -4   18   10      4.07      0.00
   -4   18    9     -0.50      0.00
   -4   18    8     -3.23      0.00
   -4   18    7      0.65      0.00
   -4   18    6      1.39      0.00
   -4   18    5     -0.92      0.00
   -4   18    4     -0.51      0.00
   -4   18    3      3.48      0.00
   -4   18    2     -4.42      0.00
   -4   18    1     -1.84      0.00
    4   18    0      0.25      0.00
    4   18    1     -3.52      0.00
    4   18    2     -0.43      0.00
    4   18    3      3.31      0.00
    4   18    4      0.57      0.00
    4   18    5     -5.70      0.00
    4   18    6     -0.02      0.00
    4   18    7      4.44      0.00
    4   18    8     -3.42      0.00
    4   18    9     -4.15      0.00
    4   18   10      0.65      0.00
    4   18   11      2.40      0.00
    4   18   12     -2.69      0.00
    4   18   13      1.48      0.00
    4   18   14      1.85      0.00
    4   18   15     -1.64      0.00
   -4   20   14      2.14      0.00
   -4   20   13     -1.75      0.00
   -4   20   12     -3.54      0.00
   -4   20   11      1.20      0.00
   -4   20   10      4.25      0.00
   -4   20    9      0.22      0.00
   -4   20    8     -3.65      0.00
   -4   20    7     -0.26      0.00
   -4   20    6      1.95      0.00
   -4   20    5     -0.24      0.00
   -4   20    4      1.48      0.00
   -4   20    3      1.83      0.00
   -4   20    2     -6.43      0.00
   -4   20    1     -1.15      0.00
    4   20    0      3.05      0.00
    4   20    1     -1.75      0.00
    4   20    2     -2.28      0.00
    4   20    3      0.18      0.00
    4   20    4     -0.23      0.00
    4   20    5     -1.55      0.00
    4   20    6     -2.63      0.00
    4   20    7      3.16      0.00
    4   20    8     -0.95      0.00
    4   20    9     -3.58      0.00
    4   20   10     -1.99      0.00
    4   20   11      2.85      0.00
    4   20   12      0.08      0.00
    4   20   13      0.47      0.00
    4   20   14      0.66      0.00
   -4   22   13     -0.97      0.00
   -4   22   12     -4.04      0.00
   -4   22   11      1.79      0.00
   -4   22   10      4.16      0.00
   -4   22    9     -0.78      0.00
   -4   22    8     -3.36      0.00
   -4   22    7      0.72      0.00
   -4   22    6      1.17      0.00
   -4   22    5     -1.49      0.00
   -4   22    4      2.99      0.00
   -4   22    3      0.73      0.00
   -4   22    2     -5.72      0.00
   -4   22    1     -0.93      0.00
    4   22    0      1.96      0.00
    4   22    1     -0.91      0.00
    4   22    2     -2.37      0.00
    4   22    3     -2.83      0.00
    4   22    4      0.25      0.00
    4   22    5      2.06      0.00
    4   22    6     -3.25      0.00
    4   22    7      2.64      0.00
    4   22    8     -1.73      0.00
    4   22    9     -3.71      0.00
    4   22   10     -2.64      0.00
    4   22   11      4.09      0.00
    4   22   12      1.68      0.00
    4   22   13     -1.63      0.00
   -4   24   12     -1.77      0.00
   -4   24   11      2.17      0.00
   -4   24   10      2.57      0.00
   -4   24    9     -1.33      0.00
   -4   24    8     -2.83      0.00
   -4   24    7      2.17      0.00
   -4   24    6      2.06      0.00
   -4   24    5     -2.42      0.00
   -4   24    4      1.00      0.00
   -4   24    3     -1.49      0.00
   -4   24    2     -2.86      0.00
   -4   24    1      2.47      0.00
    4   24    0     -0.29      0.00
    4   24    1      2.86      0.00
    4   24    2     -2.27      0.00
    4   24    3     -4.80      0.00
    4   24    4      1.54      0.00
    4   24    5      2.85      0.00
    4   24    6     -1.75      0.00
    4   24    7      0.45      0.00
    4   24    8     -4.24      0.00
    4   24    9     -0.81      0.00
    4   24   10     -2.15      0.00
    4   24   11      3.45      0.00
   -4   26   10     -0.71      0.00
   -4   26    9     -1.94      0.00
   -4   26    8     -0.61      0.00
   -4   26    7      1.92      0.00
   -4   26    6      1.63      0.00
   -4   26    5      0.27      0.00
   -4   26    4     -0.32      0.00
   -4   26    3     -4.60      0.00
   -4   26    2     -1.46      0.00
   -4   26    1      4.37      0.00
    4   26    0      0.47      0.00
    4   26    1      3.50      0.00
    4   26    2     -3.49      0.00
    4   26    3     -3.50      0.00
    4   26    4      0.99      0.00
    4   26    5      2.00      0.00
    4   26    6      0.64      0.00
    4   26    7     -2.17      0.00
    4   26    8     -3.59      0.00
    4   26    9      1.19      0.00
    4   26   10     -3.27      0.00
   -4   28    7      2.42      0.00
   -4   28    6     -1.44      0.00
   -4   28    5      1.26      0.00
   -4   28    4      1.92      0.00
   -4   28    3     -4.00      0.00
   -4   28    2     -0.80      0.00
   -4   28    1      1.77      0.00
    4   28    0     -1.18      0.00
    4   28    1     -0.66      0.00
    4   28    2     -1.33      0.00
    4   28    3     -1.73      0.00
    4   28    4     -1.17      0.00
    4   28    5      3.09      0.00
    4   28    6      1.46      0.00
    4   28    7     -3.18      0.00
   -4   30    3     -0.26      0.00
   -4   30    2      1.01      0.00
   -4   30    1      0.04      0.00
    4   30    0     -5.06      0.00
    4   30    1     -2.32      0.00
    4   30    2      1.95      0.00
   -5    1   19     -0.74      0.00
   -5    1   18      1.16      0.00
   -5    1   17      1.46      0.00
   -5    1   16     -3.58      0.00
   -5    1   15     -0.52      0.00
   -5    1   14      2.52      0.00
   -5    1   13      1.94      0.00
   -5    1   12     -4.51      0.00
   -5    1   11     -4.43      0.00
   -5    1   10      7.03      0.00
   -5    1    9      2.79      0.00
   -5    1    8     -2.38      0.00
   -5    1    7     -2.26      0.00
   -5    1    6     18.31      0.00
   -5    1    5      4.16      0.00
   -5    1    4    -64.60      0.00
   -5    1    3     -9.58      0.00
   -5    1    2     99.04      0.00
   -5    1    1     20.42      0.00
    5    1    0   -151.57      0.00
    5    1    1     13.95      0.00
    5    1    2     87.59      0.00
    5    1    3      0.55      0.00
    5    1    4    -21.92      0.00
    5    1    5     -5.83      0.00
    5    1    6      4.61      0.00
    5    1    7      2.17      0.00
    5    1    8     -0.83      0.00
    5    1    9      0.38      0.00
    5    1   10     -2.70      0.00
    5    1   11     -0.76      0.00
    5    1   12      2.29      0.00
    5    1   13      1.61      0.00
    5    1   14     -0.84      0.00
    5    1   15     -1.39      0.00
    5    1   16      0.60      0.00
    5    1   17      0.74      0.00
    5    1   18     -2.58      0.00
    5    1   19      0.76      0.00
   -5    3   19     -1.03      0.00
   -5    3   18     -0.59      0.00
   -5    3   17      3.33      0.00
   -5    3   16     -3.26      0.00
   -5    3   15     -2.40      0.00
   -5    3   14      3.36      0.00
   -5    3   13      4.17      0.00
   -5    3   12     -1.72      0.00
   -5    3   11     -8.69      0.00
   -5    3   10      4.38      0.00
   -5    3    9      6.05      0.00
   -5    3    8     -3.31      0.00
   -5    3    7     -4.88      0.00
   -5    3    6     14.62      0.00
   -5    3    5      7.65      0.00
   -5    3    4    -44.91      0.00
   -5    3    3    -12.61      0.00
   -5    3    2     51.62      0.00
   -5    3    1     27.65      0.00
    5    3    0    -83.31      0.00
    5    3    1     14.32      0.00
    5    3    2     50.30      0.00
    5    3    3      7.76      0.00
    5    3    4    -17.76      0.00
    5    3    5    -13.92      0.00
    5    3    6      8.30      0.00
    5    3    7      3.13      0.00
    5    3    8     -4.28      0.00
    5    3    9      3.19      0.00
    5    3   10     -0.72      0.00
    5    3   11     -3.72      0.00
    5    3   12      0.63      0.00
    5    3   13      6.42      0.00
    5    3   14      0.39      0.00
    5    3   15     -4.15      0.00
    5    3   16      1.14      0.00
    5    3   17      1.43      0.00
    5    3   18     -1.83      0.00
    5    3   19      1.85      0.00
   -5    5   19     -0.07      0.00
   -5    5   18     -1.44      0.00
   -5    5   17      3.48      0.00
   -5    5   16     -1.96      0.00
   -5    5   15     -4.86      0.00
   -5    5   14      3.71      0.00
   -5    5   13      4.03      0.00
   -5    5   12     -1.40      0.00
   -5    5   11     -6.62      0.00
   -5    5   10      2.85      0.00
   -5    5    9      5.89      0.00
   -5    5    8     -4.13      0.00
   -5    5    7     -3.62      0.00
   -5    5    6      9.71      0.00
   -5    5    5      3.63      0.00
   -5    5    4    -24.47      0.00
   -5    5    3      2.42      0.00
   -5    5    2     15.06      0.00
   -5    5    1     -5.23      0.00
    5    5    0    -27.40      0.00
    5    5    1    -17.88      0.00
    5    5    2     20.21      0.00
    5    5    3     19.04      0.00
    5    5    4    -14.46      0.00
    5    5    5    -13.79      0.00
    5    5    6      9.33      0.00
    5    5    7     -1.14      0.00
    5    5    8     -4.34      0.00
    5    5    9      7.35      0.00
    5    5   10     -1.18      0.00
    5    5   11     -5.69      0.00
    5    5   12      2.34      0.00
    5    5   13      9.47      0.00
    5    5   14     -1.29      0.00
    5    5   15     -4.45      0.00
    5    5   16      1.99      0.00
    5    5   17      0.37      0.00
    5    5   18     -0.72      0.00
    5    5   19      2.17      0.00
   -5    7   19      0.25      0.00
   -5    7   18     -1.20      0.00
   -5    7   17      2.39      0.00
   -5    7   16      0.26      0.00
   -5    7   15     -5.41      0.00
   -5    7   14      2.80      0.00
   -5    7   13      3.73      0.00
   -5    7   12     -3.56      0.00
   -5    7   11     -3.88      0.00
   -5    7   10      2.20      0.00
   -5    7    9      4.58      0.00
   -5    7    8     -4.56      0.00
   -5    7    7     -1.38      0.00
   -5    7    6      7.46      0.00
   -5    7    5     -2.24      0.00
   -5    7    4    -11.90      0.00
   -5    7    3     12.26      0.00
   -5    7    2      7.88      0.00
   -5    7    1    -26.29      0.00
    5    7    0    -14.34      0.00
    5    7    1    -35.22      0.00
    5    7    2     13.94      0.00
    5    7    3     18.10      0.00
    5    7    4    -11.35      0.00
    5    7    5     -5.95      0.00
    5    7    6      3.42      0.00
    5    7    7     -5.25      0.00
    5    7    8      1.07      0.00
    5    7    9      7.73      0.00
    5    7   10     -2.86      0.00
    5    7   11     -2.57      0.00
    5    7   12      4.22      0.00
    5    7   13      5.48      0.00
    5    7   14     -2.93      0.00
    5    7   15     -1.16      0.00
    5    7   16      1.25      0.00
    5    7   17     -1.23      0.00
    5    7   18      0.41      0.00
    5    7   19      2.19      0.00
   -5    9   18     -1.20      0.00
   -5    9   17      0.08      0.00
   -5    9   16      1.55      0.00
   -5    9   15     -3.07      0.00
   -5    9   14      1.15      0.00
   -5    9   13      3.40      0.00
   -5    9   12     -3.88      0.00
   -5    9   11     -1.81      0.00
   -5    9   10      1.12      0.00
   -5    9    9      2.95      0.00
   -5    9    8     -4.58      0.00
   -5    9    7     -3.00      0.00
   -5    9    6      7.91      0.00
   -5    9    5     -3.67      0.00
   -5    9    4     -6.49      0.00
   -5    9    3     11.32      0.00
   -5    9    2      9.57      0.00
   -5    9    1    -21.15      0.00
    5    9    0    -12.10      0.00
    5    9    1    -24.84      0.00
    5    9    2      9.64      0.00
    5    9    3      6.38      0.00
    5    9    4     -2.19      0.00
    5    9    5      2.19      0.00
    5    9    6     -6.19      0.00
    5    9    7     -3.96      0.00
    5    9    8      5.44      0.00
    5    9    9      3.34      0.00
    5    9   10     -1.61      0.00
    5    9   11      1.86      0.00
    5    9   12      1.57      0.00
    5    9   13     -0.11      0.00
    5    9   14     -0.53      0.00
    5    9   15      0.93      0.00
    5    9   16     -1.03      0.00
    5    9   17     -1.22      0.00
    5    9   18      1.38      0.00
   -5   11   18     -0.64      0.00
   -5   11   17     -2.28      0.00
   -5   11   16      0.27      0.00
   -5   11   15     -0.21      0.00
   -5   11   14      0.46      0.00
   -5   11   13      1.56      0.00
   -5   11   12     -2.43      0.00
   -5   11   11      0.89      0.00
   -5   11   10      1.24      0.00
   -5   11    9      1.33      0.00
   -5   11    8     -3.56      0.00
   -5   11    7     -6.41      0.00
   -5   11    6      5.97      0.00
   -5   11    5      0.21      0.00
   -5   11    4     -4.32      0.00
   -5   11    3      3.66      0.00
   -5   11    2      9.31      0.00
   -5   11    1     -8.57      0.00
    5   11    0     -5.23      0.00
    5   11    1    -10.92      0.00
    5   11    2      1.00      0.00
    5   11    3      0.71      0.00
    5   11    4      7.43      0.00
    5   11    5      3.38      0.00
    5   11    6    -10.49      0.00
    5   11    7     -0.08      0.00
    5   11    8      2.30      0.00
    5   11    9     -0.02      0.00
    5   11   10      2.61      0.00
    5   11   11      2.15      0.00
    5   11   12     -1.61      0.00
    5   11   13     -0.88      0.00
    5   11   14      1.56      0.00
    5   11   15     -0.57      0.00
    5   11   16     -1.88      0.00
    5   11   17      0.16      0.00
    5   11   18      2.13      0.00
   -5   13   17     -2.29      0.00
   -5   13   16     -1.61      0.00
   -5   13   15      0.14      0.00
   -5   13   14      0.89      0.00
   -5   13   13     -0.29      0.00
   -5   13   12     -1.49      0.00
   -5   13   11      2.56      0.00
   -5   13   10      1.66      0.00
   -5   13    9      0.27      0.00
   -5   13    8     -1.63      0.00
   -5   13    7     -5.53      0.00
   -5   13    6      1.82      0.00
   -5   13    5      2.37      0.00
   -5   13    4     -0.33      0.00
   -5   13    3     -3.97      0.00
   -5   13    2      4.08      0.00
   -5   13    1      1.27      0.00
    5   13    0      0.81      0.00
    5   13    1     -1.55      0.00
    5   13    2     -1.64      0.00
    5   13    3      0.46      0.00
    5   13    4      7.26      0.00
    5   13    5      2.34      0.00
    5   13    6     -6.60      0.00
    5   13    7     -1.50      0.00
    5   13    8     -3.68      0.00
    5   13    9      3.77      0.00
    5   13   10      4.83      0.00
    5   13   11     -1.73      0.00
    5   13   12     -0.64      0.00
    5   13   13      0.12      0.00
    5   13   14     -0.10      0.00
    5   13   15     -1.20      0.00
    5   13   16     -0.68      0.00
    5   13   17      0.78      0.00
   -5   15   17     -0.22      0.00
   -5   15   16     -0.58      0.00
   -5   15   15     -1.15      0.00
   -5   15   14     -0.01      0.00
   -5   15   13     -0.08      0.00
   -5   15   12     -0.40      0.00
   -5   15   11      2.34      0.00
   -5   15   10      0.30      0.00
   -5   15    9     -1.31      0.00
   -5   15    8     -0.27      0.00
   -5   15    7     -1.60      0.00
   -5   15    6      1.06      0.00
   -5   15    5      1.06      0.00
   -5   15    4      1.44      0.00
   -5   15    3     -4.19      0.00
   -5   15    2     -2.07      0.00
   -5   15    1      4.04      0.00
    5   15    0      5.04      0.00
    5   15    1      5.29      0.00
    5   15    2     -2.10      0.00
    5   15    3     -2.16      0.00
    5   15    4      3.07      0.00
    5   15    5      4.83      0.00
    5   15    6     -2.58      0.00
    5   15    7     -6.59      0.00
    5   15    8     -2.62      0.00
    5   15    9      9.31      0.00
    5   15   10      0.63      0.00
    5   15   11     -4.53      0.00
    5   15   12      2.74      0.00
    5   15   13     -1.11      0.00
    5   15   14     -1.76      0.00
    5   15   15      1.17      0.00
    5   15   16      0.21      0.00
   -5   17   16      2.22      0.00
   -5   17   15     -0.79      0.00
   -5   17   14     -2.22      0.00
   -5   17   13      1.04      0.00
   -5   17   12      1.71      0.00
   -5   17   11      0.93      0.00
   -5   17   10     -0.99      0.00
   -5   17    9     -2.79      0.00
   -5   17    8     -0.57      0.00
   -5   17    7      0.12      0.00
   -5   17    6      1.63      0.00
   -5   17    5      2.29      0.00
   -5   17    4     -0.57      0.00
   -5   17    3     -2.10      0.00
   -5   17    2     -2.30      0.00
   -5   17    1      2.05      0.00
    5   17    0      5.15      0.00
    5   17    1      5.96      0.00
    5   17    2     -3.70      0.00
    5   17    3     -2.29      0.00
    5   17    4      2.23      0.00
    5   17    5      6.12      0.00
    5   17    6     -2.37      0.00
    5   17    7     -6.45      0.00
    5   17    8      2.09      0.00
    5   17    9      6.58      0.00
    5   17   10     -3.64      0.00
    5   17   11     -1.98      0.00
    5   17   12      3.28      0.00
    5   17   13     -2.92      0.00
    5   17   14     -0.47      0.00
    5   17   15      3.16      0.00
    5   17   16      0.12      0.00
   -5   19   15      0.49      0.00
   -5   19   14     -2.65      0.00
   -5   19   13      1.36      0.00
   -5   19   12      3.68      0.00
   -5   19   11     -0.78      0.00
   -5   19   10     -1.54      0.00
   -5   19    9     -1.52      0.00
   -5   19    8     -1.33      0.00
   -5   19    7     -0.23      0.00
   -5   19    6     -0.67      0.00
   -5   19    5      3.62      0.00
   -5   19    4     -0.04      0.00
   -5   19    3     -1.65      0.00
   -5   19    2     -1.01      0.00
   -5   19    1      1.97      0.00
    5   19    0      1.45      0.00
    5   19    1      4.63      0.00
    5   19    2     -1.88      0.00
    5   19    3      0.14      0.00
    5   19    4      1.91      0.00
    5   19    5      3.98      0.00
    5   19    6     -2.29      0.00
    5   19    7     -2.56      0.00
    5   19    8      1.65      0.00
    5   19    9      1.13      0.00
    5   19   10     -0.43      0.00
    5   19   11      0.49      0.00
    5   19   12     -0.50      0.00
    5   19   13     -1.51      0.00
    5   19   14      1.92      0.00
    5   19   15      2.36      0.00
   -5   21   14     -0.95      0.00
   -5   21   13      0.83      0.00
   -5   21   12      3.22      0.00
   -5   21   11     -0.52      0.00
   -5   21   10     -2.41      0.00
   -5   21    9      0.78      0.00
   -5   21    8     -0.64      0.00
   -5   21    7     -0.77      0.00
   -5   21    6     -2.35      0.00
   -5   21    5      1.47      0.00
   -5   21    4      1.28      0.00
   -5   21    3      0.54      0.00
   -5   21    2     -1.95      0.00
   -5   21    1      2.19      0.00
    5   21    0      0.70      0.00
    5   21    1      4.77      0.00
    5   21    2     -1.19      0.00
    5   21    3      0.82      0.00
    5   21    4      2.11      0.00
    5   21    5      1.40      0.00
    5   21    6     -2.23      0.00
    5   21    7     -1.09      0.00
    5   21    8      0.82      0.00
    5   21    9      1.89      0.00
    5   21   10      2.55      0.00
    5   21   11     -2.28      0.00
    5   21   12     -2.37      0.00
    5   21   13      2.90      0.00
    5   21   14      2.33      0.00
   -5   23   12     -0.66      0.00
   -5   23   11      0.81      0.00
   -5   23   10     -1.69      0.00
   -5   23    9      0.99      0.00
   -5   23    8      0.85      0.00
   -5   23    7     -1.45      0.00
   -5   23    6     -2.03      0.00
   -5   23    5      0.29      0.00
   -5   23    4      1.24      0.00
   -5   23    3      2.30      0.00
   -5   23    2     -2.77      0.00
   -5   23    1     -0.41      0.00
    5   23    0      2.25      0.00
    5   23    1      0.48      0.00
    5   23    2     -3.02      0.00
    5   23    3      3.87      0.00
    5   23    4      2.92      0.00
    5   23    5     -1.46      0.00
    5   23    6     -2.77      0.00
    5   23    7      0.16      0.00
    5   23    8      4.07      0.00
    5   23    9      2.48      0.00
    5   23   10     -0.63      0.00
    5   23   11     -3.60      0.00
    5   23   12      0.36      0.00
   -5   25   11     -0.61      0.00
   -5   25   10      0.27      0.00
   -5   25    9      0.67      0.00
   -5   25    8      1.20      0.00
   -5   25    7     -1.46      0.00
   -5   25    6     -1.55      0.00
   -5   25    5     -0.75      0.00
   -5   25    4      2.56      0.00
   -5   25    3      3.54      0.00
   -5   25    2     -3.26      0.00
   -5   25    1     -3.04      0.00
    5   25    0      0.58      0.00
    5   25    1     -4.81      0.00
    5   25    2     -0.25      0.00
    5   25    3      7.96      0.00
    5   25    4      1.20      0.00
    5   25    5     -3.93      0.00
    5   25    6     -1.84      0.00
    5   25    7      2.82      0.00
    5   25    8      4.61      0.00
    5   25    9     -0.71      0.00
    5   25   10     -1.68      0.00
   -5   27    8      0.85      0.00
   -5   27    7     -1.11      0.00
   -5   27    6      0.69      0.00
   -5   27    5     -3.31      0.00
   -5   27    4      1.06      0.00
   -5   27    3      5.65      0.00
   -5   27    2     -2.05      0.00
   -5   27    1     -2.48      0.00
    5   27    0     -1.36      0.00
    5   27    1     -2.60      0.00
    5   27    2      3.39      0.00
    5   27    3      7.01      0.00
    5   27    4     -1.00      0.00
    5   27    5     -5.01      0.00
    5   27    6      0.08      0.00
    5   27    7      4.00      0.00
    5   27    8      1.30      0.00
   -5   29    5     -2.34      0.00
   -5   29    4     -2.94      0.00
   -5   29    3      3.59      0.00
   -5   29    2     -0.05      0.00
   -5   29    1      0.18      0.00
    5   29    0      1.03      0.00
    5   29    1      2.08      0.00
    5   29    2      1.41      0.00
    5   29    3      3.91      0.00
    5   29    4     -1.56      0.00
    5   29    5     -4.99      0.00
   -6    0   18     -2.05      0.00
   -6    0   16      7.56      0.00
   -6    0   14     -3.61      0.00
   -6    0   12      7.13      0.00
   -6    0   10     -2.67      0.00
   -6    0    8    -12.93      0.00
   -6    0    6     18.80      0.00
   -6    0    4    -21.48      0.00
   -6    0    2     27.93      0.00
    6    0    0     41.84      0.00
    6    0    2    -23.29      0.00
    6    0    4      8.31      0.00
    6    0    6     -5.42      0.00
    6    0    8      3.78      0.00
    6    0   10      0.96      0.00
    6    0   12     -1.36      0.00
    6    0   14     -0.53      0.00
    6    0   16     -2.28      0.00
    6    0   18      2.95      0.00
   -6    2   19      0.41      0.00
   -6    2   18     -1.31      0.00
   -6    2   17     -1.68      0.00
   -6    2   16      6.94      0.00
   -6    2   15      1.31      0.00
   -6    2   14     -3.68      0.00
   -6    2   13     -2.51      0.00
   -6    2   12      4.45      0.00
   -6    2   11      6.51      0.00
   -6    2   10     -0.79      0.00
   -6    2    9     -1.13      0.00
   -6    2    8     -7.18      0.00
   -6    2    7     -5.35      0.00
   -6    2    6     10.07      0.00
   -6    2    5      2.64      0.00
   -6    2    4    -11.81      0.00
   -6    2    3     -1.49      0.00
   -6    2    2     20.60      0.00
   -6    2    1      0.72      0.00
    6    2    0     33.60      0.00
    6    2    1     -4.35      0.00
    6    2    2    -14.74      0.00
    6    2    3     -9.54      0.00
    6    2    4      6.82      0.00
    6    2    5     11.68      0.00
    6    2    6     -4.83      0.00
    6    2    7     -1.13      0.00
    6    2    8      2.53      0.00
    6    2    9     -0.73      0.00
    6    2   10      2.17      0.00
    6    2   11      1.83      0.00
    6    2   12     -2.20      0.00
    6    2   13     -3.32      0.00
    6    2   14     -0.92      0.00
    6    2   15      1.05      0.00
    6    2   16     -1.71      0.00
    6    2   17     -0.49      0.00
    6    2   18      2.45      0.00
    6    2   19     -1.21      0.00
   -6    4   19     -0.29      0.00
   -6    4   18     -0.72      0.00
   -6    4   17     -2.15      0.00
   -6    4   16      5.28      0.00
   -6    4   15      3.21      0.00
   -6    4   14     -2.77      0.00
   -6    4   13     -3.40      0.00
   -6    4   12      0.29      0.00
   -6    4   11      6.33      0.00
   -6    4   10      1.51      0.00
   -6    4    9     -3.15      0.00
   -6    4    8      2.04      0.00
   -6    4    7     -1.93      0.00
   -6    4    6     -1.57      0.00
   -6    4    5     -2.17      0.00
   -6    4    4      1.21      0.00
   -6    4    3      4.07      0.00
   -6    4    2      5.84      0.00
   -6    4    1      5.70      0.00
    6    4    0     23.80      0.00
    6    4    1      6.55      0.00
    6    4    2     -7.48      0.00
    6    4    3    -21.43      0.00
    6    4    4      9.00      0.00
    6    4    5     19.09      0.00
    6    4    6     -5.38      0.00
    6    4    7     -3.29      0.00
    6    4    8      0.62      0.00
    6    4    9      0.74      0.00
    6    4   10      4.00      0.00
    6    4   11      1.10      0.00
    6    4   12     -3.89      0.00
    6    4   13     -5.69      0.00
    6    4   14      0.04      0.00
    6    4   15      3.04      0.00
    6    4   16     -1.58      0.00
    6    4   17     -0.68      0.00
    6    4   18      1.56      0.00
    6    4   19     -1.59      0.00
   -6    6   19     -0.49      0.00
   -6    6   18     -1.22      0.00
   -6    6   17     -1.78      0.00
   -6    6   16      3.65      0.00
   -6    6   15      3.46      0.00
   -6    6   14     -1.87      0.00
   -6    6   13     -1.75      0.00
   -6    6   12      0.99      0.00
   -6    6   11      2.33      0.00
   -6    6   10     -0.16      0.00
   -6    6    9     -4.64      0.00
   -6    6    8      6.61      0.00
   -6    6    7      1.34      0.00
   -6    6    6     -4.58      0.00
   -6    6    5     -1.19      0.00
   -6    6    4      2.89      0.00
   -6    6    3      6.37      0.00
   -6    6    2     -3.12      0.00
   -6    6    1      8.10      0.00
    6    6    0     22.08      0.00
    6    6    1     12.38      0.00
    6    6    2    -12.77      0.00
    6    6    3    -18.51      0.00
    6    6    4     13.53      0.00
    6    6    5     14.02      0.00
    6    6    6     -6.02      0.00
    6    6    7     -3.19      0.00
    6    6    8      0.10      0.00
    6    6    9      2.54      0.00
    6    6   10      3.63      0.00
    6    6   11     -1.16      0.00
    6    6   12     -3.56      0.00
    6    6   13     -4.56      0.00
    6    6   14      1.81      0.00
    6    6   15      2.56      0.00
    6    6   16     -1.36      0.00
    6    6   17      0.35      0.00
    6    6   18      0.22      0.00
    6    6   19     -1.59      0.00
   -6    8   18     -0.97      0.00
   -6    8   17     -0.78      0.00
   -6    8   16      2.73      0.00
   -6    8   15      2.27      0.00
   -6    8   14     -2.72      0.00
   -6    8   13     -0.78      0.00
   -6    8   12      5.08      0.00
   -6    8   11      1.17      0.00
   -6    8   10     -3.22      0.00
   -6    8    9     -5.67      0.00
   -6    8    8      7.91      0.00
   -6    8    7      2.30      0.00
   -6    8    6     -7.59      0.00
   -6    8    5      4.83      0.00
   -6    8    4      5.12      0.00
   -6    8    3      0.51      0.00
   -6    8    2     -7.20      0.00
   -6    8    1      7.65      0.00
    6    8    0     17.59      0.00
    6    8    1      5.24      0.00
    6    8    2    -11.68      0.00
    6    8    3     -2.98      0.00
    6    8    4      6.05      0.00
    6    8    5      2.24      0.00
    6    8    6     -0.49      0.00
    6    8    7     -0.22      0.00
    6    8    8     -0.73      0.00
    6    8    9      2.19      0.00
    6    8   10      2.12      0.00
    6    8   11     -1.80      0.00
    6    8   12     -0.54      0.00
    6    8   13     -1.89      0.00
    6    8   14      0.90      0.00
    6    8   15      0.91      0.00
    6    8   16      0.93      0.00
    6    8   17      0.33      0.00
    6    8   18     -1.90      0.00
   -6   10   18      0.01      0.00
   -6   10   17      1.25      0.00
   -6   10   16      1.95      0.00
   -6   10   15      1.15      0.00
   -6   10   14     -2.67      0.00
   -6   10   13     -1.42      0.00
   -6   10   12      5.45      0.00
   -6   10   11      1.77      0.00
   -6   10   10     -2.82      0.00
   -6   10    9     -5.32      0.00
   -6   10    8      5.98      0.00
   -6   10    7      5.71      0.00
   -6   10    6     -8.69      0.00
   -6   10    5      0.67      0.00
   -6   10    4     10.32      0.00
   -6   10    3      2.01      0.00
   -6   10    2    -12.04      0.00
   -6   10    1      3.01      0.00
    6   10    0     10.24      0.00
    6   10    1     -0.70      0.00
    6   10    2     -2.13      0.00
    6   10    3      3.63      0.00
    6   10    4     -8.33      0.00
    6   10    5     -1.37      0.00
    6   10    6      8.03      0.00
    6   10    7      0.68      0.00
    6   10    8     -1.72      0.00
    6   10    9      1.44      0.00
    6   10   10      0.99      0.00
    6   10   11     -1.35      0.00
    6   10   12      1.68      0.00
    6   10   13     -0.33      0.00
    6   10   14     -0.15      0.00
    6   10   15      1.00      0.00
    6   10   16      2.05      0.00
    6   10   17     -1.91      0.00
    6   10   18     -3.10      0.00
   -6   12   17      2.59      0.00
   -6   12   16      1.57      0.00
   -6   12   15      0.25      0.00
   -6   12   14     -1.12      0.00
   -6   12   13     -0.41      0.00
   -6   12   12      2.54      0.00
   -6   12   11     -0.46      0.00
   -6   12   10     -1.02      0.00
   -6   12    9     -1.97      0.00
   -6   12    8      2.37      0.00
   -6   12    7      6.21      0.00
   -6   12    6     -2.31      0.00
   -6   12    5     -5.95      0.00
   -6   12    4      5.04      0.00
   -6   12    3     10.66      0.00
   -6   12    2     -7.21      0.00
   -6   12    1     -6.68      0.00
    6   12    0      2.80      0.00
    6   12    1     -3.71      0.00
    6   12    2      2.06      0.00
    6   12    3      1.47      0.00
    6   12    4    -12.48      0.00
    6   12    5      1.89      0.00
    6   12    6      9.43      0.00
    6   12    7     -0.34      0.00
    6   12    8      0.76      0.00
    6   12    9     -0.07      0.00
    6   12   10     -1.24      0.00
    6   12   11     -0.60      0.00
    6   12   12      2.16      0.00
    6   12   13      1.23      0.00
    6   12   14      0.83      0.00
    6   12   15      0.26      0.00
    6   12   16      0.37      0.00
    6   12   17     -3.03      0.00
   -6   14   17      0.97      0.00
   -6   14   16      1.09      0.00
   -6   14   15      1.00      0.00
   -6   14   14      0.03      0.00
   -6   14   13      0.70      0.00
   -6   14   12      1.58      0.00
   -6   14   11     -3.09      0.00
   -6   14   10     -1.55      0.00
   -6   14    9      1.62      0.00
   -6   14    8      1.17      0.00
   -6   14    7      2.02      0.00
   -6   14    6      1.66      0.00
   -6   14    5     -2.64      0.00
   -6   14    4     -2.43      0.00
   -6   14    3      7.51      0.00
   -6   14    2      4.66      0.00
   -6   14    1     -8.15      0.00
    6   14    0     -4.52      0.00
    6   14    1     -5.26      0.00
    6   14    2      1.94      0.00
    6   14    3      1.32      0.00
    6   14    4     -7.88      0.00
    6   14    5      2.13      0.00
    6   14    6      4.73      0.00
    6   14    7      1.15      0.00
    6   14    8      3.57      0.00
    6   14    9     -4.33      0.00
    6   14   10     -1.60      0.00
    6   14   11      1.96      0.00
    6   14   12      1.43      0.00
    6   14   13      1.99      0.00
    6   14   14      1.04      0.00
    6   14   15     -1.53      0.00
    6   14   16     -0.72      0.00
    6   14   17     -2.00      0.00
   -6   16   16     -1.33      0.00
   -6   16   15      2.25      0.00
   -6   16   14      2.38      0.00
   -6   16   13     -0.52      0.00
   -6   16   12      0.93      0.00
   -6   16   11     -1.96      0.00
   -6   16   10     -2.67      0.00
   -6   16    9      2.67      0.00
   -6   16    8      1.68      0.00
   -6   16    7     -0.27      0.00
   -6   16    6     -0.41      0.00
   -6   16    5     -0.08      0.00
   -6   16    4      0.79      0.00
   -6   16    3     -0.47      0.00
   -6   16    2      5.15      0.00
   -6   16    1     -2.25      0.00
    6   16    0     -3.64      0.00
    6   16    1     -3.82      0.00
    6   16    2      0.76      0.00
    6   16    3      1.26      0.00
    6   16    4     -3.19      0.00
    6   16    5     -0.05      0.00
    6   16    6      1.41      0.00
    6   16    7      2.76      0.00
    6   16    8      2.10      0.00
    6   16    9     -5.43      0.00
    6   16   10      2.32      0.00
    6   16   11      2.48      0.00
    6   16   12     -0.83      0.00
    6   16   13      1.37      0.00
    6   16   14      0.20      0.00
    6   16   15     -1.68      0.00
    6   16   16     -0.65      0.00
   -6   18   15      0.26      0.00
   -6   18   14      4.67      0.00
   -6   18   13     -0.44      0.00
   -6   18   12     -2.03      0.00
   -6   18   11      0.38      0.00
   -6   18   10     -1.81      0.00
   -6   18    9      1.61      0.00
   -6   18    8      2.21      0.00
   -6   18    7      0.29      0.00
   -6   18    6     -0.17      0.00
   -6   18    5     -3.48      0.00
   -6   18    4      2.40      0.00
   -6   18    3      0.98      0.00
   -6   18    2      1.33      0.00
   -6   18    1     -3.16      0.00
    6   18    0      1.61      0.00
    6   18    1     -4.72      0.00
    6   18    2     -1.93      0.00
    6   18    3      0.78      0.00
    6   18    4      0.85      0.00
    6   18    5     -1.64      0.00
    6   18    6      0.48      0.00
    6   18    7      1.58      0.00
    6   18    8      0.87      0.00
    6   18    9     -1.08      0.00
    6   18   10      3.21      0.00
    6   18   11     -1.14      0.00
    6   18   12     -1.01      0.00
    6   18   13      1.13      0.00
    6   18   14     -1.00      0.00
    6   18   15     -0.92      0.00
   -6   20   14      2.33      0.00
   -6   20   13      1.56      0.00
   -6   20   12     -3.15      0.00
   -6   20   11     -0.41      0.00
   -6   20   10     -0.10      0.00
   -6   20    9     -0.10      0.00
   -6   20    8      2.50      0.00
   -6   20    7      1.05      0.00
   -6   20    6      2.32      0.00
   -6   20    5     -2.45      0.00
   -6   20    4     -2.87      0.00
   -6   20    3      0.92      0.00
   -6   20    2      4.76      0.00
   -6   20    1     -4.31      0.00
    6   20    0      0.16      0.00
    6   20    1     -6.04      0.00
    6   20    2     -1.11      0.00
    6   20    3      1.79      0.00
    6   20    4      2.48      0.00
    6   20    5     -2.89      0.00
    6   20    6      0.40      0.00
    6   20    7      0.54      0.00
    6   20    8      2.22      0.00
    6   20    9      0.23      0.00
    6   20   10     -0.25      0.00
    6   20   11     -1.67      0.00
    6   20   12      1.47      0.00
    6   20   13     -0.55      0.00
    6   20   14     -2.37      0.00
   -6   22   13      1.04      0.00
   -6   22   12      0.30      0.00
   -6   22   11     -2.64      0.00
   -6   22   10     -0.76      0.00
   -6   22    9     -0.55      0.00
   -6   22    8      2.03      0.00
   -6   22    7      1.17      0.00
   -6   22    6      2.09      0.00
   -6   22    5      2.20      0.00
   -6   22    4     -3.48      0.00
   -6   22    3     -3.50      0.00
   -6   22    2      5.26      0.00
   -6   22    1      0.63      0.00
    6   22    0     -1.91      0.00
    6   22    1     -1.07      0.00
    6   22    2      2.11      0.00
    6   22    3     -0.29      0.00
    6   22    4      1.25      0.00
    6   22    5     -2.31      0.00
    6   22    6      0.09      0.00
    6   22    7      0.56      0.00
    6   22    8      2.39      0.00
    6   22    9     -2.31      0.00
    6   22   10      0.12      0.00
    6   22   11      1.26      0.00
    6   22   12      0.43      0.00
    6   22   13     -3.20      0.00
   -6   24   11     -1.53      0.00
   -6   24   10     -3.23      0.00
   -6   24    9     -0.75      0.00
   -6   24    8      2.01      0.00
   -6   24    7      0.39      0.00
   -6   24    6      0.08      0.00
   -6   24    5      3.77      0.00
   -6   24    4     -1.27      0.00
   -6   24    3     -2.83      0.00
   -6   24    2      2.32      0.00
   -6   24    1      2.33      0.00
    6   24    0      0.76      0.00
    6   24    1      4.47      0.00
    6   24    2      0.97      0.00
    6   24    3     -4.92      0.00
    6   24    4      0.98      0.00
    6   24    5     -0.30      0.00
    6   24    6     -1.06      0.00
    6   24    7      0.58      0.00
    6   24    8      1.97      0.00
    6   24    9     -2.35      0.00
    6   24   10      2.67      0.00
    6   24   11      0.38      0.00
   -6   26    9     -2.46      0.00
   -6   26    8      1.93      0.00
   -6   26    7      0.29      0.00
   -6   26    6     -2.01      0.00
   -6   26    5      4.36      0.00
   -6   26    4     -1.12      0.00
   -6   26    3     -2.51      0.00
   -6   26    2      2.53      0.00
   -6   26    1      1.49      0.00
    6   26    0      2.30      0.00
    6   26    1      4.33      0.00
    6   26    2     -2.01      0.00
    6   26    3     -6.12      0.00
    6   26    4      1.32      0.00
    6   26    5      1.50      0.00
    6   26    6     -1.17      0.00
    6   26    7      0.19      0.00
    6   26    8      2.23      0.00
    6   26    9     -0.83      0.00
   -6   28    7      1.29      0.00
   -6   28    6     -3.06      0.00
   -6   28    5      3.98      0.00
   -6   28    4      1.36      0.00
   -6   28    3     -4.52      0.00
   -6   28    2      0.49      0.00
   -6   28    1      2.07      0.00
    6   28    0      1.96      0.00
    6   28    1      1.86      0.00
    6   28    2     -1.74      0.00
    6   28    3     -4.47      0.00
    6   28    4      0.85      0.00
    6   28    5      3.41      0.00
    6   28    6     -0.85      0.00
    6   28    7     -1.49      0.00
   -6   30    1      0.33      0.00
    6   30    0      1.22      0.00
   -7    1   19     -0.20      0.00
   -7    1   18      2.24      0.00
   -7    1   17     -0.12      0.00
   -7    1   16     -2.48      0.00
   -7    1   15      0.24      0.00
   -7    1   14     -1.77      0.00
   -7    1   13      0.49      0.00
   -7    1   12     -2.51      0.00
   -7    1   11     -2.48      0.00
   -7    1   10      2.06      0.00
   -7    1    9      0.94      0.00
   -7    1    8      0.98      0.00
   -7    1    7      3.81      0.00
   -7    1    6     -5.83      0.00
   -7    1    5     -2.81      0.00
   -7    1    4     20.37      0.00
   -7    1    3      0.34      0.00
   -7    1    2    -30.22      0.00
   -7    1    1     -5.00      0.00
    7    1    0     22.85      0.00
    7    1    1     -2.37      0.00
    7    1    2    -18.66      0.00
    7    1    3      3.71      0.00
    7    1    4      1.39      0.00
    7    1    5     -2.59      0.00
    7    1    6      2.46      0.00
    7    1    7     -0.20      0.00
    7    1    8     -2.69      0.00
    7    1    9     -0.03      0.00
    7    1   10     -0.38      0.00
    7    1   11     -0.83      0.00
    7    1   12     -0.44      0.00
    7    1   13      0.75      0.00
    7    1   14      2.20      0.00
    7    1   15      0.20      0.00
    7    1   16      1.00      0.00
    7    1   17     -0.14      0.00
    7    1   18     -1.11      0.00
    7    1   19     -0.36      0.00
   -7    3   19      0.00      0.00
   -7    3   18      2.26      0.00
   -7    3   17     -0.33      0.00
   -7    3   16     -2.98      0.00
   -7    3   15      0.08      0.00
   -7    3   14     -1.09      0.00
   -7    3   13      1.87      0.00
   -7    3   12     -0.14      0.00
   -7    3   11     -4.91      0.00
   -7    3   10     -1.54      0.00
   -7    3    9      2.25      0.00
   -7    3    8     -2.55      0.00
   -7    3    7      4.79      0.00
   -7    3    6      2.63      0.00
   -7    3    5      0.46      0.00
   -7    3    4      8.24      0.00
   -7    3    3    -10.45      0.00
   -7    3    2     -8.10      0.00
   -7    3    1     -0.13      0.00
    7    3    0     -0.34      0.00
    7    3    1      0.13      0.00
    7    3    2     -5.64      0.00
    7    3    3      9.30      0.00
    7    3    4     -2.88      0.00
    7    3    5     -7.23      0.00
    7    3    6      2.36      0.00
    7    3    7      0.66      0.00
    7    3    8     -0.60      0.00
    7    3    9     -1.24      0.00
    7    3   10     -2.00      0.00
    7    3   11     -1.36      0.00
    7    3   12      1.63      0.00
    7    3   13      1.66      0.00
    7    3   14      0.54      0.00
    7    3   15     -0.52      0.00
    7    3   16      0.77      0.00
    7    3   17      0.14      0.00
    7    3   18     -1.38      0.00
    7    3   19     -0.90      0.00
   -7    5   19      0.32      0.00
   -7    5   18      2.55      0.00
   -7    5   17      0.00      0.00
   -7    5   16     -3.34      0.00
   -7    5   15      0.20      0.00
   -7    5   14     -1.34      0.00
   -7    5   13      1.41      0.00
   -7    5   12      2.10      0.00
   -7    5   11     -2.74      0.00
   -7    5   10     -2.28      0.00
   -7    5    9      2.22      0.00
   -7    5    8     -5.48      0.00
   -7    5    7      0.34      0.00
   -7    5    6      4.01      0.00
   -7    5    5      5.60      0.00
   -7    5    4      8.06      0.00
   -7    5    3    -21.74      0.00
   -7    5    2     -2.15      0.00
   -7    5    1     15.54      0.00
    7    5    0    -13.45      0.00
    7    5    1     12.98      0.00
    7    5    2      8.82      0.00
    7    5    3      4.19      0.00
    7    5    4    -10.20      0.00
    7    5    5     -4.94      0.00
    7    5    6      4.29      0.00
    7    5    7      1.76      0.00
    7    5    8      0.08      0.00
    7    5    9     -3.78      0.00
    7    5   10     -3.00      0.00
    7    5   11     -0.46      0.00
    7    5   12      3.04      0.00
    7    5   13      0.73      0.00
    7    5   14     -2.11      0.00
    7    5   15     -0.47      0.00
    7    5   16      1.38      0.00
    7    5   17     -0.66      0.00
    7    5   18     -1.48      0.00
    7    5   19     -0.41      0.00
   -7    7   18      1.78      0.00
   -7    7   17      0.33      0.00
   -7    7   16     -3.41      0.00
   -7    7   15      1.48      0.00
   -7    7   14     -0.04      0.00
   -7    7   13     -1.88      0.00
   -7    7   12      0.39      0.00
   -7    7   11      0.61      0.00
   -7    7   10      1.91      0.00
   -7    7    9      2.21      0.00
   -7    7    8     -7.64      0.00
   -7    7    7     -0.94      0.00
   -7    7    6      3.46      0.00
   -7    7    5     -1.16      0.00
   -7    7    4      7.72      0.00
   -7    7    3     -9.77      0.00
   -7    7    2     -6.78      0.00
   -7    7    1     12.42      0.00
    7    7    0     -8.35      0.00
    7    7    1     20.21      0.00
    7    7    2      8.70      0.00
    7    7    3     -8.34      0.00
    7    7    4     -6.76      0.00
    7    7    5      3.32      0.00
    7    7    6      3.21      0.00
    7    7    7      0.45      0.00
    7    7    8     -1.35      0.00
    7    7    9     -4.40      0.00
    7    7   10     -2.72      0.00
    7    7   11     -0.43      0.00
    7    7   12      2.11      0.00
    7    7   13     -0.47      0.00
    7    7   14     -1.82      0.00
    7    7   15      1.04      0.00
    7    7   16     -0.96      0.00
    7    7   17     -1.92      0.00
    7    7   18      1.25      0.00
   -7    9   18      0.90      0.00
   -7    9   17     -0.62      0.00
   -7    9   16     -3.43      0.00
   -7    9   15      2.00      0.00
   -7    9   14      2.87      0.00
   -7    9   13     -3.63      0.00
   -7    9   12     -3.58      0.00
   -7    9   11      1.59      0.00
   -7    9   10      5.16      0.00
   -7    9    9      2.24      0.00
   -7    9    8     -7.00      0.00
   -7    9    7     -0.69      0.00
   -7    9    6      5.56      0.00
   -7    9    5     -4.15      0.00
   -7    9    4     -5.74      0.00
   -7    9    3      1.64      0.00
   -7    9    2      3.61      0.00
   -7    9    1      1.38      0.00
    7    9    0     -7.09      0.00
    7    9    1     14.58      0.00
    7    9    2      0.92      0.00
    7    9    3    -10.23      0.00
    7    9    4      5.17      0.00
    7    9    5      4.26      0.00
    7    9    6     -1.61      0.00
    7    9    7     -1.62      0.00
    7    9    8     -1.59      0.00
    7    9    9     -1.85      0.00
    7    9   10     -3.04      0.00
    7    9   11     -1.32      0.00
    7    9   12      1.01      0.00
    7    9   13      0.23      0.00
    7    9   14     -0.22      0.00
    7    9   15     -0.05      0.00
    7    9   16     -4.01      0.00
    7    9   17      0.64      0.00
    7    9   18      4.30      0.00
   -7   11   18      1.61      0.00
   -7   11   17     -1.24      0.00
   -7   11   16     -3.18      0.00
   -7   11   15      1.43      0.00
   -7   11   14      3.45      0.00
   -7   11   13     -3.04      0.00
   -7   11   12     -4.94      0.00
   -7   11   11      1.64      0.00
   -7   11   10      4.77      0.00
   -7   11    9     -0.39      0.00
   -7   11    8     -3.84      0.00
   -7   11    7      1.71      0.00
   -7   11    6      2.78      0.00
   -7   11    5      0.91      0.00
   -7   11    4    -10.41      0.00
   -7   11    3     -5.93      0.00
   -7   11    2     10.84      0.00
   -7   11    1      6.82      0.00
    7   11    0     -9.62      0.00
    7   11    1     10.22      0.00
    7   11    2     -0.33      0.00
    7   11    3     -4.70      0.00
    7   11    4      8.51      0.00
    7   11    5     -0.97      0.00
    7   11    6     -3.87      0.00
    7   11    7     -2.26      0.00
    7   11    8      0.52      0.00
    7   11    9      0.69      0.00
    7   11   10     -3.49      0.00
    7   11   11     -0.94      0.00
    7   11   12      0.42      0.00
    7   11   13      0.26      0.00
    7   11   14     -1.36      0.00
    7   11   15     -0.91      0.00
    7   11   16     -1.92      0.00
    7   11   17      3.39      0.00
   -7   13   17     -0.01      0.00
   -7   13   16     -2.12      0.00
   -7   13   15      0.94      0.00
   -7   13   14      2.03      0.00
   -7   13   13     -2.59      0.00
   -7   13   12     -4.39      0.00
   -7   13   11      1.94      0.00
   -7   13   10      4.27      0.00
   -7   13    9     -2.53      0.00
   -7   13    8     -3.48      0.00
   -7   13    7      4.62      0.00
   -7   13    6      0.29      0.00
   -7   13    5     -0.11      0.00
   -7   13    4     -3.21      0.00
   -7   13    3     -8.07      0.00
   -7   13    2      0.82      0.00
   -7   13    1     12.26      0.00
    7   13    0     -3.34      0.00
    7   13    1      8.93      0.00
    7   13    2      0.28      0.00
    7   13    3     -3.72      0.00
    7   13    4      5.18      0.00
    7   13    5     -2.56      0.00
    7   13    6     -3.50      0.00
    7   13    7     -1.17      0.00
    7   13    8      2.55      0.00
    7   13    9      1.25      0.00
    7   13   10     -2.70      0.00
    7   13   11     -0.53      0.00
    7   13   12     -1.16      0.00
    7   13   13     -0.73      0.00
    7   13   14     -1.85      0.00
    7   13   15      1.31      0.00
    7   13   16      0.75      0.00
    7   13   17      1.67      0.00
   -7   15   16     -0.31      0.00
   -7   15   15      0.37      0.00
   -7   15   14      0.33      0.00
   -7   15   13     -1.42      0.00
   -7   15   12     -3.59      0.00
   -7   15   11      0.65      0.00
   -7   15   10      3.67      0.00
   -7   15    9     -0.42      0.00
   -7   15    8     -2.92      0.00
   -7   15    7      1.88      0.00
   -7   15    6      1.86      0.00
   -7   15    5     -2.27      0.00
   -7   15    4     -3.35      0.00
   -7   15    3      0.03      0.00
   -7   15    2     -2.67      0.00
   -7   15    1      5.30      0.00
    7   15    0     -0.96      0.00
    7   15    1      3.54      0.00
    7   15    2      1.54      0.00
    7   15    3     -3.69      0.00
    7   15    4      2.27      0.00
    7   15    5     -2.16      0.00
    7   15    6     -2.30      0.00
    7   15    7      1.10      0.00
    7   15    8      2.37      0.00
    7   15    9      0.35      0.00
    7   15   10     -2.48      0.00
    7   15   11     -1.12      0.00
    7   15   12     -1.26      0.00
    7   15   13      0.50      0.00
    7   15   14     -0.65      0.00
    7   15   15      1.21      0.00
    7   15   16     -0.10      0.00
   -7   17   15      0.69      0.00
   -7   17   14     -2.22      0.00
   -7   17   13     -0.54      0.00
   -7   17   12     -0.74      0.00
   -7   17   11     -0.85      0.00
   -7   17   10      0.82      0.00
   -7   17    9      1.17      0.00
   -7   17    8      1.02      0.00
   -7   17    7     -1.22      0.00
   -7   17    6      0.41      0.00
   -7   17    5      0.90      0.00
   -7   17    4     -5.61      0.00
   -7   17    3     -0.80      0.00
   -7   17    2      3.02      0.00
   -7   17    1      4.33      0.00
    7   17    0     -6.96      0.00
    7   17    1      2.78      0.00
    7   17    2      6.20      0.00
    7   17    3     -4.13      0.00
    7   17    4     -2.24      0.00
    7   17    5     -1.03      0.00
    7   17    6      0.34      0.00
    7   17    7      1.64      0.00
    7   17    8      0.25      0.00
    7   17    9     -0.65      0.00
    7   17   10     -2.94      0.00
    7   17   11      0.06      0.00
    7   17   12      1.15      0.00
    7   17   13      1.12      0.00
    7   17   14     -1.18      0.00
    7   17   15     -1.09      0.00
   -7   19   14     -3.50      0.00
   -7   19   13     -2.42      0.00
   -7   19   12      2.44      0.00
   -7   19   11      0.76      0.00
   -7   19   10     -1.79      0.00
   -7   19    9     -0.09      0.00
   -7   19    8      2.21      0.00
   -7   19    7     -0.43      0.00
   -7   19    6     -1.58      0.00
   -7   19    5      1.00      0.00
   -7   19    4     -0.73      0.00
   -7   19    3     -3.59      0.00
   -7   19    2      0.12      0.00
   -7   19    1      7.16      0.00
    7   19    0     -5.11      0.00
    7   19    1      5.53      0.00
    7   19    2      5.80      0.00
    7   19    3     -5.71      0.00
    7   19    4     -5.19      0.00
    7   19    5      1.42      0.00
    7   19    6      1.89      0.00
    7   19    7      0.06      0.00
    7   19    8     -1.65      0.00
    7   19    9     -0.22      0.00
    7   19   10     -1.94      0.00
    7   19   11      2.15      0.00
    7   19   12      1.14      0.00
    7   19   13     -1.09      0.00
    7   19   14     -0.81      0.00
   -7   21   13     -3.76      0.00
   -7   21   12      2.13      0.00
   -7   21   11      3.48      0.00
   -7   21   10     -1.25      0.00
   -7   21    9     -0.52      0.00
   -7   21    8      0.41      0.00
   -7   21    7     -1.13      0.00
   -7   21    6     -0.48      0.00
   -7   21    5     -2.29      0.00
   -7   21    4      1.33      0.00
   -7   21    3      1.61      0.00
   -7   21    2     -2.56      0.00
   -7   21    1      0.19      0.00
    7   21    0     -0.76      0.00
    7   21    1     -0.35      0.00
    7   21    2      2.43      0.00
    7   21    3     -2.03      0.00
    7   21    4     -5.87      0.00
    7   21    5      1.12      0.00
    7   21    6      3.09      0.00
    7   21    7     -0.10      0.00
    7   21    8     -3.72      0.00
    7   21    9      0.90      0.00
    7   21   10     -0.05      0.00
    7   21   11      1.53      0.00
    7   21   12     -1.59      0.00
    7   21   13     -1.19      0.00
   -7   23   12     -0.07      0.00
   -7   23   11      2.93      0.00
   -7   23   10      1.60      0.00
   -7   23    9      0.68      0.00
   -7   23    8     -0.46      0.00
   -7   23    7     -1.69      0.00
   -7   23    6     -0.29      0.00
   -7   23    5     -3.76      0.00
   -7   23    4     -1.33      0.00
   -7   23    3      3.24      0.00
   -7   23    2      2.29      0.00
   -7   23    1     -4.11      0.00
    7   23    0     -4.34      0.00
    7   23    1     -5.96      0.00
    7   23    2      4.73      0.00
    7   23    3      2.20      0.00
    7   23    4     -8.11      0.00
    7   23    5      0.44      0.00
    7   23    6      6.12      0.00
    7   23    7     -0.75      0.00
    7   23    8     -7.20      0.00
    7   23    9      2.12      0.00
    7   23   10      1.36      0.00
    7   23   11     -0.54      0.00
    7   23   12     -2.26      0.00
   -7   25   10      3.28      0.00
   -7   25    9      3.30      0.00
   -7   25    8     -1.93      0.00
   -7   25    7      0.05      0.00
   -7   25    6      0.31      0.00
   -7   25    5     -4.84      0.00
   -7   25    4     -1.36      0.00
   -7   25    3      0.68      0.00
   -7   25    2      1.82      0.00
   -7   25    1     -0.96      0.00
    7   25    0     -4.47      0.00
    7   25    1     -3.41      0.00
    7   25    2      5.32      0.00
    7   25    3      0.38      0.00
    7   25    4     -7.06      0.00
    7   25    5      2.66      0.00
    7   25    6      5.29      0.00
    7   25    7     -3.86      0.00
    7   25    8     -7.35      0.00
    7   25    9      3.77      0.00
    7   25   10      1.37      0.00
   -7   27    8     -2.48      0.00
   -7   27    7     -0.75      0.00
   -7   27    6      2.35      0.00
   -7   27    5     -4.60      0.00
   -7   27    4     -0.95      0.00
   -7   27    3      2.53      0.00
   -7   27    2     -1.68      0.00
   -7   27    1     -2.75      0.00
    7   27    0     -0.05      0.00
    7   27    1     -2.97      0.00
    7   27    2      0.64      0.00
    7   27    3     -0.80      0.00
    7   27    4     -1.38      0.00
    7   27    5      2.37      0.00
    7   27    6     -0.18      0.00
    7   27    7     -3.46      0.00
    7   27    8     -2.59      0.00
   -7   29    4     -1.80      0.00
   -7   29    3      3.44      0.00
   -7   29    2      0.36      0.00
   -7   29    1     -4.84      0.00
    7   29    0     -0.92      0.00
    7   29    1     -4.95      0.00
    7   29    2     -1.15      0.00
    7   29    3      0.99      0.00
    7   29    4      1.31      0.00
   -8    0   18     -2.78      0.00
   -8    0   16     -3.77      0.00
   -8    0   14      4.74      0.00
   -8    0   12     -0.34      0.00
   -8    0   10     -3.38      0.00
   -8    0    8     15.44      0.00
   -8    0    6    -25.54      0.00
   -8    0    4     32.78      0.00
   -8    0    2    -48.26      0.00
    8    0    0     -1.92      0.00
    8    0    2     10.61      0.00
    8    0    4     -0.66      0.00
    8    0    6      1.19      0.00
    8    0    8     -3.12      0.00
    8    0   10      3.47      0.00
    8    0   12     -0.47      0.00
    8    0   14      0.50      0.00
    8    0   16     -0.48      0.00
    8    0   18      0.69      0.00
   -8    2   19      0.67      0.00
   -8    2   18     -2.64      0.00
   -8    2   17      0.84      0.00
   -8    2   16     -2.81      0.00
   -8    2   15     -1.18      0.00
   -8    2   14      3.90      0.00
   -8    2   13     -0.98      0.00
   -8    2   12      0.47      0.00
   -8    2   11      1.36      0.00
   -8    2   10     -2.64      0.00
   -8    2    9     -3.69      0.00
   -8    2    8     11.65      0.00
   -8    2    7      4.27      0.00
   -8    2    6    -21.47      0.00
   -8    2    5     -4.42      0.00
   -8    2    4     28.57      0.00
   -8    2    3      8.84      0.00
   -8    2    2    -46.35      0.00
   -8    2    1     -3.86      0.00
    8    2    0      6.19      0.00
    8    2    1      3.02      0.00
    8    2    2      4.93      0.00
    8    2    3     -2.66      0.00
    8    2    4     -1.06      0.00
    8    2    5     -0.37      0.00
    8    2    6      1.61      0.00
    8    2    7     -1.78      0.00
    8    2    8     -2.28      0.00
    8    2    9      1.50      0.00
    8    2   10      2.07      0.00
    8    2   11      0.97      0.00
    8    2   12      0.09      0.00
    8    2   13     -0.27      0.00
    8    2   14      0.74      0.00
    8    2   15      0.67      0.00
    8    2   16      0.02      0.00
    8    2   17      0.27      0.00
    8    2   18      0.37      0.00
    8    2   19      1.04      0.00
   -8    4   19      0.91      0.00
   -8    4   18     -2.42      0.00
   -8    4   17      0.73      0.00
   -8    4   16     -0.67      0.00
   -8    4   15     -2.01      0.00
   -8    4   14      2.57      0.00
   -8    4   13     -1.83      0.00
   -8    4   12      0.98      0.00
   -8    4   11      2.36      0.00
   -8    4   10     -2.43      0.00
   -8    4    9     -2.79      0.00
   -8    4    8      6.03      0.00
   -8    4    7      4.71      0.00
   -8    4    6    -11.30      0.00
   -8    4    5     -8.52      0.00
   -8    4    4     12.10      0.00
   -8    4    3     18.71      0.00
   -8    4    2    -26.82      0.00
   -8    4    1    -18.62      0.00
    8    4    0      9.42      0.00
    8    4    1     -7.10      0.00
    8    4    2     -3.27      0.00
    8    4    3     -2.34      0.00
    8    4    4      1.18      0.00
    8    4    5      0.07      0.00
    8    4    6      0.46      0.00
    8    4    7     -1.70      0.00
    8    4    8     -0.92      0.00
    8    4    9      0.52      0.00
    8    4   10      0.68      0.00
    8    4   11      3.44      0.00
    8    4   12      0.07      0.00
    8    4   13     -0.25      0.00
    8    4   14      2.16      0.00
    8    4   15      0.81      0.00
    8    4   16     -0.48      0.00
    8    4   17      0.07      0.00
    8    4   18      0.89      0.00
   -8    6   18     -0.95      0.00
   -8    6   17     -0.73      0.00
   -8    6   16      0.36      0.00
   -8    6   15     -2.50      0.00
   -8    6   14      1.67      0.00
   -8    6   13     -0.44      0.00
   -8    6   12     -0.47      0.00
   -8    6   11      2.05      0.00
   -8    6   10     -3.66      0.00
   -8    6    9     -0.80      0.00
   -8    6    8      5.44      0.00
   -8    6    7      2.27      0.00
   -8    6    6     -4.11      0.00
   -8    6    5     -4.49      0.00
   -8    6    4     -3.70      0.00
   -8    6    3      9.46      0.00
   -8    6    2      2.29      0.00
   -8    6    1    -16.34      0.00
    8    6    0     -3.44      0.00
    8    6    1    -13.69      0.00
    8    6    2     -1.87      0.00
    8    6    3      2.85      0.00
    8    6    4      2.06      0.00
    8    6    5     -3.88      0.00
    8    6    6     -0.25      0.00
    8    6    7      1.00      0.00
    8    6    8     -0.82      0.00
    8    6    9     -0.75      0.00
    8    6   10      2.13      0.00
    8    6   11      4.66      0.00
    8    6   12     -1.88      0.00
    8    6   13      1.28      0.00
    8    6   14      2.78      0.00
    8    6   15     -1.93      0.00
    8    6   16     -0.09      0.00
    8    6   17      2.34      0.00
    8    6   18      0.58      0.00
   -8    8   18      1.19      0.00
   -8    8   17     -0.60      0.00
   -8    8   16     -0.06      0.00
   -8    8   15     -3.17      0.00
   -8    8   14      0.13      0.00
   -8    8   13      3.09      0.00
   -8    8   12     -1.07      0.00
   -8    8   11     -0.88      0.00
   -8    8   10     -4.17      0.00
   -8    8    9      0.01      0.00
   -8    8    8      5.77      0.00
   -8    8    7      0.84      0.00
   -8    8    6     -3.20      0.00
   -8    8    5      0.23      0.00
   -8    8    4     -0.64      0.00
   -8    8    3     -6.31      0.00
   -8    8    2      6.35      0.00
   -8    8    1      0.92      0.00
    8    8    0     -6.02      0.00
    8    8    1     -7.28      0.00
    8    8    2      3.57      0.00
    8    8    3      4.25      0.00
    8    8    4     -3.37      0.00
    8    8    5     -5.27      0.00
    8    8    6      2.28      0.00
    8    8    7      2.45      0.00
    8    8    8     -1.21      0.00
    8    8    9     -0.48      0.00
    8    8   10      3.83      0.00
    8    8   11      2.45      0.00
    8    8   12     -3.47      0.00
    8    8   13      2.71      0.00
    8    8   14      0.62      0.00
    8    8   15     -3.21      0.00
    8    8   16      3.83      0.00
    8    8   17      3.13      0.00
    8    8   18     -2.69      0.00
   -8   10   18     -0.12      0.00
   -8   10   17      0.89      0.00
   -8   10   16      0.96      0.00
   -8   10   15     -3.48      0.00
   -8   10   14     -2.00      0.00
   -8   10   13      5.31      0.00
   -8   10   12      1.36      0.00
   -8   10   11     -4.47      0.00
   -8   10   10     -4.44      0.00
   -8   10    9      2.94      0.00
   -8   10    8      3.32      0.00
   -8   10    7     -3.10      0.00
   -8   10    6     -1.06      0.00
   -8   10    5      0.18      0.00
   -8   10    4      5.51      0.00
   -8   10    3     -4.14      0.00
   -8   10    2     -3.33      0.00
   -8   10    1      1.53      0.00
    8   10    0      3.87      0.00
    8   10    1     -3.79      0.00
    8   10    2      2.61      0.00
    8   10    3      0.81      0.00
    8   10    4     -4.39      0.00
    8   10    5     -0.23      0.00
    8   10    6      1.99      0.00
    8   10    7      2.00      0.00
    8   10    8     -1.35      0.00
    8   10    9     -0.97      0.00
    8   10   10      3.30      0.00
    8   10   11     -0.09      0.00
    8   10   12     -2.48      0.00
    8   10   13      2.02      0.00
    8   10   14     -0.64      0.00
    8   10   15     -0.65      0.00
    8   10   16      4.75      0.00
    8   10   17      0.01      0.00
    8   10   18     -3.25      0.00
   -8   12   17     -0.22      0.00
   -8   12   16      2.41      0.00
   -8   12   15     -2.83      0.00
   -8   12   14     -2.62      0.00
   -8   12   13      5.10      0.00
   -8   12   12      3.76      0.00
   -8   12   11     -4.92      0.00
   -8   12   10     -5.41      0.00
   -8   12    9      5.52      0.00
   -8   12    8      3.77      0.00
   -8   12    7     -9.07      0.00
   -8   12    6     -1.04      0.00
   -8   12    5      3.55      0.00
   -8   12    4      3.18      0.00
   -8   12    3      0.80      0.00
   -8   12    2     -0.92      0.00
   -8   12    1     -6.23      0.00
    8   12    0      4.86      0.00
    8   12    1     -6.28      0.00
    8   12    2      0.45      0.00
    8   12    3      1.77      0.00
    8   12    4      0.46      0.00
    8   12    5      1.04      0.00
    8   12    6     -0.60      0.00
    8   12    7      2.46      0.00
    8   12    8     -3.59      0.00
    8   12    9     -2.13      0.00
    8   12   10      2.98      0.00
    8   12   11     -0.14      0.00
    8   12   12     -0.38      0.00
    8   12   13      0.31      0.00
    8   12   14      0.09      0.00
    8   12   15      0.07      0.00
    8   12   16      1.50      0.00
    8   12   17     -0.25      0.00
   -8   14   16      1.27      0.00
   -8   14   15     -2.92      0.00
   -8   14   14     -1.55      0.00
   -8   14   13      4.52      0.00
   -8   14   12      3.25      0.00
   -8   14   11     -2.77      0.00
   -8   14   10     -3.78      0.00
   -8   14    9      2.46      0.00
   -8   14    8      4.99      0.00
   -8   14    7     -6.37      0.00
   -8   14    6     -5.43      0.00
   -8   14    5      4.94      0.00
   -8   14    4      4.35      0.00
   -8   14    3     -1.48      0.00
   -8   14    2      0.34      0.00
   -8   14    1     -4.11      0.00
    8   14    0      2.93      0.00
    8   14    1     -4.02      0.00
    8   14    2      0.01      0.00
    8   14    3      4.95      0.00
    8   14    4      2.00      0.00
    8   14    5     -1.59      0.00
    8   14    6      0.09      0.00
    8   14    7      1.56      0.00
    8   14    8     -6.43      0.00
    8   14    9     -0.26      0.00
    8   14   10      3.80      0.00
    8   14   11     -0.07      0.00
    8   14   12      0.13      0.00
    8   14   13     -1.20      0.00
    8   14   14      0.27      0.00
    8   14   15     -0.67      0.00
    8   14   16      1.20      0.00
   -8   16   16      0.31      0.00
   -8   16   15     -4.02      0.00
   -8   16   14     -0.52      0.00
   -8   16   13      4.07      0.00
   -8   16   12      0.97      0.00
   -8   16   11     -1.59      0.00
   -8   16   10      1.36      0.00
   -8   16    9     -0.97      0.00
   -8   16    8     -0.45      0.00
   -8   16    7      0.31      0.00
   -8   16    6     -3.30      0.00
   -8   16    5      0.29      0.00
   -8   16    4      5.27      0.00
   -8   16    3      2.13      0.00
   -8   16    2     -5.04      0.00
   -8   16    1     -4.65      0.00
    8   16    0      7.40      0.00
    8   16    1     -2.62      0.00
    8   16    2     -3.45      0.00
    8   16    3      6.89      0.00
    8   16    4      2.14      0.00
    8   16    5     -2.47      0.00
    8   16    6      0.57      0.00
    8   16    7     -0.35      0.00
    8   16    8     -4.67      0.00
    8   16    9      2.42      0.00
    8   16   10      2.81      0.00
    8   16   11     -1.48      0.00
    8   16   12     -1.15      0.00
    8   16   13     -1.30      0.00
    8   16   14      1.42      0.00
    8   16   15      0.78      0.00
    8   16   16      2.37      0.00
   -8   18   15     -3.47      0.00
   -8   18   14      0.84      0.00
   -8   18   13      3.45      0.00
   -8   18   12     -1.55      0.00
   -8   18   11     -2.33      0.00
   -8   18   10      5.02      0.00
   -8   18    9      0.69      0.00
   -8   18    8     -5.29      0.00
   -8   18    7     -0.94      0.00
   -8   18    6      1.24      0.00
   -8   18    5      1.40      0.00
   -8   18    4      0.07      0.00
   -8   18    3      5.45      0.00
   -8   18    2     -2.45      0.00
   -8   18    1     -8.78      0.00
    8   18    0      6.23      0.00
    8   18    1     -5.19      0.00
    8   18    2     -4.52      0.00
    8   18    3      8.46      0.00
    8   18    4      2.40      0.00
    8   18    5     -2.64      0.00
    8   18    6     -0.32      0.00
    8   18    7      0.70      0.00
    8   18    8     -1.11      0.00
    8   18    9      0.96      0.00
    8   18   10      0.79      0.00
    8   18   11     -2.20      0.00
    8   18   12     -1.67      0.00
    8   18   13      1.25      0.00
    8   18   14      2.97      0.00
    8   18   15      1.17      0.00
   -8   20   14      3.14      0.00
   -8   20   13      3.70      0.00
   -8   20   12     -3.40      0.00
   -8   20   11     -3.30      0.00
   -8   20   10      4.79      0.00
   -8   20    9      1.95      0.00
   -8   20    8     -3.21      0.00
   -8   20    7     -2.25      0.00
   -8   20    6     -1.76      0.00
   -8   20    5      5.19      0.00
   -8   20    4      0.11      0.00
   -8   20    3     -0.23      0.00
   -8   20    2      0.95      0.00
   -8   20    1     -2.78      0.00
    8   20    0      1.51      0.00
    8   20    1     -0.74      0.00
    8   20    2     -2.45      0.00
    8   20    3      4.29      0.00
    8   20    4      2.04      0.00
    8   20    5      0.03      0.00
    8   20    6     -0.18      0.00
    8   20    7      1.01      0.00
    8   20    8     -0.23      0.00
    8   20    9     -0.93      0.00
    8   20   10     -0.04      0.00
    8   20   11     -1.48      0.00
    8   20   12      0.80      0.00
    8   20   13      3.10      0.00
    8   20   14      0.74      0.00
   -8   22   12     -3.33      0.00
   -8   22   11     -2.93      0.00
   -8   22   10      2.84      0.00
   -8   22    9     -0.13      0.00
   -8   22    8     -1.67      0.00
   -8   22    7      1.58      0.00
   -8   22    6     -2.64      0.00
   -8   22    5      2.42      0.00
   -8   22    4      4.34      0.00
   -8   22    3     -3.29      0.00
   -8   22    2     -4.22      0.00
   -8   22    1      4.12      0.00
    8   22    0      5.05      0.00
    8   22    1      5.52      0.00
    8   22    2     -6.01      0.00
    8   22    3     -1.68      0.00
    8   22    4      5.56      0.00
    8   22    5      3.81      0.00
    8   22    6     -2.03      0.00
    8   22    7     -1.20      0.00
    8   22    8      1.86      0.00
    8   22    9     -0.09      0.00
    8   22   10     -2.21      0.00
    8   22   11      0.51      0.00
    8   22   12      4.44      0.00
   -8   24   11     -0.55      0.00
   -8   24   10      0.25      0.00
   -8   24    9     -2.51      0.00
   -8   24    8     -1.61      0.00
   -8   24    7      1.50      0.00
   -8   24    6      1.76      0.00
   -8   24    5      1.01      0.00
   -8   24    4      3.25      0.00
   -8   24    3     -0.92      0.00
   -8   24    2     -6.05      0.00
   -8   24    1      1.96      0.00
    8   24    0      7.30      0.00
    8   24    1      2.86      0.00
    8   24    2     -8.60      0.00
    8   24    3      0.29      0.00
    8   24    4      8.21      0.00
    8   24    5      2.01      0.00
    8   24    6     -3.58      0.00
    8   24    7     -0.19      0.00
    8   24    8      4.53      0.00
    8   24    9     -1.30      0.00
    8   24   10     -4.50      0.00
    8   24   11      3.77      0.00
   -8   26    9     -5.23      0.00
   -8   26    8      0.97      0.00
   -8   26    7     -0.46      0.00
   -8   26    6      1.56      0.00
   -8   26    5      3.06      0.00
   -8   26    4      1.11      0.00
   -8   26    3     -1.16      0.00
   -8   26    2     -0.91      0.00
   -8   26    1      1.32      0.00
    8   26    0      1.25      0.00
    8   26    1      1.17      0.00
    8   26    2     -2.81      0.00
    8   26    3      3.08      0.00
    8   26    4      3.89      0.00
    8   26    5     -1.08      0.00
    8   26    6     -0.04      0.00
    8   26    7      2.01      0.00
    8   26    8      1.77      0.00
    8   26    9     -3.23      0.00
   -8   28    6     -0.44      0.00
   -8   28    5      1.33      0.00
   -8   28    4      0.98      0.00
   -8   28    3     -2.05      0.00
   -8   28    2      1.59      0.00
   -8   28    1      4.62      0.00
    8   28    0     -1.44      0.00
    8   28    1      5.35      0.00
    8   28    2      1.06      0.00
    8   28    3      0.53      0.00
    8   28    4     -0.23      0.00
    8   28    5     -0.33      0.00
    8   28    6      3.21      0.00
   -9    1   19     -0.41      0.00
   -9    1   18      2.48      0.00
   -9    1   17     -0.02      0.00
   -9    1   16      3.84      0.00
   -9    1   15     -0.05      0.00
   -9    1   14     -1.09      0.00
   -9    1   13      1.15      0.00
   -9    1   12     -0.31      0.00
   -9    1   11      0.33      0.00
   -9    1   10      0.93      0.00
   -9    1    9      1.70      0.00
   -9    1    8    -12.36      0.00
   -9    1    7     -6.90      0.00
   -9    1    6     25.13      0.00
   -9    1    5      5.00      0.00
   -9    1    4    -40.31      0.00
   -9    1    3      0.21      0.00
   -9    1    2     60.67      0.00
   -9    1    1     -1.44      0.00
    9    1    0    -20.33      0.00
    9    1    1     -3.95      0.00
    9    1    2     10.72      0.00
    9    1    3     -1.29      0.00
    9    1    4     -6.07      0.00
    9    1    5      3.46      0.00
    9    1    6      0.35      0.00
    9    1    7      0.70      0.00
    9    1    8      5.00      0.00
    9    1    9     -1.01      0.00
    9    1   10     -3.98      0.00
    9    1   11     -0.01      0.00
    9    1   12      1.39      0.00
    9    1   13      0.47      0.00
    9    1   14     -3.18      0.00
    9    1   15     -0.83      0.00
    9    1   16      0.73      0.00
    9    1   17     -0.70      0.00
    9    1   18     -1.81      0.00
    9    1   19      0.82      0.00
   -9    3   19     -0.83      0.00
   -9    3   18      1.80      0.00
   -9    3   17     -0.36      0.00
   -9    3   16      3.11      0.00
   -9    3   15      0.74      0.00
   -9    3   14     -1.56      0.00
   -9    3   13      2.03      0.00
   -9    3   12     -1.73      0.00
   -9    3   11      0.10      0.00
   -9    3   10      3.95      0.00
   -9    3    9      2.47      0.00
   -9    3    8     -5.56      0.00
   -9    3    7    -11.98      0.00
   -9    3    6     11.87      0.00
   -9    3    5      9.90      0.00
   -9    3    4    -27.33      0.00
   -9    3    3     -1.06      0.00
   -9    3    2     45.46      0.00
   -9    3    1      0.73      0.00
    9    3    0    -14.50      0.00
    9    3    1     -8.44      0.00
    9    3    2      4.87      0.00
    9    3    3      2.02      0.00
    9    3    4      2.92      0.00
    9    3    5      3.15      0.00
    9    3    6     -3.69      0.00
    9    3    7      2.25      0.00
    9    3    8      3.12      0.00
    9    3    9     -0.46      0.00
    9    3   10     -0.86      0.00
    9    3   11     -1.85      0.00
    9    3   12     -0.63      0.00
    9    3   13      1.69      0.00
    9    3   14     -2.29      0.00
    9    3   15     -2.01      0.00
    9    3   16     -0.23      0.00
    9    3   17     -0.63      0.00
    9    3   18      0.31      0.00
   -9    5   18      1.27      0.00
   -9    5   17      0.49      0.00
   -9    5   16      1.38      0.00
   -9    5   15      1.23      0.00
   -9    5   14     -0.59      0.00
   -9    5   13      1.57      0.00
   -9    5   12     -2.74      0.00
   -9    5   11     -2.16      0.00
   -9    5   10      6.70      0.00
   -9    5    9      1.58      0.00
   -9    5    8     -2.39      0.00
   -9    5    7     -5.97      0.00
   -9    5    6      2.07      0.00
   -9    5    5      5.65      0.00
   -9    5    4    -10.68      0.00
   -9    5    3      2.16      0.00
   -9    5    2     18.18      0.00
   -9    5    1      0.09      0.00
    9    5    0      0.14      0.00
    9    5    1    -11.61      0.00
    9    5    2     -1.29      0.00
    9    5    3      9.82      0.00
    9    5    4      5.04      0.00
    9    5    5     -1.97      0.00
    9    5    6     -4.01      0.00
    9    5    7      1.23      0.00
    9    5    8      2.26      0.00
    9    5    9      3.31      0.00
    9    5   10     -0.08      0.00
    9    5   11     -4.81      0.00
    9    5   12     -0.52      0.00
    9    5   13      2.11      0.00
    9    5   14     -1.47      0.00
    9    5   15     -0.91      0.00
    9    5   16     -0.54      0.00
    9    5   17     -0.67      0.00
    9    5   18      0.62      0.00
   -9    7   18     -0.78      0.00
   -9    7   17      1.96      0.00
   -9    7   16      1.56      0.00
   -9    7   15      0.49      0.00
   -9    7   14      0.29      0.00
   -9    7   13      0.93      0.00
   -9    7   12     -1.16      0.00
   -9    7   11     -3.44      0.00
   -9    7   10      4.64      0.00
   -9    7    9      2.23      0.00
   -9    7    8     -2.84      0.00
   -9    7    7     -2.02      0.00
   -9    7    6      2.15      0.00
   -9    7    5      1.31      0.00
   -9    7    4     -4.37      0.00
   -9    7    3      9.15      0.00
   -9    7    2      2.78      0.00
   -9    7    1     -8.20      0.00
    9    7    0      6.61      0.00
    9    7    1    -14.74      0.00
    9    7    2     -3.12      0.00
    9    7    3     11.31      0.00
    9    7    4      2.43      0.00
    9    7    5     -1.20      0.00
    9    7    6     -4.22      0.00
    9    7    7     -1.87      0.00
    9    7    8      4.49      0.00
    9    7    9      4.42      0.00
    9    7   10     -2.22      0.00
    9    7   11     -3.25      0.00
    9    7   12      1.99      0.00
    9    7   13      0.08      0.00
    9    7   14      0.12      0.00
    9    7   15      1.35      0.00
    9    7   16     -2.42      0.00
    9    7   17     -2.29      0.00
    9    7   18      0.88      0.00
   -9    9   18     -2.33      0.00
   -9    9   17      0.48      0.00
   -9    9   16      2.41      0.00
   -9    9   15      1.10      0.00
   -9    9   14      0.47      0.00
   -9    9   13     -0.51      0.00
   -9    9   12      0.17      0.00
   -9    9   11     -0.30      0.00
   -9    9   10      1.24      0.00
   -9    9    9      0.87      0.00
   -9    9    8     -1.35      0.00
   -9    9    7     -1.89      0.00
   -9    9    6      2.33      0.00
   -9    9    5      2.69      0.00
   -9    9    4     -3.31      0.00
   -9    9    3      6.15      0.00
   -9    9    2      1.20      0.00
   -9    9    1     -6.27      0.00
    9    9    0      2.58      0.00
    9    9    1     -9.47      0.00
    9    9    2     -3.39      0.00
    9    9    3      7.21      0.00
    9    9    4      2.47      0.00
    9    9    5      0.20      0.00
    9    9    6     -5.83      0.00
    9    9    7     -1.48      0.00
    9    9    8      5.53      0.00
    9    9    9      1.27      0.00
    9    9   10     -1.25      0.00
    9    9   11      2.00      0.00
    9    9   12      1.75      0.00
    9    9   13     -2.28      0.00
    9    9   14      2.28      0.00
    9    9   15      0.64      0.00
    9    9   16     -4.45      0.00
    9    9   17     -1.75      0.00
    9    9   18      1.83      0.00
   -9   11   17     -1.15      0.00
   -9   11   16      0.51      0.00
   -9   11   15      2.17      0.00
   -9   11   14      1.08      0.00
   -9   11   13     -1.76      0.00
   -9   11   12     -0.98      0.00
   -9   11   11      3.05      0.00
   -9   11   10      2.19      0.00
   -9   11    9     -2.56      0.00
   -9   11    8     -1.41      0.00
   -9   11    7      1.13      0.00
   -9   11    6      1.06      0.00
   -9   11    5      1.60      0.00
   -9   11    4      1.47      0.00
   -9   11    3      0.87      0.00
   -9   11    2     -4.20      0.00
   -9   11    1      0.74      0.00
    9   11    0      3.95      0.00
    9   11    1     -1.08      0.00
    9   11    2     -5.53      0.00
    9   11    3      2.93      0.00
    9   11    4      1.03      0.00
    9   11    5      0.01      0.00
    9   11    6     -2.93      0.00
    9   11    7     -0.24      0.00
    9   11    8      2.98      0.00
    9   11    9      0.08      0.00
    9   11   10      2.20      0.00
    9   11   11      2.98      0.00
    9   11   12     -0.99      0.00
    9   11   13     -1.39      0.00
    9   11   14      2.78      0.00
    9   11   15     -1.37      0.00
    9   11   16     -2.93      0.00
    9   11   17     -0.54      0.00
   -9   13   17     -0.07      0.00
   -9   13   16     -0.42      0.00
   -9   13   15      2.25      0.00
   -9   13   14      0.66      0.00
   -9   13   13     -2.77      0.00
   -9   13   12     -0.90      0.00
   -9   13   11      3.41      0.00
   -9   13   10      3.14      0.00
   -9   13    9     -2.67      0.00
   -9   13    8     -4.19      0.00
   -9   13    7      2.56      0.00
   -9   13    6      3.93      0.00
   -9   13    5     -1.11      0.00
   -9   13    4      1.72      0.00
   -9   13    3      1.91      0.00
   -9   13    2     -4.89      0.00
   -9   13    1     -1.32      0.00
    9   13    0      4.36      0.00
    9   13    1      0.45      0.00
    9   13    2     -5.58      0.00
    9   13    3     -1.02      0.00
    9   13    4     -1.96      0.00
    9   13    5      3.45      0.00
    9   13    6      1.10      0.00
    9   13    7     -2.64      0.00
    9   13    8      1.75      0.00
    9   13    9      1.46      0.00
    9   13   10      1.29      0.00
    9   13   11      0.44      0.00
    9   13   12     -0.30      0.00
    9   13   13      0.81      0.00
    9   13   14      1.32      0.00
    9   13   15     -1.05      0.00
    9   13   16     -1.26      0.00
    9   13   17     -2.12      0.00
   -9   15   16      1.28      0.00
   -9   15   15      3.76      0.00
   -9   15   14     -0.40      0.00
   -9   15   13     -4.80      0.00
   -9   15   12      0.85      0.00
   -9   15   11      4.16      0.00
   -9   15   10     -0.14      0.00
   -9   15    9     -1.04      0.00
   -9   15    8     -2.72      0.00
   -9   15    7     -0.59      0.00
   -9   15    6      3.97      0.00
   -9   15    5      1.84      0.00
   -9   15    4     -0.37      0.00
   -9   15    3     -2.45      0.00
   -9   15    2      2.92      0.00
   -9   15    1      0.35      0.00
    9   15    0     -2.83      0.00
    9   15    1      1.73      0.00
    9   15    2     -1.85      0.00
    9   15    3     -4.84      0.00
    9   15    4     -2.30      0.00
    9   15    5      7.29      0.00
    9   15    6      1.34      0.00
    9   15    7     -4.90      0.00
    9   15    8      2.10      0.00
    9   15    9      0.40      0.00
    9   15   10     -1.27      0.00
    9   15   11      1.53      0.00
    9   15   12      2.43      0.00
    9   15   13     -0.12      0.00
    9   15   14     -0.66      0.00
    9   15   15      0.23      0.00
    9   15   16     -1.82      0.00
   -9   17   15      4.89      0.00
   -9   17   14     -0.21      0.00
   -9   17   13     -5.10      0.00
   -9   17   12      1.43      0.00
   -9   17   11      4.94      0.00
   -9   17   10     -3.15      0.00
   -9   17    9     -1.89      0.00
   -9   17    8      1.70      0.00
   -9   17    7      0.12      0.00
   -9   17    6     -1.42      0.00
   -9   17    5      1.59      0.00
   -9   17    4      4.36      0.00
   -9   17    3     -7.64      0.00
   -9   17    2      2.05      0.00
   -9   17    1      7.50      0.00
    9   17    0     -4.10      0.00
    9   17    1      5.41      0.00
    9   17    2      0.01      0.00
    9   17    3     -6.46      0.00
    9   17    4     -0.58      0.00
    9   17    5      6.78      0.00
    9   17    6      0.54      0.00
    9   17    7     -4.92      0.00
    9   17    8      0.35      0.00
    9   17    9     -0.80      0.00
    9   17   10      0.54      0.00
    9   17   11      3.62      0.00
    9   17   12      1.48      0.00
    9   17   13     -2.80      0.00
    9   17   14     -1.68      0.00
    9   17   15      1.09      0.00
   -9   19   14     -1.18      0.00
   -9   19   13     -2.90      0.00
   -9   19   12      2.40      0.00
   -9   19   11      3.09      0.00
   -9   19   10     -3.48      0.00
   -9   19    9     -2.30      0.00
   -9   19    8      1.91      0.00
   -9   19    7      3.72      0.00
   -9   19    6     -1.14      0.00
   -9   19    5     -4.59      0.00
   -9   19    4      5.29      0.00
   -9   19    3     -1.89      0.00
   -9   19    2     -2.89      0.00
   -9   19    1      5.10      0.00
    9   19    0      0.00      0.00
    9   19    1      3.57      0.00
    9   19    2     -0.04      0.00
    9   19    3     -3.78      0.00
    9   19    4      0.59      0.00
    9   19    5      2.69      0.00
    9   19    6      0.04      0.00
    9   19    7     -4.12      0.00
    9   19    8     -0.60      0.00
    9   19    9      0.62      0.00
    9   19   10      2.69      0.00
    9   19   11      1.71      0.00
    9   19   12     -1.61      0.00
    9   19   13     -2.73      0.00
    9   19   14     -0.66      0.00
   -9   21   13     -2.72      0.00
   -9   21   12      3.51      0.00
   -9   21   11      1.15      0.00
   -9   21   10     -3.20      0.00
   -9   21    9     -0.25      0.00
   -9   21    8      0.63      0.00
   -9   21    7      2.05      0.00
   -9   21    6      2.56      0.00
   -9   21    5     -3.69      0.00
   -9   21    4     -1.53      0.00
   -9   21    3      3.26      0.00
   -9   21    2      0.65      0.00
   -9   21    1     -1.27      0.00
    9   21    0     -1.72      0.00
    9   21    1     -0.44      0.00
    9   21    2      2.68      0.00
    9   21    3     -0.40      0.00
    9   21    4     -0.59      0.00
    9   21    5     -1.55      0.00
    9   21    6     -0.95      0.00
    9   21    7     -1.80      0.00
    9   21    8      1.43      0.00
    9   21    9      0.47      0.00
    9   21   10      2.16      0.00
    9   21   11     -1.17      0.00
    9   21   12     -3.27      0.00
    9   21   13      0.70      0.00
   -9   23   11     -0.03      0.00
   -9   23   10     -1.55      0.00
   -9   23    9      1.21      0.00
   -9   23    8      1.08      0.00
   -9   23    7     -0.36      0.00
   -9   23    6      0.14      0.00
   -9   23    5      1.59      0.00
   -9   23    4     -3.13      0.00
   -9   23    3      1.38      0.00
   -9   23    2      4.08      0.00
   -9   23    1     -1.61      0.00
    9   23    0     -4.44      0.00
    9   23    1      0.05      0.00
    9   23    2      4.34      0.00
    9   23    3     -0.92      0.00
    9   23    4     -1.48      0.00
    9   23    5     -2.84      0.00
    9   23    6     -2.22      0.00
    9   23    7      1.16      0.00
    9   23    8      2.79      0.00
    9   23    9     -1.28      0.00
    9   23   10      2.34      0.00
    9   23   11     -3.04      0.00
   -9   25   10      1.22      0.00
   -9   25    9      2.53      0.00
   -9   25    8     -0.45      0.00
   -9   25    7      0.56      0.00
   -9   25    6     -2.03      0.00
   -9   25    5      1.34      0.00
   -9   25    4     -0.76      0.00
   -9   25    3      0.92      0.00
   -9   25    2      2.31      0.00
   -9   25    1     -1.10      0.00
    9   25    0     -2.28      0.00
    9   25    1      0.17      0.00
    9   25    2      1.18      0.00
    9   25    3     -1.05      0.00
    9   25    4      0.26      0.00
    9   25    5     -3.05      0.00
    9   25    6     -3.08      0.00
    9   25    7      2.63      0.00
    9   25    8      2.60      0.00
    9   25    9     -0.83      0.00
    9   25   10      2.40      0.00
   -9   27    7     -0.30      0.00
   -9   27    6      0.04      0.00
   -9   27    5      1.02      0.00
   -9   27    4     -1.33      0.00
   -9   27    3      0.68      0.00
   -9   27    2      0.73      0.00
   -9   27    1     -1.74      0.00
    9   27    0     -0.09      0.00
    9   27    1     -2.62      0.00
    9   27    2     -0.85      0.00
    9   27    3      1.89      0.00
    9   27    4      0.52      0.00
    9   27    5     -3.66      0.00
    9   27    6     -2.21      0.00
    9   27    7      2.71      0.00
   -9   29    3     -1.56      0.00
   -9   29    2     -0.83      0.00
   -9   29    1     -0.73      0.00
    9   29    0      0.24      0.00
    9   29    1     -2.85      0.00
    9   29    2      0.43      0.00
  -10    0   18      0.35      0.00
  -10    0   16     -1.76      0.00
  -10    0   14     -2.01      0.00
  -10    0   12      0.25      0.00
  -10    0   10      1.03      0.00
  -10    0    8      1.21      0.00
  -10    0    6     -3.45      0.00
  -10    0    4      4.62      0.00
  -10    0    2     -3.33      0.00
   10    0    0      8.99      0.00
   10    0    2    -20.45      0.00
   10    0    4     14.75      0.00
   10    0    6     -6.94      0.00
   10    0    8     -0.71      0.00
   10    0   10      0.46      0.00
   10    0   12      0.48      0.00
   10    0   14      0.83      0.00
   10    0   16     -1.58      0.00
   10    0   18      2.84      0.00
  -10    2   18      0.46      0.00
  -10    2   17      0.37      0.00
  -10    2   16     -2.11      0.00
  -10    2   15      1.06      0.00
  -10    2   14     -0.42      0.00
  -10    2   13     -2.68      0.00
  -10    2   12     -0.74      0.00
  -10    2   11      1.02      0.00
  -10    2   10     -0.58      0.00
  -10    2    9     -0.33      0.00
  -10    2    8      0.73      0.00
  -10    2    7      7.03      0.00
  -10    2    6     -0.11      0.00
  -10    2    5     -6.08      0.00
  -10    2    4      5.76      0.00
  -10    2    3     -7.77      0.00
  -10    2    2     -8.68      0.00
  -10    2    1     11.16      0.00
   10    2    0      9.95      0.00
   10    2    1      8.01      0.00
   10    2    2    -14.11      0.00
   10    2    3      4.86      0.00
   10    2    4      5.56      0.00
   10    2    5     -7.68      0.00
   10    2    6     -1.32      0.00
   10    2    7      2.14      0.00
   10    2    8     -1.63      0.00
   10    2    9     -0.78      0.00
   10    2   10      0.61      0.00
   10    2   11      0.53      0.00
   10    2   12      0.06      0.00
   10    2   13     -1.89      0.00
   10    2   14      0.89      0.00
   10    2   15      0.78      0.00
   10    2   16     -1.27      0.00
   10    2   17      1.29      0.00
   10    2   18      1.15      0.00
  -10    4   18     -0.58      0.00
  -10    4   17      1.07      0.00
  -10    4   16     -1.31      0.00
  -10    4   15      0.76      0.00
  -10    4   14      0.81      0.00
  -10    4   13     -2.07      0.00
  -10    4   12     -1.08      0.00
  -10    4   11      2.18      0.00
  -10    4   10     -3.28      0.00
  -10    4    9     -2.03      0.00
  -10    4    8      0.79      0.00
  -10    4    7      6.02      0.00
  -10    4    6      3.78      0.00
  -10    4    5     -5.24      0.00
  -10    4    4      5.86      0.00
  -10    4    3     -7.13      0.00
  -10    4    2    -13.03      0.00
  -10    4    1     11.09      0.00
   10    4    0      7.87      0.00
   10    4    1     14.89      0.00
   10    4    2     -4.14      0.00
   10    4    3     -3.48      0.00
   10    4    4     -5.03      0.00
   10    4    5     -0.76      0.00
   10    4    6      4.48      0.00
   10    4    7     -0.14      0.00
   10    4    8     -2.42      0.00
   10    4    9     -2.14      0.00
   10    4   10      0.78      0.00
   10    4   11      1.06      0.00
   10    4   12     -0.45      0.00
   10    4   13     -2.76      0.00
   10    4   14      0.28      0.00
   10    4   15      0.33      0.00
   10    4   16     -0.50      0.00
   10    4   17      1.33      0.00
   10    4   18     -0.98      0.00
  -10    6   18     -1.67      0.00
  -10    6   17     -0.13      0.00
  -10    6   16      0.05      0.00
  -10    6   15      1.53      0.00
  -10    6   14     -0.41      0.00
  -10    6   13     -1.47      0.00
  -10    6   12      0.63      0.00
  -10    6   11      3.84      0.00
  -10    6   10     -2.73      0.00
  -10    6    9     -4.98      0.00
  -10    6    8      0.89      0.00
  -10    6    7      2.67      0.00
  -10    6    6      1.72      0.00
  -10    6    5     -0.34      0.00
  -10    6    4      4.17      0.00
  -10    6    3     -5.31      0.00
  -10    6    2     -9.67      0.00
  -10    6    1      8.61      0.00
   10    6    0      3.82      0.00
   10    6    1     18.32      0.00
   10    6    2     -1.82      0.00
   10    6    3    -11.11      0.00
   10    6    4     -2.39      0.00
   10    6    5      5.05      0.00
   10    6    6      2.98      0.00
   10    6    7     -0.35      0.00
   10    6    8     -3.33      0.00
   10    6    9     -3.87      0.00
   10    6   10      1.59      0.00
   10    6   11      1.08      0.00
   10    6   12     -1.00      0.00
   10    6   13     -2.76      0.00
   10    6   14     -1.46      0.00
   10    6   15     -0.38      0.00
   10    6   16      1.14      0.00
   10    6   17      1.24      0.00
   10    6   18     -1.11      0.00
  -10    8   18      0.11      0.00
  -10    8   17     -0.76      0.00
  -10    8   16     -1.05      0.00
  -10    8   15      1.96      0.00
  -10    8   14     -1.01      0.00
  -10    8   13     -2.14      0.00
  -10    8   12      2.07      0.00
  -10    8   11      3.83      0.00
  -10    8   10      0.29      0.00
  -10    8    9     -5.19      0.00
  -10    8    8     -0.60      0.00
  -10    8    7      2.83      0.00
  -10    8    6     -2.49      0.00
  -10    8    5      0.69      0.00
  -10    8    4      3.53      0.00
  -10    8    3     -3.14      0.00
  -10    8    2     -6.32      0.00
  -10    8    1      4.26      0.00
   10    8    0      1.77      0.00
   10    8    1     11.97      0.00
   10    8    2     -1.06      0.00
   10    8    3     -6.41      0.00
   10    8    4     -0.33      0.00
   10    8    5      0.39      0.00
   10    8    6      4.02      0.00
   10    8    7      1.59      0.00
   10    8    8     -5.76      0.00
   10    8    9     -2.27      0.00
   10    8   10      1.57      0.00
   10    8   11     -1.44      0.00
   10    8   12     -0.69      0.00
   10    8   13     -1.42      0.00
   10    8   14     -3.24      0.00
   10    8   15      0.56      0.00
   10    8   16      3.04      0.00
   10    8   17      0.57      0.00
   10    8   18     -1.02      0.00
  -10   10   17      1.78      0.00
  -10   10   16     -1.96      0.00
  -10   10   15     -0.04      0.00
  -10   10   14     -0.97      0.00
  -10   10   13     -2.33      0.00
  -10   10   12      2.66      0.00
  -10   10   11      2.24      0.00
  -10   10   10      0.12      0.00
  -10   10    9     -2.24      0.00
  -10   10    8     -0.46      0.00
  -10   10    7      4.10      0.00
  -10   10    6     -3.95      0.00
  -10   10    5     -2.75      0.00
  -10   10    4      1.27      0.00
  -10   10    3      1.94      0.00
  -10   10    2     -0.71      0.00
  -10   10    1     -2.23      0.00
   10   10    0     -5.04      0.00
   10   10    1      1.89      0.00
   10   10    2      5.95      0.00
   10   10    3     -0.38      0.00
   10   10    4     -5.19      0.00
   10   10    5     -3.13      0.00
   10   10    6      7.43      0.00
   10   10    7      0.24      0.00
   10   10    8     -4.74      0.00
   10   10    9      1.62      0.00
   10   10   10     -2.31      0.00
   10   10   11     -3.49      0.00
   10   10   12      1.82      0.00
   10   10   13     -0.26      0.00
   10   10   14     -4.03      0.00
   10   10   15      2.44      0.00
   10   10   16      2.84      0.00
   10   10   17     -0.87      0.00
  -10   12   17      3.40      0.00
  -10   12   16     -0.96      0.00
  -10   12   15     -1.18      0.00
  -10   12   14     -0.97      0.00
  -10   12   13     -1.91      0.00
  -10   12   12      1.65      0.00
  -10   12   11      1.34      0.00
  -10   12   10     -2.17      0.00
  -10   12    9     -0.71      0.00
  -10   12    8      2.48      0.00
  -10   12    7      4.29      0.00
  -10   12    6     -3.44      0.00
  -10   12    5     -5.07      0.00
  -10   12    4     -2.42      0.00
  -10   12    3      3.56      0.00
  -10   12    2      4.59      0.00
  -10   12    1     -0.87      0.00
   10   12    0    -10.76      0.00
   10   12    1     -0.43      0.00
   10   12    2     10.08      0.00
   10   12    3      0.20      0.00
   10   12    4     -5.99      0.00
   10   12    5     -3.45      0.00
   10   12    6      4.86      0.00
   10   12    7      0.10      0.00
   10   12    8      0.80      0.00
   10   12    9      1.10      0.00
   10   12   10     -5.46      0.00
   10   12   11     -0.72      0.00
   10   12   12      2.14      0.00
   10   12   13     -1.07      0.00
   10   12   14     -2.75      0.00
   10   12   15      2.80      0.00
   10   12   16      0.98      0.00
   10   12   17     -0.73      0.00
  -10   14   16     -1.66      0.00
  -10   14   15     -0.86      0.00
  -10   14   14      0.25      0.00
  -10   14   13     -0.06      0.00
  -10   14   12     -0.73      0.00
  -10   14   11     -0.69      0.00
  -10   14   10     -1.99      0.00
  -10   14    9     -0.41      0.00
  -10   14    8      3.92      0.00
  -10   14    7      3.74      0.00
  -10   14    6     -2.11      0.00
  -10   14    5     -5.37      0.00
  -10   14    4     -3.23      0.00
  -10   14    3      3.48      0.00
  -10   14    2      1.04      0.00
  -10   14    1      1.67      0.00
   10   14    0     -5.12      0.00
   10   14    1     -1.20      0.00
   10   14    2      5.94      0.00
   10   14    3      1.66      0.00
   10   14    4     -2.38      0.00
   10   14    5     -6.43      0.00
   10   14    6      0.38      0.00
   10   14    7      4.69      0.00
   10   14    8      3.59      0.00
   10   14    9     -2.44      0.00
   10   14   10     -2.74      0.00
   10   14   11      1.60      0.00
   10   14   12     -2.05      0.00
   10   14   13     -0.35      0.00
   10   14   14      0.06      0.00
   10   14   15      0.76      0.00
   10   14   16     -0.14      0.00
  -10   16   15     -1.73      0.00
  -10   16   14      1.17      0.00
  -10   16   13      2.15      0.00
  -10   16   12     -1.05      0.00
  -10   16   11     -3.42      0.00
  -10   16   10     -1.46      0.00
  -10   16    9      0.92      0.00
  -10   16    8      2.95      0.00
  -10   16    7      2.09      0.00
  -10   16    6      0.59      0.00
  -10   16    5     -5.06      0.00
  -10   16    4     -3.93      0.00
  -10   16    3      6.22      0.00
  -10   16    2     -2.28      0.00
  -10   16    1     -3.30      0.00
   10   16    0      0.60      0.00
   10   16    1     -5.47      0.00
   10   16    2      2.37      0.00
   10   16    3      3.20      0.00
   10   16    4     -1.31      0.00
   10   16    5     -7.82      0.00
   10   16    6     -0.42      0.00
   10   16    7      7.39      0.00
   10   16    8      2.51      0.00
   10   16    9     -2.62      0.00
   10   16   10     -0.08      0.00
   10   16   11     -0.76      0.00
   10   16   12     -3.15      0.00
   10   16   13      3.07      0.00
   10   16   14      0.52      0.00
   10   16   15     -2.04      0.00
  -10   18   14      0.99      0.00
  -10   18   13      1.50      0.00
  -10   18   12     -0.42      0.00
  -10   18   11     -2.23      0.00
  -10   18   10     -1.90      0.00
  -10   18    9      0.67      0.00
  -10   18    8      1.98      0.00
  -10   18    7      0.00      0.00
  -10   18    6      2.91      0.00
  -10   18    5     -2.69      0.00
  -10   18    4     -5.63      0.00
  -10   18    3      5.00      0.00
  -10   18    2      0.94      0.00
  -10   18    1     -5.17      0.00
   10   18    0     -0.50      0.00
   10   18    1     -5.83      0.00
   10   18    2      0.87      0.00
   10   18    3      0.98      0.00
   10   18    4     -0.34      0.00
   10   18    5     -4.53      0.00
   10   18    6     -1.14      0.00
   10   18    7      5.73      0.00
   10   18    8      2.21      0.00
   10   18    9     -1.03      0.00
   10   18   10     -1.95      0.00
   10   18   11     -1.65      0.00
   10   18   12      1.41      0.00
   10   18   13      2.84      0.00
   10   18   14     -2.19      0.00
  -10   20   13      0.11      0.00
  -10   20   12     -1.38      0.00
  -10   20   11      0.68      0.00
  -10   20   10     -0.78      0.00
  -10   20    9     -1.32      0.00
  -10   20    8      0.78      0.00
  -10   20    7     -0.90      0.00
  -10   20    6      2.75      0.00
  -10   20    5     -0.41      0.00
  -10   20    4     -3.64      0.00
  -10   20    3      0.07      0.00
  -10   20    2      1.67      0.00
  -10   20    1     -1.38      0.00
   10   20    0     -0.44      0.00
   10   20    1     -3.79      0.00
   10   20    2     -1.98      0.00
   10   20    3      0.42      0.00
   10   20    4      2.35      0.00
   10   20    5     -2.53      0.00
   10   20    6     -2.57      0.00
   10   20    7      4.17      0.00
   10   20    8      1.25      0.00
   10   20    9     -0.86      0.00
   10   20   10     -2.76      0.00
   10   20   11      1.17      0.00
   10   20   12      3.49      0.00
   10   20   13     -2.30      0.00
  -10   22   12     -0.32      0.00
  -10   22   11      1.57      0.00
  -10   22   10     -0.40      0.00
  -10   22    9     -1.36      0.00
  -10   22    8     -0.13      0.00
  -10   22    7     -1.25      0.00
  -10   22    6      1.61      0.00
  -10   22    5     -1.32      0.00
  -10   22    4     -0.84      0.00
  -10   22    3     -0.86      0.00
  -10   22    2      0.00      0.00
  -10   22    1      0.21      0.00
   10   22    0      0.26      0.00
   10   22    1     -3.64      0.00
   10   22    2     -1.62      0.00
   10   22    3      2.87      0.00
   10   22    4      1.35      0.00
   10   22    5     -3.20      0.00
   10   22    6     -0.80      0.00
   10   22    7      2.63      0.00
   10   22    8     -2.35      0.00
   10   22    9      0.37      0.00
   10   22   10     -0.34      0.00
   10   22   11      2.25      0.00
   10   22   12      0.52      0.00
  -10   24   10     -2.45      0.00
  -10   24    9     -0.92      0.00
  -10   24    8      1.64      0.00
  -10   24    7     -1.43      0.00
  -10   24    6     -0.15      0.00
  -10   24    5     -2.33      0.00
  -10   24    4     -0.91      0.00
  -10   24    3     -0.35      0.00
  -10   24    2      0.66      0.00
  -10   24    1      0.85      0.00
   10   24    0     -0.81      0.00
   10   24    1     -1.70      0.00
   10   24    2      1.87      0.00
   10   24    3      1.48      0.00
   10   24    4     -2.83      0.00
   10   24    5     -1.12      0.00
   10   24    6      1.92      0.00
   10   24    7     -0.97      0.00
   10   24    8     -3.98      0.00
   10   24    9      2.67      0.00
   10   24   10      0.68      0.00
  -10   26    8      3.40      0.00
  -10   26    7      0.74      0.00
  -10   26    6     -2.92      0.00
  -10   26    5     -2.52      0.00
  -10   26    4      0.18      0.00
  -10   26    3     -0.95      0.00
  -10   26    2      0.32      0.00
  -10   26    1      1.32      0.00
   10   26    0     -0.55      0.00
   10   26    1      0.32      0.00
   10   26    2      2.33      0.00
   10   26    3     -2.65      0.00
   10   26    4     -3.25      0.00
   10   26    5      2.83      0.00
   10   26    6      0.86      0.00
   10   26    7     -3.13      0.00
   10   26    8     -1.70      0.00
  -10   28    5     -3.86      0.00
  -10   28    4      1.57      0.00
  -10   28    3      0.64      0.00
  -10   28    2     -0.61      0.00
  -10   28    1     -0.36      0.00
   10   28    0     -0.82      0.00
   10   28    1     -1.29      0.00
   10   28    2      1.24      0.00
   10   28    3     -2.55      0.00
   10   28    4     -0.65      0.00
   10   28    5      2.91      0.00
  -11    1   18     -3.57      0.00
  -11    1   17     -0.92      0.00
  -11    1   16      1.09      0.00
  -11    1   15     -0.20      0.00
  -11    1   14      0.33      0.00
  -11    1   13      0.86      0.00
  -11    1   12      1.12      0.00
  -11    1   11     -1.61      0.00
  -11    1   10      3.19      0.00
  -11    1    9     -0.05      0.00
  -11    1    8      0.16      0.00
  -11    1    7      1.10      0.00
  -11    1    6     -5.54      0.00
  -11    1    5      0.11      0.00
  -11    1    4     10.41      0.00
  -11    1    3      2.74      0.00
  -11    1    2    -23.95      0.00
  -11    1    1     -5.75      0.00
   11    1    0     -0.70      0.00
   11    1    1     -1.88      0.00
   11    1    2     12.26      0.00
   11    1    3     -3.06      0.00
   11    1    4     -7.30      0.00
   11    1    5      3.20      0.00
   11    1    6      4.39      0.00
   11    1    7     -2.66      0.00
   11    1    8     -2.08      0.00
   11    1    9      1.67      0.00
   11    1   10      2.71      0.00
   11    1   11     -0.76      0.00
   11    1   12     -2.59      0.00
   11    1   13      0.85      0.00
   11    1   14      3.06      0.00
   11    1   15      0.11      0.00
   11    1   16      1.98      0.00
   11    1   17      0.11      0.00
   11    1   18     -0.83      0.00
  -11    3   18     -1.49      0.00
  -11    3   17     -2.37      0.00
  -11    3   16     -0.19      0.00
  -11    3   15     -0.78      0.00
  -11    3   14      0.16      0.00
  -11    3   13      1.85      0.00
  -11    3   12      2.41      0.00
  -11    3   11     -4.26      0.00
  -11    3   10      3.06      0.00
  -11    3    9      2.57      0.00
  -11    3    8     -4.00      0.00
  -11    3    7      1.21      0.00
  -11    3    6     -1.93      0.00
  -11    3    5      1.04      0.00
  -11    3    4      3.72      0.00
  -11    3    3      0.14      0.00
  -11    3    2     -7.18      0.00
  -11    3    1     -5.58      0.00
   11    3    0     -8.43      0.00
   11    3    1     -2.21      0.00
   11    3    2      7.98      0.00
   11    3    3     -3.95      0.00
   11    3    4      0.44      0.00
   11    3    5      2.24      0.00
   11    3    6     -1.39      0.00
   11    3    7     -3.06      0.00
   11    3    8      1.02      0.00
   11    3    9      2.60      0.00
   11    3   10     -0.49      0.00
   11    3   11     -0.26      0.00
   11    3   12      0.50      0.00
   11    3   13      1.11      0.00
   11    3   14      1.42      0.00
   11    3   15      1.03      0.00
   11    3   16      2.86      0.00
   11    3   17     -0.22      0.00
   11    3   18     -0.70      0.00
  -11    5   18      1.43      0.00
  -11    5   17     -2.05      0.00
  -11    5   16     -1.86      0.00
  -11    5   15     -1.92      0.00
  -11    5   14      0.43      0.00
  -11    5   13      1.80      0.00
  -11    5   12      2.12      0.00
  -11    5   11     -4.90      0.00
  -11    5   10      1.38      0.00
  -11    5    9      7.31      0.00
  -11    5    8     -5.63      0.00
  -11    5    7     -1.89      0.00
  -11    5    6      1.78      0.00
  -11    5    5      1.35      0.00
  -11    5    4      1.77      0.00
  -11    5    3     -7.36      0.00
  -11    5    2     -0.37      0.00
  -11    5    1      3.93      0.00
   11    5    0     -7.18      0.00
   11    5    1     -0.11      0.00
   11    5    2      3.71      0.00
   11    5    3     -0.57      0.00
   11    5    4      1.74      0.00
   11    5    5     -3.71      0.00
   11    5    6     -1.15      0.00
   11    5    7      0.48      0.00
   11    5    8      1.84      0.00
   11    5    9      1.48      0.00
   11    5   10     -2.38      0.00
   11    5   11      1.27      0.00
   11    5   12      1.65      0.00
   11    5   13      0.50      0.00
   11    5   14      1.13      0.00
   11    5   15      2.35      0.00
   11    5   16      2.59      0.00
   11    5   17     -1.33      0.00
   11    5   18     -0.65      0.00
  -11    7   18      1.80      0.00
  -11    7   17     -0.68      0.00
  -11    7   16     -1.55      0.00
  -11    7   15     -2.42      0.00
  -11    7   14      0.68      0.00
  -11    7   13      1.14      0.00
  -11    7   12     -0.90      0.00
  -11    7   11     -3.12      0.00
  -11    7   10      0.10      0.00
  -11    7    9      7.59      0.00
  -11    7    8     -2.86      0.00
  -11    7    7     -3.99      0.00
  -11    7    6      3.45      0.00
  -11    7    5     -0.81      0.00
  -11    7    4      2.65      0.00
  -11    7    3     -5.33      0.00
  -11    7    2     -2.36      0.00
  -11    7    1      4.32      0.00
   11    7    0     -0.24      0.00
   11    7    1      0.26      0.00
   11    7    2      0.81      0.00
   11    7    3     -2.35      0.00
   11    7    4     -0.02      0.00
   11    7    5     -1.06      0.00
   11    7    6      1.02      0.00
   11    7    7     -0.13      0.00
   11    7    8      2.08      0.00
   11    7    9      0.89      0.00
   11    7   10     -3.10      0.00
   11    7   11      1.18      0.00
   11    7   12      0.96      0.00
   11    7   13      0.93      0.00
   11    7   14      2.18      0.00
   11    7   15      2.24      0.00
   11    7   16      0.42      0.00
   11    7   17     -1.84      0.00
   11    7   18      0.11      0.00
  -11    9   17     -1.59      0.00
  -11    9   16      0.38      0.00
  -11    9   15     -0.60      0.00
  -11    9   14      1.03      0.00
  -11    9   13      0.44      0.00
  -11    9   12     -4.43      0.00
  -11    9   11     -1.59      0.00
  -11    9   10      1.80      0.00
  -11    9    9      3.15      0.00
  -11    9    8     -1.35      0.00
  -11    9    7     -2.66      0.00
  -11    9    6      4.63      0.00
  -11    9    5     -1.40      0.00
  -11    9    4     -0.98      0.00
  -11    9    3     -1.57      0.00
  -11    9    2      1.18      0.00
  -11    9    1      1.77      0.00
   11    9    0      2.67      0.00
   11    9    1      1.57      0.00
   11    9    2     -3.38      0.00
   11    9    3     -6.05      0.00
   11    9    4      5.54      0.00
   11    9    5      4.61      0.00
   11    9    6     -3.83      0.00
   11    9    7     -1.57      0.00
   11    9    8      3.63      0.00
   11    9    9     -0.95      0.00
   11    9   10     -2.63      0.00
   11    9   11      1.22      0.00
   11    9   12     -0.13      0.00
   11    9   13      0.81      0.00
   11    9   14      3.08      0.00
   11    9   15      0.93      0.00
   11    9   16     -1.75      0.00
   11    9   17     -0.47      0.00
  -11   11   17     -4.24      0.00
  -11   11   16      0.84      0.00
  -11   11   15      1.49      0.00
  -11   11   14      1.78      0.00
  -11   11   13      0.84      0.00
  -11   11   12     -4.83      0.00
  -11   11   11     -2.38      0.00
  -11   11   10      3.91      0.00
  -11   11    9      0.33      0.00
  -11   11    8     -3.43      0.00
  -11   11    7     -1.06      0.00
  -11   11    6      5.00      0.00
  -11   11    5      1.87      0.00
  -11   11    4     -2.90      0.00
  -11   11    3     -4.68      0.00
  -11   11    2      3.17      0.00
  -11   11    1      4.17      0.00
   11   11    0      4.98      0.00
   11   11    1      3.71      0.00
   11   11    2     -6.63      0.00
   11   11    3     -4.61      0.00
   11   11    4     10.84      0.00
   11   11    5      3.58      0.00
   11   11    6     -8.16      0.00
   11   11    7      0.13      0.00
   11   11    8      1.97      0.00
   11   11    9     -2.31      0.00
   11   11   10      0.60      0.00
   11   11   11      0.33      0.00
   11   11   12     -1.55      0.00
   11   11   13      0.48      0.00
   11   11   14      3.37      0.00
   11   11   15     -0.43      0.00
   11   11   16     -2.01      0.00
   11   11   17      1.55      0.00
  -11   13   16      0.14      0.00
  -11   13   15      0.88      0.00
  -11   13   14      1.54      0.00
  -11   13   13      1.56      0.00
  -11   13   12     -1.69      0.00
  -11   13   11     -2.63      0.00
  -11   13   10      3.11      0.00
  -11   13    9      0.54      0.00
  -11   13    8     -4.83      0.00
  -11   13    7     -0.75      0.00
  -11   13    6      3.27      0.00
  -11   13    5      3.12      0.00
  -11   13    4      0.01      0.00
  -11   13    3     -4.98      0.00
  -11   13    2     -0.09      0.00
  -11   13    1      4.12      0.00
   11   13    0      6.51      0.00
   11   13    1      4.71      0.00
   11   13    2     -5.09      0.00
   11   13    3     -2.59      0.00
   11   13    4      8.38      0.00
   11   13    5      1.78      0.00
   11   13    6     -5.65      0.00
   11   13    7     -0.18      0.00
   11   13    8     -1.80      0.00
   11   13    9      0.65      0.00
   11   13   10      2.20      0.00
   11   13   11     -2.90      0.00
   11   13   12     -0.34      0.00
   11   13   13      0.97      0.00
   11   13   14      1.92      0.00
   11   13   15     -1.02      0.00
   11   13   16     -0.52      0.00
  -11   15   16      0.97      0.00
  -11   15   15     -1.01      0.00
  -11   15   14      0.05      0.00
  -11   15   13      1.12      0.00
  -11   15   12      0.49      0.00
  -11   15   11     -0.33      0.00
  -11   15   10      2.05      0.00
  -11   15    9      0.16      0.00
  -11   15    8     -3.95      0.00
  -11   15    7     -0.27      0.00
  -11   15    6      1.79      0.00
  -11   15    5      1.78      0.00
  -11   15    4     -0.29      0.00
  -11   15    3     -1.31      0.00
  -11   15    2      0.45      0.00
  -11   15    1      2.16      0.00
   11   15    0      3.99      0.00
   11   15    1      6.12      0.00
   11   15    2     -2.13      0.00
   11   15    3     -2.88      0.00
   11   15    4      4.63      0.00
   11   15    5      2.94      0.00
   11   15    6     -2.71      0.00
   11   15    7     -2.86      0.00
   11   15    8     -1.63      0.00
   11   15    9      3.76      0.00
   11   15   10     -0.54      0.00
   11   15   11     -3.74      0.00
   11   15   12      2.60      0.00
   11   15   13     -0.25      0.00
   11   15   14      0.47      0.00
   11   15   15      0.02      0.00
  -11   17   15     -1.22      0.00
  -11   17   14     -1.17      0.00
  -11   17   13      0.73      0.00
  -11   17   12     -0.02      0.00
  -11   17   11      0.72      0.00
  -11   17   10      3.27      0.00
  -11   17    9     -0.23      0.00
  -11   17    8     -3.13      0.00
  -11   17    7     -0.35      0.00
  -11   17    6      0.77      0.00
  -11   17    5      3.43      0.00
  -11   17    4     -2.31      0.00
  -11   17    3     -1.94      0.00
  -11   17    2      2.64      0.00
  -11   17    1      2.93      0.00
   11   17    0      1.40      0.00
   11   17    1      6.83      0.00
   11   17    2     -0.28      0.00
   11   17    3     -1.64      0.00
   11   17    4      2.18      0.00
   11   17    5      2.71      0.00
   11   17    6     -1.61      0.00
   11   17    7     -3.00      0.00
   11   17    8      0.70      0.00
   11   17    9      2.74      0.00
   11   17   10     -1.99      0.00
   11   17   11     -1.23      0.00
   11   17   12      1.15      0.00
   11   17   13     -1.61      0.00
   11   17   14      2.89      0.00
   11   17   15      0.65      0.00
  -11   19   14     -1.41      0.00
  -11   19   13      1.05      0.00
  -11   19   12     -0.11      0.00
  -11   19   11     -0.88      0.00
  -11   19   10      3.57      0.00
  -11   19    9      1.51      0.00
  -11   19    8     -1.94      0.00
  -11   19    7     -1.46      0.00
  -11   19    6     -1.77      0.00
  -11   19    5      5.21      0.00
  -11   19    4      0.08      0.00
  -11   19    3     -3.04      0.00
  -11   19    2      1.24      0.00
  -11   19    1      2.27      0.00
   11   19    0      0.74      0.00
   11   19    1      5.26      0.00
   11   19    2      1.95      0.00
   11   19    3     -0.58      0.00
   11   19    4     -1.41      0.00
   11   19    5      2.44      0.00
   11   19    6      0.64      0.00
   11   19    7     -1.94      0.00
   11   19    8      1.23      0.00
   11   19    9      1.26      0.00
   11   19   10     -0.30      0.00
   11   19   11     -0.98      0.00
   11   19   12     -2.60      0.00
   11   19   13      1.65      0.00
   11   19   14      5.49      0.00
  -11   21   12      0.05      0.00
  -11   21   11     -1.92      0.00
  -11   21   10      2.07      0.00
  -11   21    9      2.68      0.00
  -11   21    8      0.33      0.00
  -11   21    7     -1.44      0.00
  -11   21    6     -3.25      0.00
  -11   21    5      3.10      0.00
  -11   21    4      2.53      0.00
  -11   21    3     -0.91      0.00
  -11   21    2      0.30      0.00
  -11   21    1     -0.54      0.00
   11   21    0      0.02      0.00
   11   21    1      2.88      0.00
   11   21    2      2.59      0.00
   11   21    3     -1.48      0.00
   11   21    4     -2.72      0.00
   11   21    5      3.88      0.00
   11   21    6      2.39      0.00
   11   21    7     -1.53      0.00
   11   21    8      1.53      0.00
   11   21    9      0.92      0.00
   11   21   10     -0.37      0.00
   11   21   11     -2.46      0.00
   11   21   12     -1.28      0.00
  -11   23   11     -3.04      0.00
  -11   23   10      1.75      0.00
  -11   23    9      1.84      0.00
  -11   23    8      0.73      0.00
  -11   23    7     -0.15      0.00
  -11   23    6     -0.91      0.00
  -11   23    5      0.66      0.00
  -11   23    4      2.37      0.00
  -11   23    3     -0.22      0.00
  -11   23    2      0.21      0.00
  -11   23    1     -1.03      0.00
   11   23    0     -0.44      0.00
   11   23    1      0.67      0.00
   11   23    2      1.27      0.00
   11   23    3     -0.14      0.00
   11   23    4     -0.60      0.00
   11   23    5      3.07      0.00
   11   23    6      2.69      0.00
   11   23    7      0.13      0.00
   11   23    8      1.25      0.00
   11   23    9     -0.84      0.00
   11   23   10     -1.80      0.00
   11   23   11     -0.91      0.00
  -11   25    9      1.84      0.00
  -11   25    8     -1.15      0.00
  -11   25    7     -0.74      0.00
  -11   25    6      3.29      0.00
  -11   25    5      0.06      0.00
  -11   25    4      1.98      0.00
  -11   25    3     -0.02      0.00
  -11   25    2     -1.73      0.00
  -11   25    1     -0.01      0.00
   11   25    0      0.45      0.00
   11   25    1      0.58      0.00
   11   25    2      0.99      0.00
   11   25    3      2.25      0.00
   11   25    4      0.60      0.00
   11   25    5      0.27      0.00
   11   25    6      3.11      0.00
   11   25    7      1.28      0.00
   11   25    8     -0.88      0.00
   11   25    9     -1.84      0.00
  -11   27    6      5.11      0.00
  -11   27    5      0.88      0.00
  -11   27    4      0.55      0.00
  -11   27    3      1.78      0.00
  -11   27    2     -2.37      0.00
  -11   27    1     -0.44      0.00
   11   27    0      2.54      0.00
   11   27    1      3.04      0.00
   11   27    2      0.07      0.00
   11   27    3      1.02      0.00
   11   27    4      0.78      0.00
   11   27    5     -0.59      0.00
   11   27    6      2.39      0.00
  -12    0   18      3.23      0.00
  -12    0   16     -0.37      0.00
  -12    0   14      2.02      0.00
  -12    0   12     -1.97      0.00
  -12    0   10     -5.43      0.00
  -12    0    8      4.36      0.00
  -12    0    6     -1.99      0.00
  -12    0    4      1.69      0.00
  -12    0    2      7.85      0.00
   12    0    0      1.09      0.00
   12    0    2      1.51      0.00
   12    0    4     -1.56      0.00
   12    0    6     -1.09      0.00
   12    0    8      2.19      0.00
   12    0   10     -2.60      0.00
   12    0   12      1.90      0.00
   12    0   14     -3.15      0.00
   12    0   16     -1.22      0.00
   12    0   18     -0.94      0.00
  -12    2   18      1.81      0.00
  -12    2   17      2.43      0.00
  -12    2   16      1.37      0.00
  -12    2   15     -1.54      0.00
  -12    2   14     -0.26      0.00
  -12    2   13      1.60      0.00
  -12    2   12     -0.04      0.00
  -12    2   11      1.17      0.00
  -12    2   10     -6.14      0.00
  -12    2    9     -1.91      0.00
  -12    2    8      6.88      0.00
  -12    2    7     -3.92      0.00
  -12    2    6     -4.39      0.00
  -12    2    5      2.59      0.00
  -12    2    4      2.27      0.00
  -12    2    3      4.06      0.00
  -12    2    2      3.84      0.00
  -12    2    1     -0.97      0.00
   12    2    0      5.28      0.00
   12    2    1     -1.09      0.00
   12    2    2      0.03      0.00
   12    2    3     -1.70      0.00
   12    2    4     -2.10      0.00
   12    2    5      2.84      0.00
   12    2    6      0.58      0.00
   12    2    7      1.78      0.00
   12    2    8      0.25      0.00
   12    2    9     -1.95      0.00
   12    2   10     -1.02      0.00
   12    2   11      1.10      0.00
   12    2   12      0.72      0.00
   12    2   13     -0.53      0.00
   12    2   14     -2.42      0.00
   12    2   15      0.09      0.00
   12    2   16     -1.61      0.00
   12    2   17     -1.62      0.00
   12    2   18     -0.25      0.00
  -12    4   18     -0.57      0.00
  -12    4   17      2.18      0.00
  -12    4   16      3.66      0.00
  -12    4   15     -0.32      0.00
  -12    4   14     -3.06      0.00
  -12    4   13      0.08      0.00
  -12    4   12      2.25      0.00
  -12    4   11      3.55      0.00
  -12    4   10     -5.88      0.00
  -12    4    9     -6.19      0.00
  -12    4    8     10.21      0.00
  -12    4    7     -1.15      0.00
  -12    4    6     -8.63      0.00
  -12    4    5      1.26      0.00
  -12    4    4      0.74      0.00
  -12    4    3     11.46      0.00
  -12    4    2      3.99      0.00
  -12    4    1    -11.03      0.00
   12    4    0      4.16      0.00
   12    4    1     -8.61      0.00
   12    4    2      0.54      0.00
   12    4    3     -0.63      0.00
   12    4    4     -2.04      0.00
   12    4    5      5.90      0.00
   12    4    6      1.36      0.00
   12    4    7     -0.64      0.00
   12    4    8     -1.63      0.00
   12    4    9     -0.03      0.00
   12    4   10      0.71      0.00
   12    4   11     -0.22      0.00
   12    4   12     -0.08      0.00
   12    4   13      0.21      0.00
   12    4   14     -1.18      0.00
   12    4   15     -0.05      0.00
   12    4   16     -2.79      0.00
   12    4   17     -1.76      0.00
   12    4   18      1.21      0.00
  -12    6   18     -0.90      0.00
  -12    6   17      0.59      0.00
  -12    6   16      2.98      0.00
  -12    6   15      0.89      0.00
  -12    6   14     -2.43      0.00
  -12    6   13     -0.61      0.00
  -12    6   12      2.41      0.00
  -12    6   11      2.96      0.00
  -12    6   10     -4.55      0.00
  -12    6    9     -7.48      0.00
  -12    6    8      9.66      0.00
  -12    6    7      4.37      0.00
  -12    6    6     -9.18      0.00
  -12    6    5     -1.65      0.00
  -12    6    4     -3.33      0.00
  -12    6    3     11.01      0.00
  -12    6    2     12.51      0.00
  -12    6    1    -11.53      0.00
   12    6    0     -7.93      0.00
   12    6    1    -10.03      0.00
   12    6    2      5.61      0.00
   12    6    3      2.46      0.00
   12    6    4     -2.14      0.00
   12    6    5      4.15      0.00
   12    6    6     -0.51      0.00
   12    6    7     -2.28      0.00
   12    6    8     -0.63      0.00
   12    6    9      2.15      0.00
   12    6   10      1.00      0.00
   12    6   11     -0.52      0.00
   12    6   12      0.56      0.00
   12    6   13      0.31      0.00
   12    6   14     -0.24      0.00
   12    6   15     -1.19      0.00
   12    6   16     -3.54      0.00
   12    6   17      0.39      0.00
   12    6   18      1.58      0.00
  -12    8   17      0.49      0.00
  -12    8   16      0.73      0.00
  -12    8   15     -0.26      0.00
  -12    8   14     -1.26      0.00
  -12    8   13      1.68      0.00
  -12    8   12      3.51      0.00
  -12    8   11     -0.32      0.00
  -12    8   10     -5.70      0.00
  -12    8    9     -3.46      0.00
  -12    8    8      7.29      0.00
  -12    8    7      4.21      0.00
  -12    8    6     -5.54      0.00
  -12    8    5     -1.71      0.00
  -12    8    4     -3.23      0.00
  -12    8    3      2.92      0.00
  -12    8    2     10.59      0.00
  -12    8    1     -0.38      0.00
   12    8    0    -10.37      0.00
   12    8    1     -2.63      0.00
   12    8    2      7.33      0.00
   12    8    3      4.08      0.00
   12    8    4     -5.58      0.00
   12    8    5     -0.61      0.00
   12    8    6      0.97      0.00
   12    8    7     -0.58      0.00
   12    8    8     -0.50      0.00
   12    8    9      2.14      0.00
   12    8   10      2.34      0.00
   12    8   11      0.50      0.00
   12    8   12     -0.16      0.00
   12    8   13      0.31      0.00
   12    8   14      0.35      0.00
   12    8   15     -3.33      0.00
   12    8   16     -1.97      0.00
   12    8   17      2.64      0.00
  -12   10   17      1.98      0.00
  -12   10   16     -0.20      0.00
  -12   10   15     -1.81      0.00
  -12   10   14     -1.60      0.00
  -12   10   13      2.97      0.00
  -12   10   12      4.97      0.00
  -12   10   11     -1.17      0.00
  -12   10   10     -7.19      0.00
  -12   10    9      0.87      0.00
  -12   10    8      6.45      0.00
  -12   10    7     -1.67      0.00
  -12   10    6     -2.78      0.00
  -12   10    5      0.55      0.00
  -12   10    4      0.37      0.00
  -12   10    3      1.12      0.00
  -12   10    2     -0.03      0.00
  -12   10    1      0.37      0.00
   12   10    0     -1.78      0.00
   12   10    1     -1.03      0.00
   12   10    2      3.36      0.00
   12   10    3      3.69      0.00
   12   10    4     -9.12      0.00
   12   10    5     -0.90      0.00
   12   10    6      5.39      0.00
   12   10    7     -0.04      0.00
   12   10    8     -2.08      0.00
   12   10    9      1.50      0.00
   12   10   10      3.27      0.00
   12   10   11      0.26      0.00
   12   10   12     -0.59      0.00
   12   10   13      1.76      0.00
   12   10   14     -0.62      0.00
   12   10   15     -4.59      0.00
   12   10   16      0.82      0.00
   12   10   17      2.08      0.00
  -12   12   16      0.68      0.00
  -12   12   15     -2.02      0.00
  -12   12   14     -1.48      0.00
  -12   12   13      2.19      0.00
  -12   12   12      3.07      0.00
  -12   12   11     -0.12      0.00
  -12   12   10     -4.96      0.00
  -12   12    9      2.09      0.00
  -12   12    8      6.28      0.00
  -12   12    7     -5.43      0.00
  -12   12    6     -3.16      0.00
  -12   12    5      2.61      0.00
  -12   12    4      1.09      0.00
  -12   12    3      2.71      0.00
  -12   12    2     -0.67      0.00
  -12   12    1     -6.54      0.00
   12   12    0     -0.89      0.00
   12   12    1     -5.67      0.00
   12   12    2      0.98      0.00
   12   12    3      3.40      0.00
   12   12    4     -8.30      0.00
   12   12    5      2.08      0.00
   12   12    6      6.25      0.00
   12   12    7     -1.62      0.00
   12   12    8     -2.68      0.00
   12   12    9      0.12      0.00
   12   12   10      2.06      0.00
   12   12   11      0.83      0.00
   12   12   12      1.11      0.00
   12   12   13      1.64      0.00
   12   12   14     -2.54      0.00
   12   12   15     -3.01      0.00
   12   12   16      1.69      0.00
  -12   14   16      1.79      0.00
  -12   14   15     -0.81      0.00
  -12   14   14     -0.54      0.00
  -12   14   13      1.76      0.00
  -12   14   12     -0.11      0.00
  -12   14   11     -0.72      0.00
  -12   14   10     -1.27      0.00
  -12   14    9      1.78      0.00
  -12   14    8      3.95      0.00
  -12   14    7     -4.03      0.00
  -12   14    6     -3.70      0.00
  -12   14    5      3.27      0.00
  -12   14    4      1.80      0.00
  -12   14    3     -1.44      0.00
  -12   14    2      2.79      0.00
  -12   14    1     -4.78      0.00
   12   14    0     -4.83      0.00
   12   14    1     -5.97      0.00
   12   14    2      1.04      0.00
   12   14    3      3.24      0.00
   12   14    4     -5.07      0.00
   12   14    5      2.85      0.00
   12   14    6      3.79      0.00
   12   14    7     -2.61      0.00
   12   14    8     -2.77      0.00
   12   14    9     -1.37      0.00
   12   14   10      1.82      0.00
   12   14   11      2.66      0.00
   12   14   12      1.01      0.00
   12   14   13     -0.71      0.00
   12   14   14     -2.35      0.00
   12   14   15     -0.22      0.00
   12   14   16      0.56      0.00
  -12   16   15      1.04      0.00
  -12   16   14      0.33      0.00
  -12   16   13      1.36      0.00
  -12   16   12     -0.74      0.00
  -12   16   11     -1.71      0.00
  -12   16   10     -0.24      0.00
  -12   16    9      2.20      0.00
  -12   16    8      0.66      0.00
  -12   16    7     -2.24      0.00
  -12   16    6     -2.54      0.00
  -12   16    5      1.28      0.00
  -12   16    4      4.82      0.00
  -12   16    3     -3.13      0.00
  -12   16    2     -0.72      0.00
  -12   16    1     -1.34      0.00
   12   16    0     -2.57      0.00
   12   16    1     -4.57      0.00
   12   16    2     -0.72      0.00
   12   16    3      3.23      0.00
   12   16    4     -2.12      0.00
   12   16    5      1.30      0.00
   12   16    6      1.89      0.00
   12   16    7     -2.47      0.00
   12   16    8     -3.32      0.00
   12   16    9     -1.17      0.00
   12   16   10      2.83      0.00
   12   16   11      1.90      0.00
   12   16   12     -0.91      0.00
   12   16   13     -0.91      0.00
   12   16   14     -1.48      0.00
   12   16   15      1.20      0.00
  -12   18   14      1.38      0.00
  -12   18   13      0.30      0.00
  -12   18   12     -0.24      0.00
  -12   18   11     -0.80      0.00
  -12   18   10     -1.36      0.00
  -12   18    9      1.97      0.00
  -12   18    8      0.12      0.00
  -12   18    7     -1.49      0.00
  -12   18    6     -1.25      0.00
  -12   18    5     -1.53      0.00
  -12   18    4      3.82      0.00
  -12   18    3      0.84      0.00
  -12   18    2     -2.58      0.00
  -12   18    1     -2.49      0.00
   12   18    0     -0.24      0.00
   12   18    1     -5.01      0.00
   12   18    2     -1.99      0.00
   12   18    3      3.72      0.00
   12   18    4     -0.51      0.00
   12   18    5     -0.88      0.00
   12   18    6      1.66      0.00
   12   18    7     -1.45      0.00
   12   18    8     -3.97      0.00
   12   18    9     -0.97      0.00
   12   18   10      2.21      0.00
   12   18   11      0.17      0.00
   12   18   12      0.07      0.00
   12   18   13     -0.22      0.00
   12   18   14     -3.01      0.00
  -12   20   13     -0.36      0.00
  -12   20   12     -0.51      0.00
  -12   20   11      0.77      0.00
  -12   20   10     -1.41      0.00
  -12   20    9     -0.61      0.00
  -12   20    8      0.36      0.00
  -12   20    7      1.15      0.00
  -12   20    6     -0.53      0.00
  -12   20    5     -1.73      0.00
  -12   20    4     -0.20      0.00
  -12   20    3      1.13      0.00
  -12   20    2     -1.20      0.00
  -12   20    1     -0.05      0.00
   12   20    0     -0.06      0.00
   12   20    1     -1.76      0.00
   12   20    2     -1.37      0.00
   12   20    3      1.93      0.00
   12   20    4     -1.01      0.00
   12   20    5     -1.32      0.00
   12   20    6      2.39      0.00
   12   20    7     -1.34      0.00
   12   20    8     -4.38      0.00
   12   20    9     -1.65      0.00
   12   20   10      1.10      0.00
   12   20   11      1.55      0.00
   12   20   12      1.68      0.00
   12   20   13     -2.30      0.00
  -12   22   11      1.82      0.00
  -12   22   10      0.21      0.00
  -12   22    9     -2.79      0.00
  -12   22    8     -1.94      0.00
  -12   22    7      3.48      0.00
  -12   22    6      0.38      0.00
  -12   22    5      0.00      0.00
  -12   22    4     -1.33      0.00
  -12   22    3     -0.46      0.00
  -12   22    2     -3.49      0.00
  -12   22    1      2.48      0.00
   12   22    0      3.60      0.00
   12   22    1      2.54      0.00
   12   22    2     -2.93      0.00
   12   22    3     -2.40      0.00
   12   22    4     -1.05      0.00
   12   22    5      1.32      0.00
   12   22    6      0.95      0.00
   12   22    7     -3.17      0.00
   12   22    8     -2.17      0.00
   12   22    9     -1.18      0.00
   12   22   10      0.98      0.00
   12   22   11      2.97      0.00
  -12   24   10      1.78      0.00
  -12   24    9     -2.51      0.00
  -12   24    8     -3.48      0.00
  -12   24    7      2.54      0.00
  -12   24    6      0.12      0.00
  -12   24    5      1.95      0.00
  -12   24    4     -1.47      0.00
  -12   24    3      0.68      0.00
  -12   24    2     -3.66      0.00
  -12   24    1     -1.03      0.00
   12   24    0      5.10      0.00
   12   24    1      0.91      0.00
   12   24    2     -5.35      0.00
   12   24    3     -4.06      0.00
   12   24    4      0.77      0.00
   12   24    5      2.87      0.00
   12   24    6     -2.40      0.00
   12   24    7     -2.64      0.00
   12   24    8      1.98      0.00
   12   24    9     -0.76      0.00
  -12   26    7      1.94      0.00
  -12   26    6     -2.10      0.00
  -12   26    5      2.87      0.00
  -12   26    4     -1.75      0.00
  -12   26    3     -0.37      0.00
  -12   26    2      0.88      0.00
  -12   26    1     -2.05      0.00
   12   26    0      0.09      0.00
   12   26    1     -2.00      0.00
   12   26    2     -3.90      0.00
   12   26    3     -1.85      0.00
   12   26    4      0.92      0.00
   12   26    5      1.27      0.00
   12   26    6     -1.83      0.00
   12   26    7      0.64      0.00
  -12   28    3     -2.91      0.00
  -12   28    2      2.02      0.00
  -12   28    1      2.10      0.00
   12   28    0     -3.22      0.00
   12   28    1     -0.83      0.00
   12   28    2     -0.55      0.00
   12   28    3      0.04      0.00
  -13    1   18      0.39      0.00
  -13    1   17     -0.75      0.00
  -13    1   16     -1.59      0.00
  -13    1   15      1.27      0.00
  -13    1   14     -2.33      0.00
  -13    1   13     -1.98      0.00
  -13    1   12      2.02      0.00
  -13    1   11      1.97      0.00
  -13    1   10     -0.25      0.00
  -13    1    9     -0.12      0.00
  -13    1    8     -1.08      0.00
  -13    1    7     -0.02      0.00
  -13    1    6      2.33      0.00
  -13    1    5     -0.09      0.00
  -13    1    4     -6.12      0.00
  -13    1    3     -1.87      0.00
  -13    1    2      8.49      0.00
  -13    1    1      0.62      0.00
   13    1    0     -1.10      0.00
   13    1    1     -1.09      0.00
   13    1    2     -7.13      0.00
   13    1    3      3.13      0.00
   13    1    4      1.13      0.00
   13    1    5     -1.72      0.00
   13    1    6      2.04      0.00
   13    1    7     -0.40      0.00
   13    1    8     -1.17      0.00
   13    1    9      0.13      0.00
   13    1   10     -0.57      0.00
   13    1   11     -0.53      0.00
   13    1   12      1.06      0.00
   13    1   13      0.38      0.00
   13    1   14      0.17      0.00
   13    1   15     -0.25      0.00
   13    1   16     -0.81      0.00
   13    1   17     -0.18      0.00
   13    1   18      0.45      0.00
  -13    3   18      0.78      0.00
  -13    3   17     -1.08      0.00
  -13    3   16     -2.89      0.00
  -13    3   15      2.20      0.00
  -13    3   14      1.24      0.00
  -13    3   13     -2.93      0.00
  -13    3   12     -3.42      0.00
  -13    3   11      2.35      0.00
  -13    3   10      4.44      0.00
  -13    3    9      0.83      0.00
  -13    3    8     -3.50      0.00
  -13    3    7     -0.06      0.00
  -13    3    6      2.62      0.00
  -13    3    5     -1.33      0.00
  -13    3    4     -1.99      0.00
  -13    3    3     -3.80      0.00
  -13    3    2      2.32      0.00
  -13    3    1      4.05      0.00
   13    3    0     -0.66      0.00
   13    3    1      1.47      0.00
   13    3    2     -4.47      0.00
   13    3    3      5.80      0.00
   13    3    4      1.24      0.00
   13    3    5     -4.39      0.00
   13    3    6     -0.89      0.00
   13    3    7      0.65      0.00
   13    3    8      1.34      0.00
   13    3    9     -1.45      0.00
   13    3   10     -0.15      0.00
   13    3   11     -0.72      0.00
   13    3   12     -0.46      0.00
   13    3   13      0.91      0.00
   13    3   14      0.85      0.00
   13    3   15     -1.65      0.00
   13    3   16     -1.95      0.00
   13    3   17      0.79      0.00
   13    3   18      1.21      0.00
  -13    5   18      0.37      0.00
  -13    5   17      0.02      0.00
  -13    5   16     -2.53      0.00
  -13    5   15      1.58      0.00
  -13    5   14      2.77      0.00
  -13    5   13     -1.23      0.00
  -13    5   12     -5.37      0.00
  -13    5   11     -0.28      0.00
  -13    5   10      7.04      0.00
  -13    5    9      2.34      0.00
  -13    5    8     -6.61      0.00
  -13    5    7     -1.38      0.00
  -13    5    6      5.29      0.00
  -13    5    5     -0.87      0.00
  -13    5    4     -0.28      0.00
  -13    5    3     -2.61      0.00
  -13    5    2     -7.00      0.00
  -13    5    1      5.29      0.00
   13    5    0      7.31      0.00
   13    5    1      5.49      0.00
   13    5    2     -7.00      0.00
   13    5    3      4.14      0.00
   13    5    4      3.29      0.00
   13    5    5     -5.00      0.00
   13    5    6     -3.39      0.00
   13    5    7      3.36      0.00
   13    5    8      1.94      0.00
   13    5    9     -4.45      0.00
   13    5   10      1.72      0.00
   13    5   11     -0.59      0.00
   13    5   12     -2.66      0.00
   13    5   13      1.41      0.00
   13    5   14      0.59      0.00
   13    5   15     -2.92      0.00
   13    5   16     -0.97      0.00
   13    5   17      1.94      0.00
  -13    7   17      0.55      0.00
  -13    7   16     -0.72      0.00
  -13    7   15      1.78      0.00
  -13    7   14      2.08      0.00
  -13    7   13     -1.63      0.00
  -13    7   12     -3.46      0.00
  -13    7   11     -0.19      0.00
  -13    7   10      6.93      0.00
  -13    7    9      2.26      0.00
  -13    7    8     -8.05      0.00
  -13    7    7     -3.76      0.00
  -13    7    6      5.31      0.00
  -13    7    5      3.36      0.00
  -13    7    4     -0.24      0.00
  -13    7    3     -0.87      0.00
  -13    7    2    -10.73      0.00
  -13    7    1     -0.87      0.00
   13    7    0     12.85      0.00
   13    7    1      1.11      0.00
   13    7    2    -10.33      0.00
   13    7    3      3.73      0.00
   13    7    4      6.25      0.00
   13    7    5     -4.26      0.00
   13    7    6     -4.24      0.00
   13    7    7      4.38      0.00
   13    7    8      0.17      0.00
   13    7    9     -5.15      0.00
   13    7   10      2.79      0.00
   13    7   11     -1.18      0.00
   13    7   12     -2.42      0.00
   13    7   13      1.46      0.00
   13    7   14     -1.19      0.00
   13    7   15     -1.21      0.00
   13    7   16      0.88      0.00
   13    7   17      0.21      0.00
  -13    9   17     -0.02      0.00
  -13    9   16      0.07      0.00
  -13    9   15      2.05      0.00
  -13    9   14      1.92      0.00
  -13    9   13     -2.74      0.00
  -13    9   12     -2.65      0.00
  -13    9   11      1.37      0.00
  -13    9   10      6.31      0.00
  -13    9    9      1.00      0.00
  -13    9    8     -6.42      0.00
  -13    9    7     -2.33      0.00
  -13    9    6      0.22      0.00
  -13    9    5      3.73      0.00
  -13    9    4      2.26      0.00
  -13    9    3     -0.56      0.00
  -13    9    2     -7.05      0.00
  -13    9    1     -3.62      0.00
   13    9    0      6.30      0.00
   13    9    1     -3.01      0.00
   13    9    2     -6.14      0.00
   13    9    3      3.56      0.00
   13    9    4      6.47      0.00
   13    9    5     -3.95      0.00
   13    9    6     -3.94      0.00
   13    9    7      3.18      0.00
   13    9    8     -0.78      0.00
   13    9    9     -2.82      0.00
   13    9   10      1.66      0.00
   13    9   11     -0.63      0.00
   13    9   12     -0.25      0.00
   13    9   13     -0.69      0.00
   13    9   14     -2.28      0.00
   13    9   15      2.51      0.00
   13    9   16      0.47      0.00
   13    9   17     -2.05      0.00
  -13   11   16     -0.64      0.00
  -13   11   15      1.87      0.00
  -13   11   14      1.16      0.00
  -13   11   13     -2.73      0.00
  -13   11   12     -1.92      0.00
  -13   11   11      2.21      0.00
  -13   11   10      4.35      0.00
  -13   11    9     -1.26      0.00
  -13   11    8     -4.15      0.00
  -13   11    7      2.75      0.00
  -13   11    6     -1.44      0.00
  -13   11    5     -1.98      0.00
  -13   11    4      3.46      0.00
  -13   11    3      0.06      0.00
  -13   11    2     -4.88      0.00
  -13   11    1      2.11      0.00
   13   11    0      0.93      0.00
   13   11    1      1.51      0.00
   13   11    2     -1.82      0.00
   13   11    3      0.13      0.00
   13   11    4      4.57      0.00
   13   11    5     -3.74      0.00
   13   11    6     -2.71      0.00
   13   11    7      1.70      0.00
   13   11    8      0.82      0.00
   13   11    9      0.37      0.00
   13   11   10      0.05      0.00
   13   11   11      0.67      0.00
   13   11   12     -1.00      0.00
   13   11   13     -2.92      0.00
   13   11   14     -0.14      0.00
   13   11   15      4.19      0.00
   13   11   16     -0.83      0.00
  -13   13   16     -1.94      0.00
  -13   13   15      2.42      0.00
  -13   13   14     -0.12      0.00
  -13   13   13     -4.03      0.00
  -13   13   12     -0.33      0.00
  -13   13   11      3.87      0.00
  -13   13   10      1.92      0.00
  -13   13    9     -3.47      0.00
  -13   13    8     -2.82      0.00
  -13   13    7      3.51      0.00
  -13   13    6      1.96      0.00
  -13   13    5     -3.70      0.00
  -13   13    4      0.41      0.00
  -13   13    3      1.69      0.00
  -13   13    2     -5.43      0.00
  -13   13    1      4.19      0.00
   13   13    0      3.60      0.00
   13   13    1      3.51      0.00
   13   13    2     -3.02      0.00
   13   13    3     -2.13      0.00
   13   13    4      3.03      0.00
   13   13    5     -3.11      0.00
   13   13    6     -1.18      0.00
   13   13    7      1.83      0.00
   13   13    8      3.47      0.00
   13   13    9      1.10      0.00
   13   13   10     -1.20      0.00
   13   13   11      0.46      0.00
   13   13   12     -3.44      0.00
   13   13   13     -0.70      0.00
   13   13   14      2.38      0.00
   13   13   15      2.08      0.00
   13   13   16     -0.62      0.00
  -13   15   15      2.49      0.00
  -13   15   14      0.17      0.00
  -13   15   13     -5.43      0.00
  -13   15   12     -0.34      0.00
  -13   15   11      4.90      0.00
  -13   15   10      0.72      0.00
  -13   15    9     -4.16      0.00
  -13   15    8      0.02      0.00
  -13   15    7      0.54      0.00
  -13   15    6      1.31      0.00
  -13   15    5     -0.20      0.00
  -13   15    4     -1.31      0.00
  -13   15    3      1.51      0.00
  -13   15    2     -2.66      0.00
  -13   15    1      1.30      0.00
   13   15    0      2.35      0.00
   13   15    1      0.17      0.00
   13   15    2     -1.44      0.00
   13   15    3     -1.91      0.00
   13   15    4      0.41      0.00
   13   15    5     -1.99      0.00
   13   15    6      0.84      0.00
   13   15    7      3.15      0.00
   13   15    8      3.27      0.00
   13   15    9     -1.05      0.00
   13   15   10     -1.37      0.00
   13   15   11      0.35      0.00
   13   15   12     -2.09      0.00
   13   15   13      2.58      0.00
   13   15   14      0.55      0.00
   13   15   15     -0.60      0.00
  -13   17   14      0.42      0.00
  -13   17   13     -3.81      0.00
  -13   17   12     -0.85      0.00
  -13   17   11      2.98      0.00
  -13   17   10      0.04      0.00
  -13   17    9     -3.89      0.00
  -13   17    8      2.43      0.00
  -13   17    7      1.02      0.00
  -13   17    6     -1.65      0.00
  -13   17    5     -0.34      0.00
  -13   17    4      0.57      0.00
  -13   17    3     -0.13      0.00
  -13   17    2      0.22      0.00
  -13   17    1      2.28      0.00
   13   17    0     -1.88      0.00
   13   17    1      1.23      0.00
   13   17    2      2.22      0.00
   13   17    3     -3.73      0.00
   13   17    4     -1.92      0.00
   13   17    5      0.22      0.00
   13   17    6      2.10      0.00
   13   17    7      2.41      0.00
   13   17    8      0.78      0.00
   13   17    9     -1.38      0.00
   13   17   10     -0.08      0.00
   13   17   11      1.45      0.00
   13   17   12      0.69      0.00
   13   17   13      1.10      0.00
   13   17   14     -2.28      0.00
  -13   19   13     -1.39      0.00
  -13   19   12      0.25      0.00
  -13   19   11      0.34      0.00
  -13   19   10     -0.88      0.00
  -13   19    9     -2.31      0.00
  -13   19    8      1.33      0.00
  -13   19    7      1.25      0.00
  -13   19    6      0.11      0.00
  -13   19    5     -2.50      0.00
  -13   19    4      1.12      0.00
  -13   19    3      0.10      0.00
  -13   19    2      0.03      0.00
  -13   19    1      2.78      0.00
   13   19    0     -1.16      0.00
   13   19    1      2.17      0.00
   13   19    2      1.00      0.00
   13   19    3     -3.90      0.00
   13   19    4     -0.32      0.00
   13   19    5      0.83      0.00
   13   19    6     -0.37      0.00
   13   19    7      0.99      0.00
   13   19    8      1.26      0.00
   13   19    9      0.73      0.00
   13   19   10      0.27      0.00
   13   19   11      0.89      0.00
   13   19   12      0.34      0.00
   13   19   13     -0.96      0.00
  -13   21   12      1.33      0.00
  -13   21   11     -0.79      0.00
  -13   21   10     -1.85      0.00
  -13   21    9      0.52      0.00
  -13   21    8      0.90      0.00
  -13   21    7     -2.54      0.00
  -13   21    6      1.25      0.00
  -13   21    5     -1.13      0.00
  -13   21    4     -0.21      0.00
  -13   21    3      0.86      0.00
  -13   21    2      2.10      0.00
  -13   21    1     -0.20      0.00
   13   21    0     -2.09      0.00
   13   21    1     -1.60      0.00
   13   21    2      0.45      0.00
   13   21    3      0.46      0.00
   13   21    4      1.82      0.00
   13   21    5     -2.49      0.00
   13   21    6     -3.45      0.00
   13   21    7      3.14      0.00
   13   21    8      2.52      0.00
   13   21    9      0.58      0.00
   13   21   10     -0.46      0.00
   13   21   11     -1.26      0.00
   13   21   12     -0.48      0.00
  -13   23   10     -2.45      0.00
  -13   23    9      2.14      0.00
  -13   23    8      2.47      0.00
  -13   23    7     -3.82      0.00
  -13   23    6     -1.39      0.00
  -13   23    5     -0.58      0.00
  -13   23    4     -0.44      0.00
  -13   23    3     -0.05      0.00
  -13   23    2      5.27      0.00
  -13   23    1      0.75      0.00
   13   23    0     -5.39      0.00
   13   23    1     -1.58      0.00
   13   23    2      2.53      0.00
   13   23    3      2.48      0.00
   13   23    4      1.45      0.00
   13   23    5     -4.74      0.00
   13   23    6     -2.68      0.00
   13   23    7      4.26      0.00
   13   23    8     -0.21      0.00
   13   23    9     -0.15      0.00
   13   23   10      0.33      0.00
  -13   25    8      2.00      0.00
  -13   25    7     -2.09      0.00
  -13   25    6     -1.46      0.00
  -13   25    5     -2.14      0.00
  -13   25    4     -0.82      0.00
  -13   25    3     -0.66      0.00
  -13   25    2      4.01      0.00
  -13   25    1      3.18      0.00
   13   25    0     -2.77      0.00
   13   25    1      0.39      0.00
   13   25    2      1.02      0.00
   13   25    3      1.59      0.00
   13   25    4      1.65      0.00
   13   25    5     -2.89      0.00
   13   25    6     -2.29      0.00
   13   25    7      0.40      0.00
   13   25    8     -1.27      0.00
  -13   27    5     -0.75      0.00
  -13   27    4     -1.40      0.00
  -13   27    3     -0.64      0.00
  -13   27    2      1.01      0.00
  -13   27    1      1.02      0.00
   13   27    0      1.09      0.00
   13   27    1     -2.81      0.00
   13   27    2     -0.76      0.00
   13   27    3      2.50      0.00
   13   27    4      2.37      0.00
   13   27    5     -1.39      0.00
  -14    0   18     -2.65      0.00
  -14    0   16      1.66      0.00
  -14    0   14      3.02      0.00
  -14    0   12     -2.99      0.00
  -14    0   10      8.15      0.00
  -14    0    8     -8.56      0.00
  -14    0    6      5.54      0.00
  -14    0    4     -0.51      0.00
  -14    0    2     -5.70      0.00
   14    0    0     -2.14      0.00
   14    0    2      1.96      0.00
   14    0    4      6.48      0.00
   14    0    6     -6.41      0.00
   14    0    8      2.32      0.00
   14    0   10      1.42      0.00
   14    0   12     -0.25      0.00
   14    0   14      0.70      0.00
   14    0   16      1.97      0.00
  -14    2   18     -1.65      0.00
  -14    2   17     -0.62      0.00
  -14    2   16      0.91      0.00
  -14    2   15     -0.53      0.00
  -14    2   14      2.73      0.00
  -14    2   13      1.14      0.00
  -14    2   12     -0.92      0.00
  -14    2   11     -3.40      0.00
  -14    2   10      4.08      0.00
  -14    2    9      3.48      0.00
  -14    2    8     -6.93      0.00
  -14    2    7      1.81      0.00
  -14    2    6      7.07      0.00
  -14    2    5     -3.16      0.00
  -14    2    4     -2.81      0.00
  -14    2    3      0.15      0.00
  -14    2    2     -2.79      0.00
  -14    2    1      1.27      0.00
   14    2    0     -1.86      0.00
   14    2    1      2.63      0.00
   14    2    2      0.78      0.00
   14    2    3     -1.58      0.00
   14    2    4      4.79      0.00
   14    2    5     -2.88      0.00
   14    2    6     -3.36      0.00
   14    2    7      1.14      0.00
   14    2    8      0.70      0.00
   14    2    9      1.44      0.00
   14    2   10      0.88      0.00
   14    2   11     -0.03      0.00
   14    2   12      0.74      0.00
   14    2   13     -0.53      0.00
   14    2   14      0.04      0.00
   14    2   15     -0.26      0.00
   14    2   16      3.39      0.00
   14    2   17      3.07      0.00
  -14    4   17     -0.27      0.00
  -14    4   16     -0.07      0.00
  -14    4   15     -1.40      0.00
  -14    4   14      1.80      0.00
  -14    4   13      1.17      0.00
  -14    4   12      1.64      0.00
  -14    4   11     -1.83      0.00
  -14    4   10     -2.04      0.00
  -14    4    9      3.26      0.00
  -14    4    8     -2.74      0.00
  -14    4    7      0.09      0.00
  -14    4    6      6.21      0.00
  -14    4    5     -0.19      0.00
  -14    4    4     -2.35      0.00
  -14    4    3     -4.47      0.00
  -14    4    2      0.08      0.00
  -14    4    1      3.53      0.00
   14    4    0     -1.62      0.00
   14    4    1      1.79      0.00
   14    4    2      0.26      0.00
   14    4    3     -1.87      0.00
   14    4    4      0.50      0.00
   14    4    5     -2.57      0.00
   14    4    6      2.81      0.00
   14    4    7     -0.33      0.00
   14    4    8     -1.85      0.00
   14    4    9      3.28      0.00
   14    4   10     -0.93      0.00
   14    4   11      0.41      0.00
   14    4   12      2.69      0.00
   14    4   13     -1.38      0.00
   14    4   14     -0.99      0.00
   14    4   15      0.64      0.00
   14    4   16      5.31      0.00
   14    4   17      2.35      0.00
  -14    6   17     -0.07      0.00
  -14    6   16      0.06      0.00
  -14    6   15     -1.87      0.00
  -14    6   14     -0.02      0.00
  -14    6   13      1.05      0.00
  -14    6   12      1.56      0.00
  -14    6   11      0.82      0.00
  -14    6   10     -3.25      0.00
  -14    6    9      0.45      0.00
  -14    6    8      1.21      0.00
  -14    6    7      0.06      0.00
  -14    6    6      1.09      0.00
  -14    6    5      0.07      0.00
  -14    6    4      3.26      0.00
  -14    6    3     -4.94      0.00
  -14    6    2     -0.72      0.00
  -14    6    1      3.66      0.00
   14    6    0     -2.42      0.00
   14    6    1      0.23      0.00
   14    6    2      2.97      0.00
   14    6    3     -2.84      0.00
   14    6    4     -3.41      0.00
   14    6    5      0.97      0.00
   14    6    6      6.19      0.00
   14    6    7     -3.35      0.00
   14    6    8     -1.96      0.00
   14    6    9      4.22      0.00
   14    6   10     -3.16      0.00
   14    6   11      1.22      0.00
   14    6   12      3.25      0.00
   14    6   13     -2.22      0.00
   14    6   14     -1.01      0.00
   14    6   15      1.59      0.00
   14    6   16      5.29      0.00
   14    6   17      0.23      0.00
  -14    8   17     -0.28      0.00
  -14    8   16      0.48      0.00
  -14    8   15     -1.37      0.00
  -14    8   14     -1.95      0.00
  -14    8   13      0.44      0.00
  -14    8   12      1.13      0.00
  -14    8   11      1.21      0.00
  -14    8   10     -1.42      0.00
  -14    8    9     -2.15      0.00
  -14    8    8      1.27      0.00
  -14    8    7      3.39      0.00
  -14    8    6      0.54      0.00
  -14    8    5     -3.81      0.00
  -14    8    4      2.43      0.00
  -14    8    3      0.09      0.00
  -14    8    2      1.45      0.00
  -14    8    1      1.20      0.00
   14    8    0     -3.48      0.00
   14    8    1      0.36      0.00
   14    8    2      4.84      0.00
   14    8    3     -4.19      0.00
   14    8    4     -3.31      0.00
   14    8    5      3.88      0.00
   14    8    6      4.07      0.00
   14    8    7     -4.63      0.00
   14    8    8      0.71      0.00
   14    8    9      3.24      0.00
   14    8   10     -4.65      0.00
   14    8   11      0.91      0.00
   14    8   12      1.88      0.00
   14    8   13     -1.67      0.00
   14    8   14      0.17      0.00
   14    8   15      1.62      0.00
   14    8   16      4.18      0.00
   14    8   17     -0.73      0.00
  -14   10   16      0.78      0.00
  -14   10   15     -1.04      0.00
  -14   10   14     -2.11      0.00
  -14   10   13     -0.64      0.00
  -14   10   12      1.00      0.00
  -14   10   11      0.29      0.00
  -14   10   10      0.12      0.00
  -14   10    9     -1.82      0.00
  -14   10    8     -1.46      0.00
  -14   10    7      3.57      0.00
  -14   10    6      3.54      0.00
  -14   10    5     -1.83      0.00
  -14   10    4     -3.03      0.00
  -14   10    3      0.21      0.00
  -14   10    2      6.07      0.00
  -14   10    1     -0.50      0.00
   14   10    0     -3.85      0.00
   14   10    1     -0.84      0.00
   14   10    2      4.61      0.00
   14   10    3     -1.95      0.00
   14   10    4     -1.03      0.00
   14   10    5      2.56      0.00
   14   10    6     -0.14      0.00
   14   10    7     -2.15      0.00
   14   10    8      2.83      0.00
   14   10    9      0.18      0.00
   14   10   10     -4.89      0.00
   14   10   11     -0.39      0.00
   14   10   12      1.73      0.00
   14   10   13      0.59      0.00
   14   10   14      0.45      0.00
   14   10   15      0.73      0.00
   14   10   16      2.73      0.00
  -14   12   16      1.70      0.00
  -14   12   15     -1.95      0.00
  -14   12   14     -1.09      0.00
  -14   12   13      0.48      0.00
  -14   12   12      0.60      0.00
  -14   12   11     -2.33      0.00
  -14   12   10      0.01      0.00
  -14   12    9      1.97      0.00
  -14   12    8     -1.81      0.00
  -14   12    7      1.03      0.00
  -14   12    6      1.49      0.00
  -14   12    5      1.62      0.00
  -14   12    4     -1.25      0.00
  -14   12    3     -1.78      0.00
  -14   12    2      5.16      0.00
  -14   12    1     -0.95      0.00
   14   12    0     -3.77      0.00
   14   12    1     -2.18      0.00
   14   12    2      5.89      0.00
   14   12    3      1.42      0.00
   14   12    4     -0.83      0.00
   14   12    5     -0.75      0.00
   14   12    6     -1.57      0.00
   14   12    7      1.35      0.00
   14   12    8      0.96      0.00
   14   12    9     -2.18      0.00
   14   12   10     -2.80      0.00
   14   12   11     -0.63      0.00
   14   12   12      3.92      0.00
   14   12   13      0.61      0.00
   14   12   14     -1.56      0.00
   14   12   15      0.23      0.00
   14   12   16      1.22      0.00
  -14   14   15     -2.81      0.00
  -14   14   14     -1.45      0.00
  -14   14   13      3.29      0.00
  -14   14   12      1.83      0.00
  -14   14   11     -5.02      0.00
  -14   14   10     -2.12      0.00
  -14   14    9      4.85      0.00
  -14   14    8     -0.06      0.00
  -14   14    7      1.41      0.00
  -14   14    6     -0.55      0.00
  -14   14    5     -1.70      0.00
  -14   14    4      1.18      0.00
  -14   14    3      2.10      0.00
  -14   14    2      1.39      0.00
  -14   14    1     -1.83      0.00
   14   14    0     -1.60      0.00
   14   14    1      0.03      0.00
   14   14    2      5.31      0.00
   14   14    3      1.25      0.00
   14   14    4     -0.42      0.00
   14   14    5     -2.09      0.00
   14   14    6     -1.40      0.00
   14   14    7      1.70      0.00
   14   14    8     -1.13      0.00
   14   14    9     -0.22      0.00
   14   14   10     -0.39      0.00
   14   14   11     -0.30      0.00
   14   14   12      4.01      0.00
   14   14   13     -3.04      0.00
   14   14   14     -1.31      0.00
   14   14   15      1.08      0.00
  -14   16   14     -2.30      0.00
  -14   16   13      3.38      0.00
  -14   16   12      3.33      0.00
  -14   16   11     -3.62      0.00
  -14   16   10     -2.87      0.00
  -14   16    9      3.59      0.00
  -14   16    8     -0.26      0.00
  -14   16    7      2.15      0.00
  -14   16    6      2.60      0.00
  -14   16    5     -2.50      0.00
  -14   16    4     -3.05      0.00
  -14   16    3      4.01      0.00
  -14   16    2      1.04      0.00
  -14   16    1     -2.77      0.00
   14   16    0      2.34      0.00
   14   16    1      1.24      0.00
   14   16    2      0.63      0.00
   14   16    3      1.19      0.00
   14   16    4      2.24      0.00
   14   16    5     -2.29      0.00
   14   16    6     -2.68      0.00
   14   16    7      0.94      0.00
   14   16    8      1.60      0.00
   14   16    9      2.05      0.00
   14   16   10     -1.03      0.00
   14   16   11     -0.68      0.00
   14   16   12      0.56      0.00
   14   16   13     -3.96      0.00
   14   16   14      3.42      0.00
  -14   18   13      1.28      0.00
  -14   18   12      1.49      0.00
  -14   18   11     -0.34      0.00
  -14   18   10      0.42      0.00
  -14   18    9      1.14      0.00
  -14   18    8     -1.79      0.00
  -14   18    7      1.01      0.00
  -14   18    6      3.19      0.00
  -14   18    5      2.19      0.00
  -14   18    4     -3.28      0.00
  -14   18    3     -0.07      0.00
  -14   18    2      0.78      0.00
  -14   18    1     -2.92      0.00
   14   18    0      3.49      0.00
   14   18    1     -0.59      0.00
   14   18    2     -1.30      0.00
   14   18    3      2.11      0.00
   14   18    4      3.34      0.00
   14   18    5     -1.64      0.00
   14   18    6     -2.91      0.00
   14   18    7      1.59      0.00
   14   18    8      3.66      0.00
   14   18    9      0.64      0.00
   14   18   10     -1.40      0.00
   14   18   11     -0.97      0.00
   14   18   12     -1.83      0.00
   14   18   13     -0.25      0.00
  -14   20   12     -0.97      0.00
  -14   20   11      0.05      0.00
  -14   20   10      3.42      0.00
  -14   20    9      0.84      0.00
  -14   20    8     -2.09      0.00
  -14   20    7      1.10      0.00
  -14   20    6      0.98      0.00
  -14   20    5      1.61      0.00
  -14   20    4      1.64      0.00
  -14   20    3     -0.71      0.00
  -14   20    2     -1.01      0.00
  -14   20    1     -2.99      0.00
   14   20    0      1.93      0.00
   14   20    1     -0.78      0.00
   14   20    2     -0.34      0.00
   14   20    3      0.60      0.00
   14   20    4      3.12      0.00
   14   20    5      1.11      0.00
   14   20    6     -0.55      0.00
   14   20    7     -0.22      0.00
   14   20    8      0.82      0.00
   14   20    9      1.47      0.00
   14   20   10      1.18      0.00
   14   20   11     -1.67      0.00
   14   20   12     -1.65      0.00
  -14   22   11     -0.46      0.00
  -14   22   10      1.89      0.00
  -14   22    9      0.94      0.00
  -14   22    8     -0.07      0.00
  -14   22    7      1.27      0.00
  -14   22    6      1.77      0.00
  -14   22    5     -1.65      0.00
  -14   22    4      2.07      0.00
  -14   22    3      1.37      0.00
  -14   22    2     -0.61      0.00
  -14   22    1     -2.93      0.00
   14   22    0      0.51      0.00
   14   22    1     -0.55      0.00
   14   22    2      0.16      0.00
   14   22    3      0.56      0.00
   14   22    4      2.92      0.00
   14   22    5      2.56      0.00
   14   22    6      1.35      0.00
   14   22    7     -3.79      0.00
   14   22    8     -0.40      0.00
   14   22    9      5.46      0.00
   14   22   10      1.45      0.00
  -14   24    9     -1.78      0.00
  -14   24    8      3.49      0.00
  -14   24    7      1.27      0.00
  -14   24    6      1.47      0.00
  -14   24    5     -1.14      0.00
  -14   24    4      1.82      0.00
  -14   24    3      0.33      0.00
  -14   24    2      0.12      0.00
  -14   24    1     -1.65      0.00
   14   24    0     -1.57      0.00
   14   24    1     -0.38      0.00
   14   24    2      3.74      0.00
   14   24    3      2.02      0.00
   14   24    4     -0.39      0.00
   14   24    5      1.01      0.00
   14   24    6      2.85      0.00
   14   24    7     -2.99      0.00
   14   24    8      0.76      0.00
  -14   26    6     -0.33      0.00
  -14   26    5     -2.63      0.00
  -14   26    4      4.11      0.00
  -14   26    3      1.07      0.00
  -14   26    2     -0.69      0.00
  -14   26    1     -0.54      0.00
   14   26    0     -3.06      0.00
   14   26    1      3.30      0.00
   14   26    2      7.13      0.00
   14   26    3     -0.81      0.00
   14   26    4     -3.94      0.00
   14   26    5      0.44      0.00
   14   26    6      5.00      0.00
  -15    1   17      0.72      0.00
  -15    1   16     -0.21      0.00
  -15    1   15     -0.32      0.00
  -15    1   14     -2.41      0.00
  -15    1   13      0.32      0.00
  -15    1   12      1.54      0.00
  -15    1   11      0.59      0.00
  -15    1   10     -5.49      0.00
  -15    1    9     -2.90      0.00
  -15    1    8      8.30      0.00
  -15    1    7      0.76      0.00
  -15    1    6     -5.19      0.00
  -15    1    5      2.13      0.00
  -15    1    4      1.08      0.00
  -15    1    3     -0.83      0.00
  -15    1    2      1.60      0.00
  -15    1    1     -0.07      0.00
   15    1    0     -0.60      0.00
   15    1    1     -0.70      0.00
   15    1    2      5.23      0.00
   15    1    3     -1.38      0.00
   15    1    4     -6.69      0.00
   15    1    5      2.97      0.00
   15    1    6      3.44      0.00
   15    1    7     -0.57      0.00
   15    1    8     -1.36      0.00
   15    1    9     -0.69      0.00
   15    1   10      0.25      0.00
   15    1   11      0.67      0.00
   15    1   12     -2.88      0.00
   15    1   13     -0.39      0.00
   15    1   14     -0.43      0.00
   15    1   15      0.59      0.00
   15    1   16     -0.78      0.00
   15    1   17     -1.26      0.00
  -15    3   17      0.59      0.00
  -15    3   16      0.92      0.00
  -15    3   15     -0.06      0.00
  -15    3   14     -3.06      0.00
  -15    3   13      0.68      0.00
  -15    3   12      1.51      0.00
  -15    3   11     -0.38      0.00
  -15    3   10     -1.30      0.00
  -15    3    9     -4.23      0.00
  -15    3    8      3.68      0.00
  -15    3    7      1.90      0.00
  -15    3    6     -4.96      0.00
  -15    3    5      2.68      0.00
  -15    3    4      1.72      0.00
  -15    3    3      0.60      0.00
  -15    3    2      1.38      0.00
  -15    3    1     -1.80      0.00
   15    3    0     -1.47      0.00
   15    3    1     -1.89      0.00
   15    3    2      5.17      0.00
   15    3    3     -3.22      0.00
   15    3    4     -3.77      0.00
   15    3    5      6.43      0.00
   15    3    6      0.26      0.00
   15    3    7     -1.29      0.00
   15    3    8     -0.56      0.00
   15    3    9     -0.94      0.00
   15    3   10      0.75      0.00
   15    3   11      0.89      0.00
   15    3   12     -3.04      0.00
   15    3   13     -0.65      0.00
   15    3   14      0.01      0.00
   15    3   15      1.99      0.00
   15    3   16     -1.59      0.00
   15    3   17     -3.21      0.00
  -15    5   17     -0.50      0.00
  -15    5   16     -0.14      0.00
  -15    5   15      0.32      0.00
  -15    5   14     -1.62      0.00
  -15    5   13      0.66      0.00
  -15    5   12      1.32      0.00
  -15    5   11     -2.84      0.00
  -15    5   10      0.02      0.00
  -15    5    9     -0.08      0.00
  -15    5    8      0.54      0.00
  -15    5    7      1.09      0.00
  -15    5    6     -2.02      0.00
  -15    5    5      0.49      0.00
  -15    5    4     -1.70      0.00
  -15    5    3      2.50      0.00
  -15    5    2      4.53      0.00
  -15    5    1     -2.09      0.00
   15    5    0     -4.08      0.00
   15    5    1     -0.47      0.00
   15    5    2      4.47      0.00
   15    5    3     -3.57      0.00
   15    5    4     -0.76      0.00
   15    5    5      4.91      0.00
   15    5    6     -2.86      0.00
   15    5    7     -0.48      0.00
   15    5    8      0.94      0.00
   15    5    9      0.31      0.00
   15    5   10      0.65      0.00
   15    5   11     -0.53      0.00
   15    5   12     -2.25      0.00
   15    5   13     -0.11      0.00
   15    5   14      0.83      0.00
   15    5   15      2.89      0.00
   15    5   16     -3.57      0.00
   15    5   17     -3.52      0.00
  -15    7   17      0.26      0.00
  -15    7   16     -1.86      0.00
  -15    7   15     -0.92      0.00
  -15    7   14      1.13      0.00
  -15    7   13      1.36      0.00
  -15    7   12     -0.18      0.00
  -15    7   11     -3.18      0.00
  -15    7   10     -1.58      0.00
  -15    7    9      2.87      0.00
  -15    7    8      1.49      0.00
  -15    7    7     -2.02      0.00
  -15    7    6      0.43      0.00
  -15    7    5      1.73      0.00
  -15    7    4     -4.06      0.00
  -15    7    3     -0.68      0.00
  -15    7    2      4.64      0.00
  -15    7    1      1.93      0.00
   15    7    0     -2.94      0.00
   15    7    1      2.97      0.00
   15    7    2      1.14      0.00
   15    7    3     -2.94      0.00
   15    7    4     -0.01      0.00
   15    7    5      1.61      0.00
   15    7    6     -2.12      0.00
   15    7    7      1.32      0.00
   15    7    8      0.96      0.00
   15    7    9      0.72      0.00
   15    7   10      0.33      0.00
   15    7   11     -1.14      0.00
   15    7   12     -0.48      0.00
   15    7   13      0.37      0.00
   15    7   14      1.37      0.00
   15    7   15      1.50      0.00
   15    7   16     -5.62      0.00
   15    7   17     -1.42      0.00
  -15    9   16     -1.22      0.00
  -15    9   15     -1.42      0.00
  -15    9   14      2.08      0.00
  -15    9   13      2.65      0.00
  -15    9   12     -1.83      0.00
  -15    9   11     -2.41      0.00
  -15    9   10     -1.94      0.00
  -15    9    9      2.37      0.00
  -15    9    8      3.52      0.00
  -15    9    7     -3.99      0.00
  -15    9    6     -0.58      0.00
  -15    9    5      2.69      0.00
  -15    9    4     -1.01      0.00
  -15    9    3     -2.03      0.00
  -15    9    2     -0.97      0.00
  -15    9    1      2.86      0.00
   15    9    0      1.90      0.00
   15    9    1      3.79      0.00
   15    9    2     -2.76      0.00
   15    9    3     -2.42      0.00
   15    9    4     -0.67      0.00
   15    9    5      1.61      0.00
   15    9    6      1.09      0.00
   15    9    7      0.69      0.00
   15    9    8     -1.65      0.00
   15    9    9      0.56      0.00
   15    9   10      1.68      0.00
   15    9   11      0.10      0.00
   15    9   12      0.07      0.00
   15    9   13     -0.47      0.00
   15    9   14      0.93      0.00
   15    9   15     -1.17      0.00
   15    9   16     -5.03      0.00
  -15   11   16     -0.65      0.00
  -15   11   15      0.39      0.00
  -15   11   14      1.82      0.00
  -15   11   13      2.59      0.00
  -15   11   12     -1.49      0.00
  -15   11   11     -1.33      0.00
  -15   11   10     -1.53      0.00
  -15   11    9      0.03      0.00
  -15   11    8      3.81      0.00
  -15   11    7     -2.43      0.00
  -15   11    6     -1.08      0.00
  -15   11    5      0.07      0.00
  -15   11    4     -0.62      0.00
  -15   11    3      0.85      0.00
  -15   11    2     -1.48      0.00
  -15   11    1      0.05      0.00
   15   11    0      2.35      0.00
   15   11    1      3.12      0.00
   15   11    2     -4.04      0.00
   15   11    3     -2.91      0.00
   15   11    4     -0.19      0.00
   15   11    5      4.08      0.00
   15   11    6      1.51      0.00
   15   11    7     -2.62      0.00
   15   11    8     -2.73      0.00
   15   11    9      1.61      0.00
   15   11   10      2.67      0.00
   15   11   11      0.57      0.00
   15   11   12     -1.66      0.00
   15   11   13     -1.50      0.00
   15   11   14      1.17      0.00
   15   11   15     -1.87      0.00
   15   11   16     -2.35      0.00
  -15   13   15      1.16      0.00
  -15   13   14      2.51      0.00
  -15   13   13      1.32      0.00
  -15   13   12     -1.15      0.00
  -15   13   11      1.23      0.00
  -15   13   10     -0.48      0.00
  -15   13    9     -3.15      0.00
  -15   13    8      1.72      0.00
  -15   13    7      0.25      0.00
  -15   13    6      0.28      0.00
  -15   13    5     -0.39      0.00
  -15   13    4     -3.29      0.00
  -15   13    3     -1.72      0.00
  -15   13    2      2.82      0.00
  -15   13    1      2.02      0.00
   15   13    0     -0.69      0.00
   15   13    1      3.80      0.00
   15   13    2     -3.41      0.00
   15   13    3     -2.78      0.00
   15   13    4      0.51      0.00
   15   13    5      4.50      0.00
   15   13    6     -0.57      0.00
   15   13    7     -3.82      0.00
   15   13    8     -0.67      0.00
   15   13    9      1.00      0.00
   15   13   10      0.81      0.00
   15   13   11     -0.28      0.00
   15   13   12     -2.78      0.00
   15   13   13      0.31      0.00
   15   13   14      2.09      0.00
   15   13   15     -1.43      0.00
  -15   15   14      2.72      0.00
  -15   15   13      1.27      0.00
  -15   15   12     -2.22      0.00
  -15   15   11      2.34      0.00
  -15   15   10      1.86      0.00
  -15   15    9     -3.68      0.00
  -15   15    8     -1.36      0.00
  -15   15    7      0.95      0.00
  -15   15    6     -0.03      0.00
  -15   15    5      0.59      0.00
  -15   15    4     -0.57      0.00
  -15   15    3     -5.66      0.00
  -15   15    2      0.97      0.00
  -15   15    1      5.12      0.00
   15   15    0     -1.25      0.00
   15   15    1      3.36      0.00
   15   15    2     -1.77      0.00
   15   15    3     -1.71      0.00
   15   15    4     -0.65      0.00
   15   15    5      3.52      0.00
   15   15    6     -0.82      0.00
   15   15    7     -2.70      0.00
   15   15    8     -0.95      0.00
   15   15    9     -1.64      0.00
   15   15   10     -0.19      0.00
   15   15   11     -0.57      0.00
   15   15   12     -1.17      0.00
   15   15   13      2.99      0.00
   15   15   14      0.02      0.00
  -15   17   13      1.86      0.00
  -15   17   12     -1.40      0.00
  -15   17   11      0.56      0.00
  -15   17   10      1.29      0.00
  -15   17    9     -0.25      0.00
  -15   17    8     -1.60      0.00
  -15   17    7     -0.66      0.00
  -15   17    6     -1.09      0.00
  -15   17    5     -1.21      0.00
  -15   17    4      1.38      0.00
  -15   17    3     -1.48      0.00
  -15   17    2     -1.65      0.00
  -15   17    1      2.53      0.00
   15   17    0     -1.47      0.00
   15   17    1      1.34      0.00
   15   17    2     -0.05      0.00
   15   17    3     -0.92      0.00
   15   17    4     -1.53      0.00
   15   17    5      2.83      0.00
   15   17    6     -0.23      0.00
   15   17    7     -3.06      0.00
   15   17    8     -3.14      0.00
   15   17    9     -1.36      0.00
   15   17   10      0.42      0.00
   15   17   11     -0.58      0.00
   15   17   12      0.96      0.00
   15   17   13      2.07      0.00
  -15   19   12      1.02      0.00
  -15   19   11      0.46      0.00
  -15   19   10     -2.52      0.00
  -15   19    9      1.06      0.00
  -15   19    8      1.65      0.00
  -15   19    7     -1.79      0.00
  -15   19    6     -1.77      0.00
  -15   19    5     -0.56      0.00
  -15   19    4     -3.05      0.00
  -15   19    3      1.07      0.00
  -15   19    2      1.26      0.00
  -15   19    1      1.19      0.00
   15   19    0     -2.66      0.00
   15   19    1      0.59      0.00
   15   19    2      0.79      0.00
   15   19    3      0.55      0.00
   15   19    4     -2.29      0.00
   15   19    5      0.42      0.00
   15   19    6     -0.78      0.00
   15   19    7     -2.42      0.00
   15   19    8     -1.20      0.00
   15   19    9     -1.27      0.00
   15   19   10     -1.98      0.00
   15   19   11      0.86      0.00
   15   19   12      1.84      0.00
  -15   21   11      1.99      0.00
  -15   21   10     -2.42      0.00
  -15   21    9     -1.56      0.00
  -15   21    8      1.88      0.00
  -15   21    7      0.24      0.00
  -15   21    6     -3.20      0.00
  -15   21    5      2.90      0.00
  -15   21    4     -3.58      0.00
  -15   21    3     -2.70      0.00
  -15   21    2     -0.15      0.00
  -15   21    1      3.30      0.00
   15   21    0     -0.45      0.00
   15   21    1      0.99      0.00
   15   21    2      1.10      0.00
   15   21    3      0.95      0.00
   15   21    4     -5.22      0.00
   15   21    5     -1.86      0.00
   15   21    6     -0.22      0.00
   15   21    7      2.04      0.00
   15   21    8      1.47      0.00
   15   21    9     -6.77      0.00
   15   21   10     -3.85      0.00
   15   21   11      5.48      0.00
  -15   23    9     -0.82      0.00
  -15   23    8     -3.60      0.00
  -15   23    7      1.55      0.00
  -15   23    6     -2.14      0.00
  -15   23    5      3.01      0.00
  -15   23    4     -0.05      0.00
  -15   23    3     -2.15      0.00
  -15   23    2     -5.88      0.00
  -15   23    1      1.28      0.00
   15   23    0      3.83      0.00
   15   23    1      0.22      0.00
   15   23    2     -0.94      0.00
   15   23    3     -1.22      0.00
   15   23    4     -5.67      0.00
   15   23    5     -0.89      0.00
   15   23    6      0.92      0.00
   15   23    7      5.23      0.00
   15   23    8     -0.18      0.00
   15   23    9    -10.38      0.00
  -15   25    7     -2.38      0.00
  -15   25    6      0.93      0.00
  -15   25    5      3.39      0.00
  -15   25    4     -0.86      0.00
  -15   25    3      0.36      0.00
  -15   25    2     -6.11      0.00
  -15   25    1     -2.13      0.00
   15   25    0      5.22      0.00
   15   25    1     -1.92      0.00
   15   25    2     -5.25      0.00
   15   25    3     -1.21      0.00
   15   25    4     -1.21      0.00
   15   25    5      0.04      0.00
   15   25    6     -0.05      0.00
   15   25    7      4.38      0.00
  -15   27    3     -1.73      0.00
  -15   27    2     -4.47      0.00
  -15   27    1     -1.08      0.00
   15   27    0      4.67      0.00
   15   27    1     -2.91      0.00
   15   27    2     -6.96      0.00
   15   27    3      1.22      0.00
  -16    0   16     -1.12      0.00
  -16    0   14      1.45      0.00
  -16    0   12     -1.84      0.00
  -16    0   10      1.98      0.00
  -16    0    8     -3.28      0.00
  -16    0    6     -1.06      0.00
  -16    0    4      3.36      0.00
  -16    0    2     -2.92      0.00
   16    0    0      4.26      0.00
   16    0    2     -4.92      0.00
   16    0    4      0.67      0.00
   16    0    6      2.24      0.00
   16    0    8     -1.81      0.00
   16    0   10      0.46      0.00
   16    0   12      0.52      0.00
   16    0   14      2.81      0.00
   16    0   16     -2.53      0.00
  -16    2   17      0.05      0.00
  -16    2   16     -0.80      0.00
  -16    2   15     -0.53      0.00
  -16    2   14      1.07      0.00
  -16    2   13      0.10      0.00
  -16    2   12     -1.46      0.00
  -16    2   11      1.25      0.00
  -16    2   10      0.38      0.00
  -16    2    9      1.84      0.00
  -16    2    8      0.05      0.00
  -16    2    7     -4.12      0.00
  -16    2    6     -2.86      0.00
  -16    2    5      0.52      0.00
  -16    2    4      3.10      0.00
  -16    2    3      1.44      0.00
  -16    2    2     -2.70      0.00
  -16    2    1     -1.42      0.00
   16    2    0      3.30      0.00
   16    2    1     -0.16      0.00
   16    2    2     -3.70      0.00
   16    2    3      1.72      0.00
   16    2    4      0.21      0.00
   16    2    5     -0.59      0.00
   16    2    6      1.55      0.00
   16    2    7     -1.88      0.00
   16    2    8     -0.44      0.00
   16    2    9      1.20      0.00
   16    2   10     -0.01      0.00
   16    2   11     -1.75      0.00
   16    2   12      0.67      0.00
   16    2   13      1.84      0.00
   16    2   14      2.13      0.00
   16    2   15     -0.99      0.00
   16    2   16     -2.88      0.00
   16    2   17     -1.69      0.00
  -16    4   17      0.67      0.00
  -16    4   16      0.80      0.00
  -16    4   15     -0.69      0.00
  -16    4   14     -0.16      0.00
  -16    4   13     -0.61      0.00
  -16    4   12     -1.10      0.00
  -16    4   11      3.94      0.00
  -16    4   10     -0.27      0.00
  -16    4    9     -2.39      0.00
  -16    4    8      3.45      0.00
  -16    4    7     -1.41      0.00
  -16    4    6     -5.18      0.00
  -16    4    5     -0.56      0.00
  -16    4    4      2.43      0.00
  -16    4    3      2.51      0.00
  -16    4    2     -2.35      0.00
  -16    4    1     -2.18      0.00
   16    4    0      1.95      0.00
   16    4    1      0.26      0.00
   16    4    2     -1.67      0.00
   16    4    3      2.58      0.00
   16    4    4     -0.56      0.00
   16    4    5     -0.83      0.00
   16    4    6      0.61      0.00
   16    4    7     -1.77      0.00
   16    4    8      0.82      0.00
   16    4    9     -0.43      0.00
   16    4   10      0.21      0.00
   16    4   11     -1.33      0.00
   16    4   12      0.43      0.00
   16    4   13      2.04      0.00
   16    4   14      0.82      0.00
   16    4   15     -2.20      0.00
   16    4   16     -2.80      0.00
   16    4   17     -0.55      0.00
  -16    6   17     -0.14      0.00
  -16    6   16      2.60      0.00
  -16    6   15      0.88      0.00
  -16    6   14     -1.36      0.00
  -16    6   13     -1.50      0.00
  -16    6   12     -0.35      0.00
  -16    6   11      4.03      0.00
  -16    6   10      1.52      0.00
  -16    6    9     -5.05      0.00
  -16    6    8      1.08      0.00
  -16    6    7      2.82      0.00
  -16    6    6     -4.38      0.00
  -16    6    5     -2.49      0.00
  -16    6    4      1.40      0.00
  -16    6    3      3.59      0.00
  -16    6    2     -1.40      0.00
  -16    6    1     -3.28      0.00
   16    6    0      0.41      0.00
   16    6    1     -0.56      0.00
   16    6    2      0.47      0.00
   16    6    3      3.33      0.00
   16    6    4     -1.15      0.00
   16    6    5     -0.83      0.00
   16    6    6     -0.03      0.00
   16    6    7     -1.58      0.00
   16    6    8      0.00      0.00
   16    6    9     -1.75      0.00
   16    6   10      2.40      0.00
   16    6   11     -0.07      0.00
   16    6   12     -1.16      0.00
   16    6   13      1.20      0.00
   16    6   14      0.10      0.00
   16    6   15     -2.71      0.00
   16    6   16     -1.10      0.00
  -16    8   16      1.47      0.00
  -16    8   15      2.63      0.00
  -16    8   14     -1.00      0.00
  -16    8   13     -1.92      0.00
  -16    8   12      1.58      0.00
  -16    8   11      1.92      0.00
  -16    8   10      0.58      0.00
  -16    8    9     -2.01      0.00
  -16    8    8     -0.99      0.00
  -16    8    7      2.07      0.00
  -16    8    6     -2.39      0.00
  -16    8    5     -2.90      0.00
  -16    8    4      0.20      0.00
  -16    8    3      3.58      0.00
  -16    8    2      0.39      0.00
  -16    8    1     -3.03      0.00
   16    8    0     -1.74      0.00
   16    8    1     -1.21      0.00
   16    8    2      2.51      0.00
   16    8    3      3.38      0.00
   16    8    4     -1.73      0.00
   16    8    5     -1.83      0.00
   16    8    6     -0.75      0.00
   16    8    7     -1.10      0.00
   16    8    8      0.23      0.00
   16    8    9     -0.44      0.00
   16    8   10      3.51      0.00
   16    8   11     -0.71      0.00
   16    8   12     -2.97      0.00
   16    8   13      1.62      0.00
   16    8   14      0.58      0.00
   16    8   15     -1.89      0.00
   16    8   16      0.33      0.00
  -16   10   16     -1.15      0.00
  -16   10   15      1.69      0.00
  -16   10   14      0.08      0.00
  -16   10   13     -1.57      0.00
  -16   10   12      1.97      0.00
  -16   10   11      1.70      0.00
  -16   10   10     -1.11      0.00
  -16   10    9     -0.15      0.00
  -16   10    8      0.38      0.00
  -16   10    7     -0.53      0.00
  -16   10    6     -2.00      0.00
  -16   10    5     -1.08      0.00
  -16   10    4      0.44      0.00
  -16   10    3      1.18      0.00
  -16   10    2     -0.21      0.00
  -16   10    1     -0.56      0.00
   16   10    0     -0.92      0.00
   16   10    1     -1.35      0.00
   16   10    2      1.53      0.00
   16   10    3      2.91      0.00
   16   10    4     -2.01      0.00
   16   10    5     -3.42      0.00
   16   10    6      0.40      0.00
   16   10    7      1.25      0.00
   16   10    8      1.40      0.00
   16   10    9      0.26      0.00
   16   10   10      1.81      0.00
   16   10   11     -2.00      0.00
   16   10   12     -2.63      0.00
   16   10   13      3.77      0.00
   16   10   14      1.05      0.00
   16   10   15     -1.51      0.00
   16   10   16     -0.42      0.00
  -16   12   15      0.11      0.00
  -16   12   14     -0.31      0.00
  -16   12   13     -1.03      0.00
  -16   12   12      0.04      0.00
  -16   12   11      1.34      0.00
  -16   12   10      1.27      0.00
  -16   12    9     -0.40      0.00
  -16   12    8      0.18      0.00
  -16   12    7     -1.99      0.00
  -16   12    6     -1.65      0.00
  -16   12    5      0.94      0.00
  -16   12    4      2.36      0.00
  -16   12    3      0.20      0.00
  -16   12    2     -3.66      0.00
  -16   12    1     -1.10      0.00
   16   12    0      2.17      0.00
   16   12    1     -4.36      0.00
   16   12    2     -1.10      0.00
   16   12    3      3.32      0.00
   16   12    4     -1.31      0.00
   16   12    5     -2.77      0.00
   16   12    6      2.93      0.00
   16   12    7      1.92      0.00
   16   12    8      0.31      0.00
   16   12    9      0.11      0.00
   16   12   10      1.02      0.00
   16   12   11     -1.47      0.00
   16   12   12     -1.00      0.00
   16   12   13      4.58      0.00
   16   12   14     -0.10      0.00
   16   12   15     -2.09      0.00
  -16   14   14     -0.65      0.00
  -16   14   13     -1.83      0.00
  -16   14   12     -1.17      0.00
  -16   14   11     -0.94      0.00
  -16   14   10      3.06      0.00
  -16   14    9      1.24      0.00
  -16   14    8     -0.50      0.00
  -16   14    7     -3.82      0.00
  -16   14    6     -0.77      0.00
  -16   14    5      1.94      0.00
  -16   14    4      2.45      0.00
  -16   14    3      2.32      0.00
  -16   14    2     -3.11      0.00
  -16   14    1     -4.64      0.00
   16   14    0      1.22      0.00
   16   14    1     -7.32      0.00
   16   14    2     -1.30      0.00
   16   14    3      3.57      0.00
   16   14    4      0.45      0.00
   16   14    5     -0.81      0.00
   16   14    6      2.55      0.00
   16   14    7     -0.49      0.00
   16   14    8     -0.33      0.00
   16   14    9      2.05      0.00
   16   14   10      1.73      0.00
   16   14   11     -0.72      0.00
   16   14   12     -0.75      0.00
   16   14   13      2.72      0.00
   16   14   14     -1.21      0.00
  -16   16   14      1.24      0.00
  -16   16   13     -2.76      0.00
  -16   16   12     -1.58      0.00
  -16   16   11     -1.88      0.00
  -16   16   10      1.21      0.00
  -16   16    9      1.22      0.00
  -16   16    8      1.37      0.00
  -16   16    7     -3.54      0.00
  -16   16    6     -1.10      0.00
  -16   16    5      2.03      0.00
  -16   16    4      1.17      0.00
  -16   16    3      1.94      0.00
  -16   16    2      0.93      0.00
  -16   16    1     -3.61      0.00
   16   16    0     -1.48      0.00
   16   16    1     -5.26      0.00
   16   16    2     -0.54      0.00
   16   16    3      2.62      0.00
   16   16    4      1.02      0.00
   16   16    5     -1.21      0.00
   16   16    6      0.96      0.00
   16   16    7     -0.50      0.00
   16   16    8      1.20      0.00
   16   16    9      2.90      0.00
   16   16   10      1.02      0.00
   16   16   11     -0.66      0.00
   16   16   12     -0.95      0.00
   16   16   13      1.14      0.00
  -16   18   13     -1.32      0.00
  -16   18   12     -2.11      0.00
  -16   18   11     -1.71      0.00
  -16   18   10      0.64      0.00
  -16   18    9     -1.57      0.00
  -16   18    8      0.75      0.00
  -16   18    7      0.08      0.00
  -16   18    6     -0.65      0.00
  -16   18    5     -0.03      0.00
  -16   18    4      2.34      0.00
  -16   18    3      0.05      0.00
  -16   18    2      0.39      0.00
  -16   18    1      0.03      0.00
   16   18    0     -0.06      0.00
   16   18    1     -1.68      0.00
   16   18    2     -0.95      0.00
   16   18    3      0.81      0.00
   16   18    4     -0.87      0.00
   16   18    5     -1.61      0.00
   16   18    6      2.75      0.00
   16   18    7      1.56      0.00
   16   18    8     -0.18      0.00
   16   18    9      1.01      0.00
   16   18   10      1.19      0.00
   16   18   11     -0.33      0.00
   16   18   12     -0.37      0.00
  -16   20   11     -2.14      0.00
  -16   20   10      1.13      0.00
  -16   20    9     -1.54      0.00
  -16   20    8     -2.69      0.00
  -16   20    7      1.16      0.00
  -16   20    6      2.14      0.00
  -16   20    5     -3.03      0.00
  -16   20    4      2.43      0.00
  -16   20    3      2.24      0.00
  -16   20    2     -0.83      0.00
  -16   20    1     -0.14      0.00
   16   20    0      1.45      0.00
   16   20    1     -0.06      0.00
   16   20    2     -1.63      0.00
   16   20    3     -1.72      0.00
   16   20    4     -1.00      0.00
   16   20    5      1.16      0.00
   16   20    6      3.89      0.00
   16   20    7     -0.36      0.00
   16   20    8     -3.50      0.00
   16   20    9      2.31      0.00
   16   20   10      3.02      0.00
   16   20   11     -1.93      0.00
  -16   22   10     -0.52      0.00
  -16   22    9     -0.36      0.00
  -16   22    8     -2.11      0.00
  -16   22    7     -0.59      0.00
  -16   22    6      2.97      0.00
  -16   22    5     -3.42      0.00
  -16   22    4     -1.39      0.00
  -16   22    3      3.74      0.00
  -16   22    2      3.41      0.00
  -16   22    1     -0.12      0.00
   16   22    0     -0.30      0.00
   16   22    1      1.26      0.00
   16   22    2     -2.43      0.00
   16   22    3     -2.84      0.00
   16   22    4      2.39      0.00
   16   22    5      3.09      0.00
   16   22    6      0.19      0.00
   16   22    7     -4.30      0.00
   16   22    8     -2.00      0.00
   16   22    9      6.30      0.00
  -16   24    8      0.35      0.00
  -16   24    7      0.93      0.00
  -16   24    6      0.93      0.00
  -16   24    5     -2.68      0.00
  -16   24    4     -3.78      0.00
  -16   24    3      1.26      0.00
  -16   24    2      6.67      0.00
  -16   24    1      2.26      0.00
   16   24    0     -1.53      0.00
   16   24    1      1.45      0.00
   16   24    2     -2.08      0.00
   16   24    3     -1.24      0.00
   16   24    4      3.54      0.00
   16   24    5      1.90      0.00
   16   24    6     -3.13      0.00
   16   24    7     -4.88      0.00
  -16   26    4     -3.64      0.00
  -16   26    3     -0.08      0.00
  -16   26    2      6.11      0.00
  -16   26    1      2.62      0.00
   16   26    0     -2.27      0.00
   16   26    1     -0.23      0.00
   16   26    2      1.06      0.00
   16   26    3      0.03      0.00
   16   26    4      0.31      0.00
  -17    1   17     -0.48      0.00
  -17    1   16      1.78      0.00
  -17    1   15      0.50      0.00
  -17    1   14     -0.97      0.00
  -17    1   13     -0.22      0.00
  -17    1   12      3.15      0.00
  -17    1   11     -0.22      0.00
  -17    1   10     -2.70      0.00
  -17    1    9      0.09      0.00
  -17    1    8      1.46      0.00
  -17    1    7      1.88      0.00
  -17    1    6      0.63      0.00
  -17    1    5     -1.79      0.00
  -17    1    4     -0.26      0.00
  -17    1    3      0.11      0.00
  -17    1    2      0.45      0.00
  -17    1    1      0.19      0.00
   17    1    0     -1.28      0.00
   17    1    1      0.05      0.00
   17    1    2      0.13      0.00
   17    1    3      0.25      0.00
   17    1    4      1.74      0.00
   17    1    5     -1.85      0.00
   17    1    6     -2.50      0.00
   17    1    7      2.04      0.00
   17    1    8      3.51      0.00
   17    1    9     -1.02      0.00
   17    1   10     -2.61      0.00
   17    1   11      0.67      0.00
   17    1   12      3.91      0.00
   17    1   13     -1.04      0.00
   17    1   14     -3.14      0.00
   17    1   15      0.79      0.00
   17    1   16      3.27      0.00
  -17    3   17     -0.87      0.00
  -17    3   16      0.39      0.00
  -17    3   15      1.32      0.00
  -17    3   14      0.05      0.00
  -17    3   13     -0.19      0.00
  -17    3   12      1.67      0.00
  -17    3   11     -1.71      0.00
  -17    3   10     -1.34      0.00
  -17    3    9      2.78      0.00
  -17    3    8     -2.07      0.00
  -17    3    7      1.14      0.00
  -17    3    6      4.72      0.00
  -17    3    5     -1.96      0.00
  -17    3    4     -1.02      0.00
  -17    3    3     -1.31      0.00
  -17    3    2      0.27      0.00
  -17    3    1      1.88      0.00
   17    3    0      0.34      0.00
   17    3    1      0.24      0.00
   17    3    2     -2.47      0.00
   17    3    3      0.71      0.00
   17    3    4      2.56      0.00
   17    3    5     -4.36      0.00
   17    3    6     -0.97      0.00
   17    3    7      4.53      0.00
   17    3    8      1.19      0.00
   17    3    9     -1.82      0.00
   17    3   10     -1.84      0.00
   17    3   11      1.58      0.00
   17    3   12      3.05      0.00
   17    3   13     -2.11      0.00
   17    3   14     -0.86      0.00
   17    3   15      0.94      0.00
   17    3   16      2.67      0.00
  -17    5   16     -0.78      0.00
  -17    5   15      1.55      0.00
  -17    5   14      0.57      0.00
  -17    5   13     -0.14      0.00
  -17    5   12      1.28      0.00
  -17    5   11     -2.23      0.00
  -17    5   10     -2.13      0.00
  -17    5    9      5.21      0.00
  -17    5    8     -1.84      0.00
  -17    5    7     -3.35      0.00
  -17    5    6      5.46      0.00
  -17    5    5      1.75      0.00
  -17    5    4      0.19      0.00
  -17    5    3     -3.37      0.00
  -17    5    2     -2.16      0.00
  -17    5    1      3.03      0.00
   17    5    0      4.18      0.00
   17    5    1     -0.84      0.00
   17    5    2     -6.16      0.00
   17    5    3      1.46      0.00
   17    5    4      4.31      0.00
   17    5    5     -4.90      0.00
   17    5    6     -0.40      0.00
   17    5    7      5.37      0.00
   17    5    8      0.15      0.00
   17    5    9     -2.11      0.00
   17    5   10     -2.03      0.00
   17    5   11      1.65      0.00
   17    5   12      1.93      0.00
   17    5   13     -1.03      0.00
   17    5   14      0.74      0.00
   17    5   15     -0.55      0.00
   17    5   16      3.07      0.00
  -17    7   16     -0.20      0.00
  -17    7   15      0.73      0.00
  -17    7   14      0.03      0.00
  -17    7   13     -0.76      0.00
  -17    7   12      0.72      0.00
  -17    7   11      0.01      0.00
  -17    7   10     -1.34      0.00
  -17    7    9      2.02      0.00
  -17    7    8     -0.40      0.00
  -17    7    7     -2.23      0.00
  -17    7    6      2.53      0.00
  -17    7    5      2.94      0.00
  -17    7    4      2.07      0.00
  -17    7    3     -2.96      0.00
  -17    7    2     -3.32      0.00
  -17    7    1      1.22      0.00
   17    7    0      5.52      0.00
   17    7    1     -3.46      0.00
   17    7    2     -7.00      0.00
   17    7    3      2.68      0.00
   17    7    4      5.83      0.00
   17    7    5     -4.35      0.00
   17    7    6     -0.86      0.00
   17    7    7      5.82      0.00
   17    7    8     -0.41      0.00
   17    7    9     -3.74      0.00
   17    7   10     -2.67      0.00
   17    7   11      1.78      0.00
   17    7   12      2.30      0.00
   17    7   13      0.17      0.00
   17    7   14     -0.35      0.00
   17    7   15     -0.69      0.00
   17    7   16      4.12      0.00
  -17    9   16      1.65      0.00
  -17    9   15     -0.33      0.00
  -17    9   14     -1.10      0.00
  -17    9   13     -1.13      0.00
  -17    9   12     -0.25      0.00
  -17    9   11      0.52      0.00
  -17    9   10      1.94      0.00
  -17    9    9     -0.31      0.00
  -17    9    8     -3.32      0.00
  -17    9    7      2.49      0.00
  -17    9    6      2.37      0.00
  -17    9    5      0.48      0.00
  -17    9    4      1.65      0.00
  -17    9    3     -1.19      0.00
  -17    9    2     -1.30      0.00
  -17    9    1      0.07      0.00
   17    9    0      2.32      0.00
   17    9    1     -3.32      0.00
   17    9    2     -3.16      0.00
   17    9    3      2.64      0.00
   17    9    4      5.17      0.00
   17    9    5     -3.07      0.00
   17    9    6     -1.53      0.00
   17    9    7      3.99      0.00
   17    9    8     -1.78      0.00
   17    9    9     -3.87      0.00
   17    9   10     -1.83      0.00
   17    9   11      2.61      0.00
   17    9   12      3.37      0.00
   17    9   13     -1.60      0.00
   17    9   14     -2.20      0.00
   17    9   15      1.72      0.00
  -17   11   15     -0.50      0.00
  -17   11   14     -1.78      0.00
  -17   11   13     -1.48      0.00
  -17   11   12      0.58      0.00
  -17   11   11     -0.56      0.00
  -17   11   10      0.74      0.00
  -17   11    9      2.39      0.00
  -17   11    8     -4.46      0.00
  -17   11    7      2.44      0.00
  -17   11    6      3.95      0.00
  -17   11    5     -0.72      0.00
  -17   11    4     -0.36      0.00
  -17   11    3      0.36      0.00
  -17   11    2      0.61      0.00
  -17   11    1      0.87      0.00
   17   11    0      0.10      0.00
   17   11    1      1.12      0.00
   17   11    2      0.75      0.00
   17   11    3     -0.27      0.00
   17   11    4      2.73      0.00
   17   11    5     -1.81      0.00
   17   11    6     -2.62      0.00
   17   11    7      1.46      0.00
   17   11    8     -0.94      0.00
   17   11    9     -1.36      0.00
   17   11   10     -0.77      0.00
   17   11   11      2.62      0.00
   17   11   12      2.76      0.00
   17   11   13     -4.53      0.00
   17   11   14     -1.79      0.00
   17   11   15      4.20      0.00
  -17   13   14     -1.71      0.00
  -17   13   13     -1.71      0.00
  -17   13   12      1.77      0.00
  -17   13   11      1.02      0.00
  -17   13   10     -3.55      0.00
  -17   13    9      2.76      0.00
  -17   13    8     -0.10      0.00
  -17   13    7      0.80      0.00
  -17   13    6      2.38      0.00
  -17   13    5      0.19      0.00
  -17   13    4     -1.67      0.00
  -17   13    3      0.90      0.00
  -17   13    2      1.23      0.00
  -17   13    1      1.20      0.00
   17   13    0      1.30      0.00
   17   13    1      4.51      0.00
   17   13    2      0.78      0.00
   17   13    3     -3.17      0.00
   17   13    4      0.39      0.00
   17   13    5     -1.69      0.00
   17   13    6     -1.73      0.00
   17   13    7      2.64      0.00
   17   13    8      0.98      0.00
   17   13    9     -0.79      0.00
   17   13   10     -1.17      0.00
   17   13   11      1.56      0.00
   17   13   12      1.83      0.00
   17   13   13     -4.66      0.00
   17   13   14     -0.10      0.00
  -17   15   14     -2.32      0.00
  -17   15   13     -0.96      0.00
  -17   15   12      2.07      0.00
  -17   15   11      2.81      0.00
  -17   15   10     -3.49      0.00
  -17   15    9     -0.06      0.00
  -17   15    8      1.80      0.00
  -17   15    7      2.01      0.00
  -17   15    6      0.57      0.00
  -17   15    5      0.69      0.00
  -17   15    4     -1.43      0.00
  -17   15    3     -0.17      0.00
  -17   15    2      0.91      0.00
  -17   15    1      0.98      0.00
   17   15    0      2.27      0.00
   17   15    1      3.83      0.00
   17   15    2      0.29      0.00
   17   15    3     -3.15      0.00
   17   15    4     -1.25      0.00
   17   15    5     -1.14      0.00
   17   15    6      1.76      0.00
   17   15    7      4.27      0.00
   17   15    8      0.00      0.00
   17   15    9     -2.33      0.00
   17   15   10     -1.25      0.00
   17   15   11      1.45      0.00
   17   15   12      2.17      0.00
   17   15   13     -3.30      0.00
  -17   17   13     -0.89      0.00
  -17   17   12      2.59      0.00
  -17   17   11      2.34      0.00
  -17   17   10     -1.12      0.00
  -17   17    9      0.60      0.00
  -17   17    8      0.24      0.00
  -17   17    7      1.25      0.00
  -17   17    6      1.05      0.00
  -17   17    5      1.16      0.00
  -17   17    4     -0.35      0.00
  -17   17    3     -1.20      0.00
  -17   17    2      0.04      0.00
  -17   17    1      0.39      0.00
   17   17    0      1.30      0.00
   17   17    1      1.98      0.00
   17   17    2      1.73      0.00
   17   17    3     -1.89      0.00
   17   17    4     -0.72      0.00
   17   17    5      0.47      0.00
   17   17    6      2.00      0.00
   17   17    7      2.38      0.00
   17   17    8     -0.16      0.00
   17   17    9     -1.62      0.00
   17   17   10     -0.50      0.00
   17   17   11      1.57      0.00
   17   17   12      1.60      0.00
  -17   19   11      1.78      0.00
  -17   19   10     -0.49      0.00
  -17   19    9      2.82      0.00
  -17   19    8      1.84      0.00
  -17   19    7     -1.78      0.00
  -17   19    6      0.49      0.00
  -17   19    5      2.21      0.00
  -17   19    4      0.66      0.00
  -17   19    3     -1.60      0.00
  -17   19    2      0.31      0.00
  -17   19    1     -0.99      0.00
   17   19    0     -0.19      0.00
   17   19    1      0.10      0.00
   17   19    2      2.40      0.00
   17   19    3      0.16      0.00
   17   19    4      2.25      0.00
   17   19    5     -0.66      0.00
   17   19    6     -1.71      0.00
   17   19    7      1.98      0.00
   17   19    8      2.98      0.00
   17   19    9     -0.28      0.00
   17   19   10     -0.71      0.00
   17   19   11      0.29      0.00
  -17   21   10      0.28      0.00
  -17   21    9      2.74      0.00
  -17   21    8      4.44      0.00
  -17   21    7     -2.43      0.00
  -17   21    6     -0.59      0.00
  -17   21    5      2.64      0.00
  -17   21    4      1.82      0.00
  -17   21    3     -2.65      0.00
  -17   21    2      1.01      0.00
  -17   21    1     -1.71      0.00
   17   21    0     -1.65      0.00
   17   21    1     -1.98      0.00
   17   21    2      2.67      0.00
   17   21    3      3.12      0.00
   17   21    4      3.35      0.00
   17   21    5     -4.01      0.00
   17   21    6     -1.70      0.00
   17   21    7      4.45      0.00
   17   21    8      3.05      0.00
   17   21    9     -1.04      0.00
   17   21   10     -0.49      0.00
  -17   23    8      4.51      0.00
  -17   23    7     -2.59      0.00
  -17   23    6      0.01      0.00
  -17   23    5      2.54      0.00
  -17   23    4      3.32      0.00
  -17   23    3     -3.16      0.00
  -17   23    2      0.23      0.00
  -17   23    1     -1.00      0.00
   17   23    0     -2.37      0.00
   17   23    1     -1.27      0.00
   17   23    2      3.57      0.00
   17   23    3      2.92      0.00
   17   23    4      1.99      0.00
   17   23    5     -3.60      0.00
   17   23    6      1.78      0.00
   17   23    7      3.64      0.00
   17   23    8     -0.96      0.00
  -17   25    5      2.04      0.00
  -17   25    4      4.28      0.00
  -17   25    3     -1.82      0.00
  -17   25    2     -0.91      0.00
  -17   25    1     -0.52      0.00
   17   25    0     -0.84      0.00
   17   25    1      1.67      0.00
   17   25    2      1.77      0.00
   17   25    3     -0.04      0.00
   17   25    4      3.14      0.00
   17   25    5     -0.77      0.00
  -18    0   16     -0.58      0.00
  -18    0   14      0.19      0.00
  -18    0   12     -2.48      0.00
  -18    0   10      5.27      0.00
  -18    0    8     -4.93      0.00
  -18    0    6      5.61      0.00
  -18    0    4     -4.05      0.00
  -18    0    2      2.48      0.00
   18    0    0     -3.62      0.00
   18    0    2      1.74      0.00
   18    0    4      1.49      0.00
   18    0    6     -1.38      0.00
   18    0    8     -2.75      0.00
   18    0   10      2.03      0.00
   18    0   12     -3.22      0.00
   18    0   14      0.10      0.00
   18    0   16     -0.92      0.00
  -18    2   16     -0.54      0.00
  -18    2   15      0.14      0.00
  -18    2   14      0.86      0.00
  -18    2   13     -1.47      0.00
  -18    2   12     -2.59      0.00
  -18    2   11      0.48      0.00
  -18    2   10      4.46      0.00
  -18    2    9     -0.90      0.00
  -18    2    8     -3.15      0.00
  -18    2    7     -0.15      0.00
  -18    2    6      3.11      0.00
  -18    2    5      1.46      0.00
  -18    2    4     -2.83      0.00
  -18    2    3      0.33      0.00
  -18    2    2      1.63      0.00
  -18    2    1      0.36      0.00
   18    2    0     -2.01      0.00
   18    2    1      0.73      0.00
   18    2    2      1.13      0.00
   18    2    3     -0.77      0.00
   18    2    4      1.08      0.00
   18    2    5      1.65      0.00
   18    2    6     -1.17      0.00
   18    2    7     -1.08      0.00
   18    2    8     -2.29      0.00
   18    2    9      0.84      0.00
   18    2   10      1.61      0.00
   18    2   11      0.20      0.00
   18    2   12     -3.00      0.00
   18    2   13      0.53      0.00
   18    2   14     -0.71      0.00
   18    2   15     -1.82      0.00
   18    2   16      0.34      0.00
  -18    4   16     -0.80      0.00
  -18    4   15     -0.99      0.00
  -18    4   14      1.72      0.00
  -18    4   13     -0.28      0.00
  -18    4   12     -3.03      0.00
  -18    4   11      0.00      0.00
  -18    4   10      3.80      0.00
  -18    4    9     -1.69      0.00
  -18    4    8     -0.89      0.00
  -18    4    7      1.72      0.00
  -18    4    6     -0.84      0.00
  -18    4    5      0.01      0.00
  -18    4    4     -0.97      0.00
  -18    4    3      1.87      0.00
  -18    4    2      1.88      0.00
  -18    4    1     -2.14      0.00
   18    4    0     -2.39      0.00
   18    4    1     -1.33      0.00
   18    4    2      2.85      0.00
   18    4    3     -0.45      0.00
   18    4    4     -1.47      0.00
   18    4    5      2.55      0.00
   18    4    6      0.33      0.00
   18    4    7     -2.16      0.00
   18    4    8     -2.15      0.00
   18    4    9      2.07      0.00
   18    4   10      1.05      0.00
   18    4   11     -0.32      0.00
   18    4   12     -1.73      0.00
   18    4   13      0.28      0.00
   18    4   14     -2.23      0.00
   18    4   15     -0.11      0.00
   18    4   16      1.14      0.00
  -18    6   16     -1.46      0.00
  -18    6   15     -2.52      0.00
  -18    6   14      1.16      0.00
  -18    6   13      2.29      0.00
  -18    6   12     -2.77      0.00
  -18    6   11     -2.09      0.00
  -18    6   10      3.07      0.00
  -18    6    9     -0.07      0.00
  -18    6    8      0.06      0.00
  -18    6    7      1.91      0.00
  -18    6    6     -1.43      0.00
  -18    6    5     -1.68      0.00
  -18    6    4     -0.99      0.00
  -18    6    3      2.00      0.00
  -18    6    2      3.30      0.00
  -18    6    1     -1.80      0.00
   18    6    0     -5.00      0.00
   18    6    1      0.22      0.00
   18    6    2      5.90      0.00
   18    6    3     -2.65      0.00
   18    6    4     -4.94      0.00
   18    6    5      4.37      0.00
   18    6    6      2.55      0.00
   18    6    7     -4.56      0.00
   18    6    8     -1.92      0.00
   18    6    9      4.72      0.00
   18    6   10      0.31      0.00
   18    6   11     -1.01      0.00
   18    6   12     -0.20      0.00
   18    6   13     -1.63      0.00
   18    6   14     -2.08      0.00
   18    6   15      2.61      0.00
   18    6   16     -1.26      0.00
  -18    8   16     -1.62      0.00
  -18    8   15     -2.62      0.00
  -18    8   14      0.16      0.00
  -18    8   13      2.95      0.00
  -18    8   12     -1.53      0.00
  -18    8   11     -2.70      0.00
  -18    8   10      0.56      0.00
  -18    8    9      1.17      0.00
  -18    8    8      2.54      0.00
  -18    8    7     -1.05      0.00
  -18    8    6     -1.23      0.00
  -18    8    5      0.41      0.00
  -18    8    4     -1.49      0.00
  -18    8    3      0.07      0.00
  -18    8    2      2.23      0.00
  -18    8    1     -0.17      0.00
   18    8    0     -2.90      0.00
   18    8    1      2.74      0.00
   18    8    2      3.64      0.00
   18    8    3     -5.19      0.00
   18    8    4     -4.74      0.00
   18    8    5      6.49      0.00
   18    8    6      2.50      0.00
   18    8    7     -6.14      0.00
   18    8    8      0.35      0.00
   18    8    9      5.61      0.00
   18    8   10     -1.18      0.00
   18    8   11     -1.10      0.00
   18    8   12     -0.51      0.00
   18    8   13     -2.76      0.00
   18    8   14      0.11      0.00
   18    8   15      1.83      0.00
  -18   10   15     -1.54      0.00
  -18   10   14      0.37      0.00
  -18   10   13      2.50      0.00
  -18   10   12     -1.28      0.00
  -18   10   11     -1.54      0.00
  -18   10   10     -0.41      0.00
  -18   10    9     -1.10      0.00
  -18   10    8      4.86      0.00
  -18   10    7     -1.47      0.00
  -18   10    6     -3.99      0.00
  -18   10    5      2.45      0.00
  -18   10    4      0.34      0.00
  -18   10    3     -1.28      0.00
  -18   10    2      0.93      0.00
  -18   10    1     -1.83      0.00
   18   10    0     -1.06      0.00
   18   10    1     -0.33      0.00
   18   10    2      0.52      0.00
   18   10    3     -2.65      0.00
   18   10    4     -1.82      0.00
   18   10    5      5.62      0.00
   18   10    6      0.66      0.00
   18   10    7     -4.06      0.00
   18   10    8      1.39      0.00
   18   10    9      1.98      0.00
   18   10   10     -1.76      0.00
   18   10   11     -0.76      0.00
   18   10   12     -1.23      0.00
   18   10   13     -1.00      0.00
   18   10   14      0.98      0.00
   18   10   15     -1.24      0.00
  -18   12   14      0.85      0.00
  -18   12   13      3.48      0.00
  -18   12   12     -0.97      0.00
  -18   12   11     -2.49      0.00
  -18   12   10      0.92      0.00
  -18   12    9     -2.19      0.00
  -18   12    8      2.59      0.00
  -18   12    7      1.68      0.00
  -18   12    6     -5.17      0.00
  -18   12    5     -0.61      0.00
  -18   12    4      2.64      0.00
  -18   12    3     -1.01      0.00
  -18   12    2      1.08      0.00
  -18   12    1     -1.60      0.00
   18   12    0     -3.89      0.00
   18   12    1     -2.16      0.00
   18   12    2      2.66      0.00
   18   12    3      1.29      0.00
   18   12    4     -0.98      0.00
   18   12    5      2.55      0.00
   18   12    6     -0.31      0.00
   18   12    7     -2.14      0.00
   18   12    8     -1.26      0.00
   18   12    9     -1.17      0.00
   18   12   10     -0.43      0.00
   18   12   11     -0.21      0.00
   18   12   12     -0.49      0.00
   18   12   13      0.33      0.00
   18   12   14     -0.29      0.00
  -18   14   14      0.58      0.00
  -18   14   13      4.12      0.00
  -18   14   12      0.61      0.00
  -18   14   11     -3.38      0.00
  -18   14   10      0.49      0.00
  -18   14    9     -0.06      0.00
  -18   14    8     -0.74      0.00
  -18   14    7      2.10      0.00
  -18   14    6     -2.13      0.00
  -18   14    5     -4.03      0.00
  -18   14    4      1.82      0.00
  -18   14    3      0.19      0.00
  -18   14    2     -0.16      0.00
  -18   14    1      1.27      0.00
   18   14    0     -3.62      0.00
   18   14    1      0.96      0.00
   18   14    2      3.71      0.00
   18   14    3      1.33      0.00
   18   14    4     -1.14      0.00
   18   14    5      0.82      0.00
   18   14    6     -1.93      0.00
   18   14    7     -3.33      0.00
   18   14    8     -2.20      0.00
   18   14    9     -0.16      0.00
   18   14   10      0.50      0.00
   18   14   11      0.09      0.00
   18   14   12     -0.69      0.00
   18   14   13     -0.44      0.00
  -18   16   13      3.03      0.00
  -18   16   12      0.09      0.00
  -18   16   11     -0.99      0.00
  -18   16   10      0.14      0.00
  -18   16    9     -0.08      0.00
  -18   16    8     -1.06      0.00
  -18   16    7      0.47      0.00
  -18   16    6     -0.43      0.00
  -18   16    5     -2.98      0.00
  -18   16    4     -0.93      0.00
  -18   16    3      0.83      0.00
  -18   16    2     -1.13      0.00
  -18   16    1      1.28      0.00
   18   16    0     -0.17      0.00
   18   16    1      1.77      0.00
   18   16    2      0.21      0.00
   18   16    3      0.28      0.00
   18   16    4      0.41      0.00
   18   16    5      0.27      0.00
   18   16    6     -4.30      0.00
   18   16    7     -3.62      0.00
   18   16    8     -0.24      0.00
   18   16    9      0.78      0.00
   18   16   10      0.08      0.00
   18   16   11     -0.50      0.00
   18   16   12     -2.38      0.00
   18   16   13      0.07      0.00
  -18   18   12     -2.19      0.00
  -18   18   11      0.26      0.00
  -18   18   10      2.62      0.00
  -18   18    9     -1.95      0.00
  -18   18    8     -2.12      0.00
  -18   18    7      1.63      0.00
  -18   18    6     -1.15      0.00
  -18   18    5     -1.12      0.00
  -18   18    4     -2.12      0.00
  -18   18    3     -0.17      0.00
  -18   18    2     -0.65      0.00
  -18   18    1      1.24      0.00
   18   18    0      0.31      0.00
   18   18    1      0.96      0.00
   18   18    2     -2.08      0.00
   18   18    3     -0.13      0.00
   18   18    4      1.06      0.00
   18   18    5      0.86      0.00
   18   18    6     -3.54      0.00
   18   18    7     -3.50      0.00
   18   18    8     -1.05      0.00
   18   18   10      0.14      0.00
   18   18   11     -0.77      0.00
  -18   20   10      2.99      0.00
  -18   20    9     -1.13      0.00
  -18   20    8     -4.39      0.00
  -18   20    7      2.78      0.00
  -18   20    6     -0.97      0.00
  -18   20    5     -1.20      0.00
  -18   20    4     -1.53      0.00
  -18   20    3     -0.22      0.00
  -18   20    2     -2.43      0.00
  -18   20    1      2.67      0.00
   18   20    0      1.21      0.00
   18   20    1      2.52      0.00
   18   20    2     -2.59      0.00
   18   20    3     -1.83      0.00
   18   20    4     -0.29      0.00
   18   20    5      3.75      0.00
   18   20    6     -1.68      0.00
   18   20    7     -6.57      0.00
   18   20    8     -2.31      0.00
   18   20    9      2.00      0.00
   18   20   10      0.53      0.00
  -18   22    8     -3.33      0.00
  -18   22    7      2.07      0.00
  -18   22    6     -1.47      0.00
  -18   22    5     -1.50      0.00
  -18   22    4     -1.13      0.00
  -18   22    3      1.99      0.00
  -18   22    2     -4.47      0.00
  -18   22    1      0.57      0.00
   18   22    0      3.23      0.00
   18   22    1      1.44      0.00
   18   22    2     -3.12      0.00
   18   22    3     -1.90      0.00
   18   22    4     -1.64      0.00
   18   22    5      4.52      0.00
   18   22    6     -2.46      0.00
   18   22    7     -7.02      0.00
   18   22    8      0.57      0.00
  -18   24    6     -2.91      0.00
  -18   24    5     -1.61      0.00
  -18   24    4     -1.18      0.00
  -18   24    3      2.57      0.00
  -18   24    2     -3.04      0.00
  -18   24    1     -2.08      0.00
   18   24    0      0.59      0.00
   18   24    1     -2.12      0.00
   18   24    2     -0.22      0.00
   18   24    3      0.94      0.00
   18   24    4     -4.61      0.00
   18   24    5      0.85      0.00
   18   24    6     -1.14      0.00
  -19    1   16     -1.61      0.00
  -19    1   15     -0.43      0.00
  -19    1   14      0.09      0.00
  -19    1   13      1.55      0.00
  -19    1   12      0.61      0.00
  -19    1   11     -0.78      0.00
  -19    1   10     -3.24      0.00
  -19    1    9     -0.31      0.00
  -19    1    8      4.26      0.00
  -19    1    7      0.28      0.00
  -19    1    6     -4.83      0.00
  -19    1    5      0.02      0.00
  -19    1    4      0.40      0.00
  -19    1    3     -1.16      0.00
  -19    1    2      0.80      0.00
  -19    1    1     -0.21      0.00
   19    1    0      2.57      0.00
   19    1    1     -1.76      0.00
   19    1    2     -1.18      0.00
   19    1    3      1.33      0.00
   19    1    4     -1.46      0.00
   19    1    5     -0.05      0.00
   19    1    6      1.62      0.00
   19    1    7     -0.45      0.00
   19    1    8      1.03      0.00
   19    1    9     -0.35      0.00
   19    1   10      0.00      0.00
   19    1   11      0.03      0.00
   19    1   12      1.03      0.00
   19    1   13      0.20      0.00
   19    1   14      0.52      0.00
   19    1   15      0.49      0.00
   19    1   16     -1.23      0.00
  -19    3   16     -0.94      0.00
  -19    3   15     -0.45      0.00
  -19    3   14     -1.69      0.00
  -19    3   13      1.72      0.00
  -19    3   12      2.95      0.00
  -19    3   11     -0.72      0.00
  -19    3   10     -3.27      0.00
  -19    3    9     -1.07      0.00
  -19    3    8      2.27      0.00
  -19    3    7      0.61      0.00
  -19    3    6     -2.05      0.00
  -19    3    5     -0.09      0.00
  -19    3    4     -0.55      0.00
  -19    3    3     -2.63      0.00
  -19    3    2      0.43      0.00
  -19    3    1      1.30      0.00
   19    3    0     -0.54      0.00
   19    3    1     -0.21      0.00
   19    3    2      2.69      0.00
   19    3    3      0.19      0.00
   19    3    4     -2.21      0.00
   19    3    5      1.13      0.00
   19    3    6      0.70      0.00
   19    3    7     -1.80      0.00
   19    3    8      1.50      0.00
   19    3    9     -0.30      0.00
   19    3   10      0.88      0.00
   19    3   11     -0.39      0.00
   19    3   12      0.18      0.00
   19    3   13      0.40      0.00
   19    3   14      0.32      0.00
   19    3   15      0.77      0.00
   19    3   16     -1.85      0.00
  -19    5   16     -0.02      0.00
  -19    5   15      0.13      0.00
  -19    5   14     -1.07      0.00
  -19    5   13     -0.79      0.00
  -19    5   12      2.95      0.00
  -19    5   11      1.39      0.00
  -19    5   10     -2.47      0.00
  -19    5    9     -2.05      0.00
  -19    5    8     -0.13      0.00
  -19    5    7      0.20      0.00
  -19    5    6      0.97      0.00
  -19    5    5      0.59      0.00
  -19    5    4     -1.71      0.00
  -19    5    3     -2.83      0.00
  -19    5    2     -0.96      0.00
  -19    5    1      2.85      0.00
   19    5    0      0.35      0.00
   19    5    1      3.68      0.00
   19    5    2      1.49      0.00
   19    5    3     -2.26      0.00
   19    5    4      0.34      0.00
   19    5    5      1.63      0.00
   19    5    6     -2.22      0.00
   19    5    7     -1.82      0.00
   19    5    8      3.44      0.00
   19    5    9     -0.95      0.00
   19    5   10      0.73      0.00
   19    5   11     -0.52      0.00
   19    5   12     -0.53      0.00
   19    5   13      0.82      0.00
   19    5   14      0.17      0.00
   19    5   15     -0.09      0.00
  -19    7   15      0.43      0.00
  -19    7   14      0.81      0.00
  -19    7   13     -1.29      0.00
  -19    7   12      1.10      0.00
  -19    7   11      2.02      0.00
  -19    7   10     -1.02      0.00
  -19    7    9     -1.98      0.00
  -19    7    8     -1.84      0.00
  -19    7    7     -0.50      0.00
  -19    7    6      1.59      0.00
  -19    7    5      0.61      0.00
  -19    7    4     -0.74      0.00
  -19    7    3     -1.54      0.00
  -19    7    2     -1.88      0.00
  -19    7    1      1.52      0.00
   19    7    0      1.24      0.00
   19    7    1      2.69      0.00
   19    7    2     -0.23      0.00
   19    7    3     -0.57      0.00
   19    7    4      1.92      0.00
   19    7    5     -1.23      0.00
   19    7    6     -3.34      0.00
   19    7    7      1.02      0.00
   19    7    8      3.49      0.00
   19    7    9     -2.74      0.00
   19    7   10      1.29      0.00
   19    7   11     -0.15      0.00
   19    7   12     -0.66      0.00
   19    7   13      1.93      0.00
   19    7   14     -0.48      0.00
   19    7   15     -0.61      0.00
  -19    9   15      1.53      0.00
  -19    9   14      0.73      0.00
  -19    9   13     -0.95      0.00
  -19    9   12      1.27      0.00
  -19    9   11      1.59      0.00
  -19    9   10     -0.59      0.00
  -19    9    9     -1.02      0.00
  -19    9    8     -2.61      0.00
  -19    9    7     -0.97      0.00
  -19    9    6      2.28      0.00
  -19    9    5     -1.63      0.00
  -19    9    4     -0.42      0.00
  -19    9    3      0.76      0.00
  -19    9    2     -1.12      0.00
  -19    9    1      1.62      0.00
   19    9    0     -0.45      0.00
   19    9    1      2.93      0.00
   19    9    2      0.83      0.00
   19    9    3     -0.44      0.00
   19    9    4      0.09      0.00
   19    9    5     -2.92      0.00
   19    9    6     -0.42      0.00
   19    9    7      2.28      0.00
   19    9    8      1.04      0.00
   19    9    9     -1.30      0.00
   19    9   10      2.34      0.00
   19    9   11     -0.94      0.00
   19    9   12     -0.16      0.00
   19    9   13      2.61      0.00
   19    9   14     -1.01      0.00
   19    9   15      0.17      0.00
  -19   11   14      0.42      0.00
  -19   11   13     -2.88      0.00
  -19   11   12      1.64      0.00
  -19   11   11      3.22      0.00
  -19   11   10     -0.18      0.00
  -19   11    9     -1.77      0.00
  -19   11    8     -2.32      0.00
  -19   11    7     -1.80      0.00
  -19   11    6      4.26      0.00
  -19   11    5     -1.21      0.00
  -19   11    4     -3.06      0.00
  -19   11    3      0.56      0.00
  -19   11    2     -0.20      0.00
  -19   11    1      3.21      0.00
   19   11    0      1.15      0.00
   19   11    1      4.16      0.00
   19   11    2     -2.17      0.00
   19   11    3     -2.31      0.00
   19   11    4      0.75      0.00
   19   11    5     -1.09      0.00
   19   11    6      1.19      0.00
   19   11    7      0.43      0.00
   19   11    8      1.88      0.00
   19   11    9      2.03      0.00
   19   11   10      0.41      0.00
   19   11   11     -1.75      0.00
   19   11   12      0.08      0.00
   19   11   13      2.46      0.00
   19   11   14      0.00      0.00
  -19   13   14      1.59      0.00
  -19   13   13     -4.38      0.00
  -19   13   12     -0.83      0.00
  -19   13   11      4.03      0.00
  -19   13   10      2.35      0.00
  -19   13    9     -3.43      0.00
  -19   13    8     -1.63      0.00
  -19   13    7     -1.87      0.00
  -19   13    6      3.17      0.00
  -19   13    5      2.41      0.00
  -19   13    4     -2.81      0.00
  -19   13    3     -2.03      0.00
  -19   13    2     -0.11      0.00
  -19   13    1      1.71      0.00
   19   13    0      2.53      0.00
   19   13    1     -0.17      0.00
   19   13    2     -5.17      0.00
   19   13    3     -0.13      0.00
   19   13    4      3.31      0.00
   19   13    5     -0.32      0.00
   19   13    6     -0.16      0.00
   19   13    7      0.81      0.00
   19   13    8      4.68      0.00
   19   13    9      0.87      0.00
   19   13   10     -1.94      0.00
   19   13   11     -0.83      0.00
   19   13   12     -0.46      0.00
   19   13   13      2.99      0.00
  -19   15   13     -2.92      0.00
  -19   15   12     -2.21      0.00
  -19   15   11      0.23      0.00
  -19   15   10      2.96      0.00
  -19   15    9     -1.93      0.00
  -19   15    8     -0.97      0.00
  -19   15    7     -0.47      0.00
  -19   15    6      0.25      0.00
  -19   15    5      2.01      0.00
  -19   15    4      1.23      0.00
  -19   15    3     -1.55      0.00
  -19   15    2     -0.18      0.00
  -19   15    1     -0.64      0.00
   19   15    0     -0.66      0.00
   19   15    1     -3.29      0.00
   19   15    2     -1.94      0.00
   19   15    3      2.04      0.00
   19   15    4      2.01      0.00
   19   15    5     -1.09      0.00
   19   15    6      0.78      0.00
   19   15    7      2.78      0.00
   19   15    8      2.51      0.00
   19   15    9     -1.82      0.00
   19   15   10     -0.55      0.00
   19   15   11      0.14      0.00
   19   15   12     -0.02      0.00
   19   15   13      3.16      0.00
  -19   17   12      0.66      0.00
  -19   17   11     -2.94      0.00
  -19   17   10     -2.19      0.00
  -19   17    9      0.83      0.00
  -19   17    8      1.20      0.00
  -19   17    7     -0.66      0.00
  -19   17    6      0.13      0.00
  -19   17    5     -0.63      0.00
  -19   17    4      1.98      0.00
  -19   17    3      1.86      0.00
  -19   17    2      0.29      0.00
  -19   17    1     -1.65      0.00
   19   17    0     -1.69      0.00
   19   17    1     -1.46      0.00
   19   17    2      0.36      0.00
   19   17    3      0.41      0.00
   19   17    4     -0.98      0.00
   19   17    5     -0.55      0.00
   19   17    6      3.07      0.00
   19   17    7      2.06      0.00
   19   17    8     -0.57      0.00
   19   17    9     -0.88      0.00
   19   17   10      0.84      0.00
   19   17   11      0.30      0.00
  -19   19   10     -6.45      0.00
  -19   19    9     -0.59      0.00
  -19   19    8      4.03      0.00
  -19   19    7     -1.80      0.00
  -19   19    6     -0.31      0.00
  -19   19    5      0.63      0.00
  -19   19    4      0.26      0.00
  -19   19    3      2.33      0.00
  -19   19    2      1.97      0.00
  -19   19    1     -2.83      0.00
   19   19    0     -0.73      0.00
   19   19    1     -1.97      0.00
   19   19    2     -0.09      0.00
   19   19    3      0.23      0.00
   19   19    4     -2.20      0.00
   19   19    5     -1.09      0.00
   19   19    6      2.69      0.00
   19   19    7      3.20      0.00
   19   19    8      0.87      0.00
   19   19    9     -1.63      0.00
   19   19   10     -0.83      0.00
  -19   21    9     -3.29      0.00
  -19   21    8      2.57      0.00
  -19   21    7     -0.29      0.00
  -19   21    6     -2.00      0.00
  -19   21    5      1.77      0.00
  -19   21    4      1.16      0.00
  -19   21    3     -0.12      0.00
  -19   21    2      3.12      0.00
  -19   21    1     -1.41      0.00
   19   21    0     -2.52      0.00
   19   21    1     -2.44      0.00
   19   21    2      1.90      0.00
   19   21    3      1.05      0.00
   19   21    4     -3.14      0.00
   19   21    5     -3.08      0.00
   19   21    6      2.56      0.00
   19   21    7      7.35      0.00
   19   21    8      0.80      0.00
  -19   23    6     -0.26      0.00
  -19   23    5      0.29      0.00
  -19   23    4      1.90      0.00
  -19   23    3     -0.54      0.00
  -19   23    2      1.19      0.00
  -19   23    1      1.85      0.00
   19   23    0     -1.17      0.00
   19   23    1      0.94      0.00
   19   23    2      1.60      0.00
   19   23    3     -0.96      0.00
   19   23    4     -2.19      0.00
   19   23    5     -2.01      0.00
   19   23    6      2.80      0.00
  -19   25    2     -1.00      0.00
  -19   25    1      1.08      0.00
   19   25    0      4.12      0.00
   19   25    1      0.75      0.00
   19   25    2     -3.33      0.00
  -20    0   16      0.99      0.00
  -20    0   14      0.65      0.00
  -20    0   12     -0.40      0.00
  -20    0   10      0.34      0.00
  -20    0    8     -2.22      0.00
  -20    0    6      0.26      0.00
  -20    0    4      4.60      0.00
  -20    0    2     -5.07      0.00
   20    0    0      1.04      0.00
   20    0    2      2.29      0.00
   20    0    4     -2.67      0.00
   20    0    6      1.51      0.00
   20    0    8     -0.36      0.00
   20    0   10      0.72      0.00
   20    0   12     -2.00      0.00
   20    0   14      2.71      0.00
  -20    2   16      1.21      0.00
  -20    2   15     -0.56      0.00
  -20    2   14      1.23      0.00
  -20    2   13     -0.47      0.00
  -20    2   12     -2.04      0.00
  -20    2   11      1.63      0.00
  -20    2   10      1.09      0.00
  -20    2    9      0.43      0.00
  -20    2    8     -1.71      0.00
  -20    2    7     -0.88      0.00
  -20    2    6     -0.18      0.00
  -20    2    5     -0.66      0.00
  -20    2    4      4.01      0.00
  -20    2    3      2.47      0.00
  -20    2    2     -3.60      0.00
  -20    2    1     -1.11      0.00
   20    2    0      1.68      0.00
   20    2    1      2.17      0.00
   20    2    2     -0.78      0.00
   20    2    3     -3.23      0.00
   20    2    4     -0.43      0.00
   20    2    5      1.89      0.00
   20    2    6      0.45      0.00
   20    2    7     -1.36      0.00
   20    2    8      0.36      0.00
   20    2    9      1.66      0.00
   20    2   10     -0.67      0.00
   20    2   11     -1.32      0.00
   20    2   12     -0.38      0.00
   20    2   13      0.30      0.00
   20    2   14      2.40      0.00
   20    2   15      1.11      0.00
  -20    4   15     -0.30      0.00
  -20    4   14      0.22      0.00
  -20    4   13      0.52      0.00
  -20    4   12     -2.23      0.00
  -20    4   11      0.83      0.00
  -20    4   10      0.90      0.00
  -20    4    9      0.88      0.00
  -20    4    8     -0.22      0.00
  -20    4    7     -0.69      0.00
  -20    4    6     -1.36      0.00
  -20    4    5     -1.15      0.00
  -20    4    4      3.58      0.00
  -20    4    3      2.73      0.00
  -20    4    2     -1.40      0.00
  -20    4    1     -1.34      0.00
   20    4    0      1.39      0.00
   20    4    1     -0.60      0.00
   20    4    2     -2.99      0.00
   20    4    3      0.03      0.00
   20    4    4      0.78      0.00
   20    4    5     -0.06      0.00
   20    4    6      0.55      0.00
   20    4    7      0.36      0.00
   20    4    8     -0.57      0.00
   20    4    9      0.24      0.00
   20    4   10     -0.95      0.00
   20    4   11      0.15      0.00
   20    4   12      0.77      0.00
   20    4   13     -0.30      0.00
   20    4   14      2.51      0.00
   20    4   15      0.69      0.00
  -20    6   15      1.82      0.00
  -20    6   14     -1.65      0.00
  -20    6   13     -1.03      0.00
  -20    6   12      0.46      0.00
  -20    6   11      1.21      0.00
  -20    6   10     -0.92      0.00
  -20    6    9      0.22      0.00
  -20    6    8      1.06      0.00
  -20    6    7      1.10      0.00
  -20    6    6     -1.72      0.00
  -20    6    5     -2.48      0.00
  -20    6    4      2.47      0.00
  -20    6    3      2.87      0.00
  -20    6    2      0.10      0.00
  -20    6    1     -0.72      0.00
   20    6    0     -0.32      0.00
   20    6    1     -2.64      0.00
   20    6    2     -0.67      0.00
   20    6    3      2.62      0.00
   20    6    4     -1.04      0.00
   20    6    5     -0.81      0.00
   20    6    6      2.13      0.00
   20    6    7      0.67      0.00
   20    6    8     -3.20      0.00
   20    6    9      0.26      0.00
   20    6   10      0.67      0.00
   20    6   11      0.10      0.00
   20    6   12     -0.25      0.00
   20    6   13      0.50      0.00
   20    6   14      3.20      0.00
   20    6   15     -1.24      0.00
  -20    8   15      1.99      0.00
  -20    8   14     -0.34      0.00
  -20    8   13     -2.85      0.00
  -20    8   12      0.18      0.00
  -20    8   11      2.37      0.00
  -20    8   10     -0.96      0.00
  -20    8    9     -0.24      0.00
  -20    8    8      0.93      0.00
  -20    8    7      2.57      0.00
  -20    8    6     -0.88      0.00
  -20    8    5     -2.14      0.00
  -20    8    4      0.14      0.00
  -20    8    3      1.75      0.00
  -20    8    2      1.07      0.00
  -20    8    1     -0.07      0.00
   20    8    0     -0.20      0.00
   20    8    1     -2.83      0.00
   20    8    2      0.04      0.00
   20    8    3      3.08      0.00
   20    8    4     -0.61      0.00
   20    8    5     -0.31      0.00
   20    8    6      0.39      0.00
   20    8    7     -0.65      0.00
   20    8    8     -2.10      0.00
   20    8    9      1.28      0.00
   20    8   10     -0.46      0.00
   20    8   11     -0.66      0.00
   20    8   12      0.08      0.00
   20    8   13      1.68      0.00
   20    8   14      2.82      0.00
  -20   10   14      0.80      0.00
  -20   10   13     -0.17      0.00
  -20   10   12     -1.94      0.00
  -20   10   11      0.29      0.00
  -20   10   10     -0.07      0.00
  -20   10    9      1.72      0.00
  -20   10    8      0.51      0.00
  -20   10    7      2.21      0.00
  -20   10    6     -1.09      0.00
  -20   10    5     -0.08      0.00
  -20   10    4      0.76      0.00
  -20   10    3     -0.21      0.00
  -20   10    2     -0.17      0.00
  -20   10    1     -0.92      0.00
   20   10    0      0.78      0.00
   20   10    1     -4.43      0.00
   20   10    2      0.64      0.00
   20   10    3      4.59      0.00
   20   10    4     -0.86      0.00
   20   10    5     -2.03      0.00
   20   10    6     -1.52      0.00
   20   10    7      1.02      0.00
   20   10    8     -0.20      0.00
   20   10    9     -0.96      0.00
   20   10   10     -0.92      0.00
   20   10   11      1.24      0.00
   20   10   12      0.58      0.00
   20   10   13      0.87      0.00
   20   10   14      1.53      0.00
  -20   12   14     -1.63      0.00
  -20   12   13      2.21      0.00
  -20   12   12     -0.71      0.00
  -20   12   11     -1.61      0.00
  -20   12   10     -1.51      0.00
  -20   12    9      3.58      0.00
  -20   12    8      0.87      0.00
  -20   12    7      1.19      0.00
  -20   12    6     -0.95      0.00
  -20   12    5      0.02      0.00
  -20   12    4      2.06      0.00
  -20   12    3      0.87      0.00
  -20   12    2     -1.44      0.00
  -20   12    1     -2.45      0.00
   20   12    0      0.49      0.00
   20   12    1     -3.69      0.00
   20   12    2      2.44      0.00
   20   12    3      2.27      0.00
   20   12    4     -3.50      0.00
   20   12    5     -1.31      0.00
   20   12    6      1.10      0.00
   20   12    7      1.92      0.00
   20   12    8     -2.93      0.00
   20   12    9     -1.33      0.00
   20   12   10      2.72      0.00
   20   12   11      1.50      0.00
   20   12   12     -0.30      0.00
   20   12   13     -0.41      0.00
  -20   14   13      0.17      0.00
  -20   14   12      0.92      0.00
  -20   14   11      1.04      0.00
  -20   14   10     -2.40      0.00
  -20   14    9      1.99      0.00
  -20   14    8      0.63      0.00
  -20   14    7      0.13      0.00
  -20   14    6      1.41      0.00
  -20   14    5      0.62      0.00
  -20   14    4     -0.55      0.00
  -20   14    3      1.19      0.00
  -20   14    2     -0.07      0.00
  -20   14    1     -1.70      0.00
   20   14    0      1.24      0.00
   20   14    1     -0.64      0.00
   20   14    2      0.15      0.00
   20   14    3     -2.11      0.00
   20   14    4     -1.92      0.00
   20   14    5      2.74      0.00
   20   14    6      2.37      0.00
   20   14    7     -1.53      0.00
   20   14    8     -3.66      0.00
   20   14    9      3.15      0.00
   20   14   10      3.31      0.00
   20   14   11     -1.26      0.00
   20   14   12      0.18      0.00
  -20   16   12     -0.50      0.00
  -20   16   11      3.76      0.00
  -20   16   10      0.88      0.00
  -20   16    9     -0.40      0.00
  -20   16    8     -1.06      0.00
  -20   16    7     -0.50      0.00
  -20   16    6      2.26      0.00
  -20   16    5      2.81      0.00
  -20   16    4     -1.05      0.00
  -20   16    3     -2.13      0.00
  -20   16    2     -0.05      0.00
  -20   16    1      0.47      0.00
   20   16    0      2.49      0.00
   20   16    1     -0.76      0.00
   20   16    2     -2.17      0.00
   20   16    3     -0.91      0.00
   20   16    4      2.04      0.00
   20   16    5      2.75      0.00
   20   16    6     -0.56      0.00
   20   16    7     -2.00      0.00
   20   16    8      1.06      0.00
   20   16    9      3.74      0.00
   20   16   10     -0.73      0.00
   20   16   11     -1.56      0.00
  -20   18   10      4.49      0.00
  -20   18    9      0.49      0.00
  -20   18    8     -2.53      0.00
  -20   18    7      0.15      0.00
  -20   18    6      1.67      0.00
  -20   18    5      0.58      0.00
  -20   18    4      2.04      0.00
  -20   18    3     -2.12      0.00
  -20   18    2     -2.11      0.00
  -20   18    1      1.04      0.00
   20   18    0      1.55      0.00
   20   18    1     -1.16      0.00
   20   18    2      0.72      0.00
   20   18    3      1.33      0.00
   20   18    4      2.06      0.00
   20   18    5     -0.28      0.00
   20   18    6     -0.85      0.00
   20   18    7      1.54      0.00
   20   18    8      1.80      0.00
   20   18    9     -0.04      0.00
   20   18   10     -0.90      0.00
  -20   20    9      2.53      0.00
  -20   20    8     -1.38      0.00
  -20   20    7      0.29      0.00
  -20   20    6      3.74      0.00
  -20   20    5     -3.34      0.00
  -20   20    4      0.34      0.00
  -20   20    3      1.08      0.00
  -20   20    2     -0.95      0.00
  -20   20    1      0.36      0.00
   20   20    0      0.68      0.00
   20   20    1      0.98      0.00
   20   20    2      1.83      0.00
   20   20    3     -0.44      0.00
   20   20    4      2.06      0.00
   20   20    5      0.22      0.00
   20   20    6      1.26      0.00
   20   20    7      0.13      0.00
   20   20    8     -1.97      0.00
   20   20    9      1.54      0.00
  -20   22    7     -0.11      0.00
  -20   22    6      5.17      0.00
  -20   22    5     -1.98      0.00
  -20   22    4     -3.66      0.00
  -20   22    3     -0.06      0.00
  -20   22    2      2.63      0.00
  -20   22    1      0.20      0.00
   20   22    0      0.73      0.00
   20   22    1      1.24      0.00
   20   22    2     -0.80      0.00
   20   22    3     -1.24      0.00
   20   22    4      4.93      0.00
   20   22    5      2.12      0.00
   20   22    6      0.00      0.00
   20   22    7     -4.33      0.00
  -20   24    3     -2.91      0.00
  -20   24    2      3.83      0.00
  -20   24    1      0.87      0.00
   20   24    0     -0.82      0.00
   20   24    1      0.43      0.00
   20   24    2     -0.52      0.00
   20   24    3     -0.24      0.00
  -21    1   15      0.58      0.00
  -21    1   14     -1.22      0.00
  -21    1   13     -0.23      0.00
  -21    1   12      1.62      0.00
  -21    1   11     -1.04      0.00
  -21    1   10     -0.67      0.00
  -21    1    9      0.72      0.00
  -21    1    8      1.96      0.00
  -21    1    7     -0.22      0.00
  -21    1    6      1.51      0.00
  -21    1    5      0.79      0.00
  -21    1    4     -3.15      0.00
  -21    1    3     -0.58      0.00
  -21    1    2      2.55      0.00
  -21    1    1      0.91      0.00
   21    1    0     -2.54      0.00
   21    1    1      0.13      0.00
   21    1    2     -0.45      0.00
   21    1    3      1.75      0.00
   21    1    4      1.42      0.00
   21    1    5     -2.51      0.00
   21    1    6     -1.03      0.00
   21    1    7      2.56      0.00
   21    1    8     -1.79      0.00
   21    1    9     -1.26      0.00
   21    1   10      0.69      0.00
   21    1   11      0.84      0.00
   21    1   12     -0.86      0.00
   21    1   13     -1.02      0.00
   21    1   14     -1.85      0.00
   21    1   15     -0.17      0.00
  -21    3   15      1.75      0.00
  -21    3   14     -0.62      0.00
  -21    3   13     -1.27      0.00
  -21    3   12      2.02      0.00
  -21    3   11     -1.11      0.00
  -21    3   10     -1.36      0.00
  -21    3    9      1.16      0.00
  -21    3    8      1.93      0.00
  -21    3    7     -0.80      0.00
  -21    3    6      1.10      0.00
  -21    3    5      2.36      0.00
  -21    3    4     -2.64      0.00
  -21    3    3     -0.89      0.00
  -21    3    2      1.21      0.00
  -21    3    1      0.44      0.00
   21    3    0     -0.13      0.00
   21    3    1     -0.02      0.00
   21    3    2     -0.29      0.00
   21    3    3      2.43      0.00
   21    3    4     -0.64      0.00
   21    3    5     -4.01      0.00
   21    3    6      1.27      0.00
   21    3    7      4.15      0.00
   21    3    8     -3.05      0.00
   21    3    9     -0.86      0.00
   21    3   10      1.26      0.00
   21    3   11     -0.30      0.00
   21    3   12     -2.61      0.00
   21    3   13     -0.20      0.00
   21    3   14      0.36      0.00
   21    3   15     -1.39      0.00
  -21    5   15      0.98      0.00
  -21    5   14      1.25      0.00
  -21    5   13     -0.32      0.00
  -21    5   12     -0.63      0.00
  -21    5   11     -1.41      0.00
  -21    5   10      0.95      0.00
  -21    5    9      1.45      0.00
  -21    5    8      0.70      0.00
  -21    5    7     -1.50      0.00
  -21    5    6      0.44      0.00
  -21    5    5      3.65      0.00
  -21    5    4     -1.95      0.00
  -21    5    3     -1.35      0.00
  -21    5    2      1.46      0.00
  -21    5    1     -1.23      0.00
   21    5    0      1.11      0.00
   21    5    1     -0.56      0.00
   21    5    2     -1.85      0.00
   21    5    3      0.97      0.00
   21    5    4      0.26      0.00
   21    5    5     -2.58      0.00
   21    5    6      0.94      0.00
   21    5    7      2.74      0.00
   21    5    8     -1.25      0.00
   21    5    9      0.83      0.00
   21    5   10     -1.32      0.00
   21    5   11     -1.84      0.00
   21    5   12     -0.57      0.00
   21    5   13      1.16      0.00
   21    5   14     -0.71      0.00
   21    5   15     -1.70      0.00
  -21    7   14      0.76      0.00
  -21    7   13      3.04      0.00
  -21    7   12     -1.77      0.00
  -21    7   11     -4.27      0.00
  -21    7   10      2.85      0.00
  -21    7    9      2.71      0.00
  -21    7    8     -0.54      0.00
  -21    7    7     -1.80      0.00
  -21    7    6      0.14      0.00
  -21    7    5      3.49      0.00
  -21    7    4     -0.55      0.00
  -21    7    3     -2.19      0.00
  -21    7    2      1.16      0.00
  -21    7    1     -0.96      0.00
   21    7    0      1.30      0.00
   21    7    1     -0.60      0.00
   21    7    2     -2.88      0.00
   21    7    3      0.59      0.00
   21    7    4      1.16      0.00
   21    7    5     -1.90      0.00
   21    7    6      0.84      0.00
   21    7    7      2.66      0.00
   21    7    8     -0.17      0.00
   21    7    9     -0.76      0.00
   21    7   10     -2.18      0.00
   21    7   11      0.50      0.00
   21    7   12      0.77      0.00
   21    7   13     -1.86      0.00
   21    7   14     -2.54      0.00
  -21    9   14     -0.87      0.00
  -21    9   13      2.88      0.00
  -21    9   12      0.19      0.00
  -21    9   11     -4.67      0.00
  -21    9   10      1.49      0.00
  -21    9    9      2.52      0.00
  -21    9    8     -0.62      0.00
  -21    9    7     -1.46      0.00
  -21    9    6      0.63      0.00
  -21    9    5      1.61      0.00
  -21    9    4     -0.06      0.00
  -21    9    3     -0.65      0.00
  -21    9    2      0.40      0.00
  -21    9    1     -0.71      0.00
   21    9    0      1.04      0.00
   21    9    1      0.77      0.00
   21    9    2     -1.62      0.00
   21    9    3     -1.08      0.00
   21    9    4      0.21      0.00
   21    9    5      0.93      0.00
   21    9    6      2.37      0.00
   21    9    7      0.56      0.00
   21    9    8     -2.76      0.00
   21    9    9     -1.07      0.00
   21    9   10      0.93      0.00
   21    9   11      0.91      0.00
   21    9   12     -1.56      0.00
   21    9   13     -4.02      0.00
   21    9   14     -1.50      0.00
  -21   11   13      1.17      0.00
  -21   11   12     -0.47      0.00
  -21   11   11     -2.91      0.00
  -21   11   10      0.57      0.00
  -21   11    9      1.58      0.00
  -21   11    8     -0.23      0.00
  -21   11    7     -1.62      0.00
  -21   11    6      0.66      0.00
  -21   11    5      0.09      0.00
  -21   11    4     -1.20      0.00
  -21   11    3      1.24      0.00
  -21   11    2      1.41      0.00
  -21   11    1     -0.23      0.00
   21   11    0      0.19      0.00
   21   11    1      3.14      0.00
   21   11    2     -0.19      0.00
   21   11    3     -2.78      0.00
   21   11    4      0.85      0.00
   21   11    5      3.21      0.00
   21   11    6      0.31      0.00
   21   11    7     -3.15      0.00
   21   11    8     -2.54      0.00
   21   11    9      1.30      0.00
   21   11   10      0.47      0.00
   21   11   11     -1.54      0.00
   21   11   12     -1.26      0.00
   21   11   13     -2.77      0.00
  -21   13   13      4.02      0.00
  -21   13   12     -1.69      0.00
  -21   13   11     -4.30      0.00
  -21   13   10      0.12      0.00
  -21   13    9      2.69      0.00
  -21   13    8      1.04      0.00
  -21   13    7     -2.33      0.00
  -21   13    6     -1.34      0.00
  -21   13    5     -0.67      0.00
  -21   13    4     -1.01      0.00
  -21   13    3      1.55      0.00
  -21   13    2      1.45      0.00
  -21   13    1      0.72      0.00
   21   13    0      0.18      0.00
   21   13    1      3.94      0.00
   21   13    2      1.33      0.00
   21   13    3     -0.94      0.00
   21   13    4      0.00      0.00
   21   13    5     -0.49      0.00
   21   13    6     -2.49      0.00
   21   13    7     -1.61      0.00
   21   13    8      0.64      0.00
   21   13    9     -0.45      0.00
   21   13   10     -3.09      0.00
   21   13   11     -0.19      0.00
   21   13   12      0.97      0.00
  -21   15   12      1.29      0.00
  -21   15   11     -5.37      0.00
  -21   15   10     -2.28      0.00
  -21   15    9      3.20      0.00
  -21   15    8      3.03      0.00
  -21   15    7     -1.67      0.00
  -21   15    6     -3.32      0.00
  -21   15    5     -2.09      0.00
  -21   15    4     -0.74      0.00
  -21   15    3      2.44      0.00
  -21   15    2      1.14      0.00
  -21   15    1      0.00      0.00
   21   15    0     -0.32      0.00
   21   15    1      2.67      0.00
   21   15    2      3.42      0.00
   21   15    3      0.79      0.00
   21   15    4     -4.05      0.00
   21   15    5     -3.95      0.00
   21   15    6     -0.47      0.00
   21   15    7      1.68      0.00
   21   15    8     -0.48      0.00
   21   15    9     -4.02      0.00
   21   15   10     -1.97      0.00
   21   15   11      2.48      0.00
  -21   17   10     -3.12      0.00
  -21   17    9      0.64      0.00
  -21   17    8      2.84      0.00
  -21   17    7      0.15      0.00
  -21   17    6     -2.58      0.00
  -21   17    5     -1.79      0.00
  -21   17    4     -3.14      0.00
  -21   17    3      1.44      0.00
  -21   17    2      2.92      0.00
  -21   17    1      0.35      0.00
   21   17    0     -1.92      0.00
   21   17    1      1.79      0.00
   21   17    2      3.00      0.00
   21   17    3      0.47      0.00
   21   17    4     -4.36      0.00
   21   17    5     -2.29      0.00
   21   17    6      0.46      0.00
   21   17    7     -0.64      0.00
   21   17    8     -2.44      0.00
   21   17    9     -1.78      0.00
   21   17   10      0.66      0.00
  -21   19    9     -0.93      0.00
  -21   19    8     -0.24      0.00
  -21   19    7      0.39      0.00
  -21   19    6     -1.20      0.00
  -21   19    5      1.42      0.00
  -21   19    4     -3.34      0.00
  -21   19    3     -2.28      0.00
  -21   19    2      1.45      0.00
  -21   19    1      2.32      0.00
   21   19    0     -0.82      0.00
   21   19    1      0.88      0.00
   21   19    2     -0.07      0.00
   21   19    3      1.94      0.00
   21   19    4     -0.91      0.00
   21   19    5     -1.58      0.00
   21   19    6     -3.36      0.00
   21   19    7     -3.09      0.00
   21   19    8      1.12      0.00
   21   19    9      1.45      0.00
  -21   21    7     -1.66      0.00
  -21   21    6     -1.58      0.00
  -21   21    5      3.05      0.00
  -21   21    4      0.34      0.00
  -21   21    3     -1.82      0.00
  -21   21    2     -3.61      0.00
  -21   21    1      0.35      0.00
   21   21    0      1.82      0.00
   21   21    1     -1.65      0.00
   21   21    2     -1.46      0.00
   21   21    3      4.44      0.00
   21   21    4     -0.79      0.00
   21   21    5     -3.73      0.00
   21   21    6     -4.61      0.00
   21   21    7     -0.15      0.00
  -21   23    4      1.61      0.00
  -21   23    3      1.83      0.00
  -21   23    2     -4.30      0.00
  -21   23    1     -3.40      0.00
   21   23    0      1.03      0.00
   21   23    1     -3.26      0.00
   21   23    2     -0.36      0.00
   21   23    3      4.31      0.00
   21   23    4     -3.47      0.00
  -22    0   14     -0.97      0.00
  -22    0   12      0.43      0.00
  -22    0    8     -3.12      0.00
  -22    0    6      1.83      0.00
  -22    0    4     -2.12      0.00
  -22    0    2      3.15      0.00
   22    0    0      0.36      0.00
   22    0    2     -1.75      0.00
   22    0    4      1.04      0.00
   22    0    6      0.93      0.00
   22    0    8      2.18      0.00
   22    0   10     -2.99      0.00
   22    0   12      4.32      0.00
   22    0   14      0.02      0.00
  -22    2   15     -0.45      0.00
  -22    2   14     -0.29      0.00
  -22    2   13     -0.37      0.00
  -22    2   12     -0.66      0.00
  -22    2   11      1.04      0.00
  -22    2   10      3.03      0.00
  -22    2    9     -1.56      0.00
  -22    2    8     -3.95      0.00
  -22    2    7      1.02      0.00
  -22    2    6      2.05      0.00
  -22    2    5     -1.54      0.00
  -22    2    4     -1.49      0.00
  -22    2    3     -0.49      0.00
  -22    2    2      2.55      0.00
  -22    2    1     -0.80      0.00
   22    2    0     -1.41      0.00
   22    2    1     -3.00      0.00
   22    2    2     -0.12      0.00
   22    2    3      0.53      0.00
   22    2    4      1.96      0.00
   22    2    5      2.03      0.00
   22    2    6     -0.95      0.00
   22    2    7     -2.44      0.00
   22    2    8      3.22      0.00
   22    2    9     -0.66      0.00
   22    2   10     -2.63      0.00
   22    2   11      1.23      0.00
   22    2   12      4.67      0.00
   22    2   13      1.45      0.00
   22    2   14     -2.56      0.00
  -22    4   14     -0.19      0.00
  -22    4   13      0.96      0.00
  -22    4   12     -0.63      0.00
  -22    4   11     -0.69      0.00
  -22    4   10      2.63      0.00
  -22    4    9      0.02      0.00
  -22    4    8     -3.37      0.00
  -22    4    7      0.05      0.00
  -22    4    6      2.22      0.00
  -22    4    5     -2.65      0.00
  -22    4    4     -0.85      0.00
  -22    4    3      0.18      0.00
  -22    4    2      0.47      0.00
  -22    4    1      0.33      0.00
   22    4    0     -2.42      0.00
   22    4    1     -1.17      0.00
   22    4    2      1.93      0.00
   22    4    3     -0.13      0.00
   22    4    4      2.45      0.00
   22    4    5      1.40      0.00
   22    4    6     -2.49      0.00
   22    4    7     -1.96      0.00
   22    4    8      3.42      0.00
   22    4    9     -2.33      0.00
   22    4   10     -0.22      0.00
   22    4   11      3.40      0.00
   22    4   12      2.66      0.00
   22    4   13     -1.61      0.00
   22    4   14     -3.87      0.00
  -22    6   14     -0.88      0.00
  -22    6   13      0.89      0.00
  -22    6   12      0.90      0.00
  -22    6   11     -0.21      0.00
  -22    6   10     -0.82      0.00
  -22    6    9     -0.01      0.00
  -22    6    8      0.26      0.00
  -22    6    7     -1.55      0.00
  -22    6    6      0.80      0.00
  -22    6    5     -1.49      0.00
  -22    6    4     -0.48      0.00
  -22    6    3      1.05      0.00
  -22    6    2     -1.54      0.00
  -22    6    1     -0.07      0.00
   22    6    0     -0.79      0.00
   22    6    1      0.92      0.00
   22    6    2      2.02      0.00
   22    6    3     -1.79      0.00
   22    6    4      1.36      0.00
   22    6    5      1.17      0.00
   22    6    6     -1.38      0.00
   22    6    7     -1.93      0.00
   22    6    8      1.92      0.00
   22    6    9     -1.62      0.00
   22    6   10      2.53      0.00
   22    6   11      2.45      0.00
   22    6   12     -0.98      0.00
   22    6   13     -2.27      0.00
   22    6   14     -0.15      0.00
  -22    8   14     -1.00      0.00
  -22    8   13     -0.23      0.00
  -22    8   12      0.77      0.00
  -22    8   11      1.99      0.00
  -22    8   10     -1.46      0.00
  -22    8    9     -2.66      0.00
  -22    8    8      2.53      0.00
  -22    8    7     -1.50      0.00
  -22    8    6     -2.00      0.00
  -22    8    5      0.29      0.00
  -22    8    4      0.85      0.00
  -22    8    3      0.74      0.00
  -22    8    2     -1.36      0.00
  -22    8    1     -1.22      0.00
   22    8    0     -0.72      0.00
   22    8    1      0.89      0.00
   22    8    2      1.05      0.00
   22    8    3     -2.76      0.00
   22    8    4      1.39      0.00
   22    8    5      0.94      0.00
   22    8    6     -1.00      0.00
   22    8    7     -1.89      0.00
   22    8    8      2.47      0.00
   22    8    9      0.47      0.00
   22    8   10      1.24      0.00
   22    8   11     -0.12      0.00
   22    8   12     -0.41      0.00
   22    8   13      1.02      0.00
  -22   10   13     -0.75      0.00
  -22   10   12      1.75      0.00
  -22   10   11      1.76      0.00
  -22   10   10     -0.13      0.00
  -22   10    9     -3.77      0.00
  -22   10    8      1.70      0.00
  -22   10    7      0.08      0.00
  -22   10    6     -3.09      0.00
  -22   10    5      0.24      0.00
  -22   10    4      1.99      0.00
  -22   10    3     -0.63      0.00
  -22   10    2     -0.57      0.00
  -22   10    1     -0.30      0.00
   22   10    0     -1.48      0.00
   22   10    1     -0.06      0.00
   22   10    2     -0.63      0.00
   22   10    3     -1.10      0.00
   22   10    4      2.24      0.00
   22   10    5     -1.51      0.00
   22   10    6     -0.17      0.00
   22   10    7      0.87      0.00
   22   10    8      3.48      0.00
   22   10    9     -0.25      0.00
   22   10   10     -1.19      0.00
   22   10   11      0.46      0.00
   22   10   12      1.50      0.00
   22   10   13      2.23      0.00
  -22   12   12      4.41      0.00
  -22   12   11      2.33      0.00
  -22   12   10     -0.38      0.00
  -22   12    9     -3.90      0.00
  -22   12    8      0.11      0.00
  -22   12    7      1.87      0.00
  -22   12    6     -1.64      0.00
  -22   12    5     -0.43      0.00
  -22   12    4      2.05      0.00
  -22   12    3     -1.85      0.00
  -22   12    2     -0.68      0.00
  -22   12    1      0.61      0.00
   22   12    0     -2.04      0.00
   22   12    1     -1.98      0.00
   22   12    2     -1.01      0.00
   22   12    3      1.60      0.00
   22   12    4      2.06      0.00
   22   12    5     -2.25      0.00
   22   12    6      2.01      0.00
   22   12    7      2.04      0.00
   22   12    8      1.81      0.00
   22   12    9     -1.32      0.00
   22   12   10      0.00      0.00
   22   12   11      1.29      0.00
   22   12   12     -0.19      0.00
  -22   14   12      2.10      0.00
  -22   14   11      4.44      0.00
  -22   14   10      0.66      0.00
  -22   14    9     -4.07      0.00
  -22   14    8     -1.47      0.00
  -22   14    7      2.57      0.00
  -22   14    6      0.25      0.00
  -22   14    5     -0.51      0.00
  -22   14    4      2.00      0.00
  -22   14    3     -1.79      0.00
  -22   14    2     -1.01      0.00
  -22   14    1      0.74      0.00
   22   14    0     -3.00      0.00
   22   14    1     -1.55      0.00
   22   14    2      0.22      0.00
   22   14    3      1.08      0.00
   22   14    4      2.44      0.00
   22   14    5      0.21      0.00
   22   14    6      1.19      0.00
   22   14    7     -0.30      0.00
   22   14    8      0.63      0.00
   22   14    9      0.61      0.00
   22   14   10      1.91      0.00
   22   14   11     -0.74      0.00
  -22   16   10      2.67      0.00
  -22   16    9     -1.92      0.00
  -22   16    8     -2.12      0.00
  -22   16    7      1.22      0.00
  -22   16    6      1.04      0.00
  -22   16    5      0.05      0.00
  -22   16    4      1.93      0.00
  -22   16    3     -0.43      0.00
  -22   16    2     -1.40      0.00
  -22   16    1      0.43      0.00
   22   16    0     -1.31      0.00
   22   16    1      1.72      0.00
   22   16    2     -1.29      0.00
   22   16    3     -2.21      0.00
   22   16    4      3.54      0.00
   22   16    5      1.56      0.00
   22   16    6     -0.72      0.00
   22   16    7     -0.93      0.00
   22   16    8      1.02      0.00
   22   16    9      2.16      0.00
   22   16   10      1.48      0.00
  -22   18    9      0.51      0.00
  -22   18    8     -0.23      0.00
  -22   18    7     -0.37      0.00
  -22   18    6     -0.27      0.00
  -22   18    5      0.87      0.00
  -22   18    4      1.81      0.00
  -22   18    3      0.97      0.00
  -22   18    2     -0.63      0.00
  -22   18    1     -1.21      0.00
   22   18    0      1.10      0.00
   22   18    1      2.33      0.00
   22   18    2     -4.13      0.00
   22   18    3     -4.21      0.00
   22   18    4      2.49      0.00
   22   18    5      2.25      0.00
   22   18    6      1.57      0.00
   22   18    7     -0.08      0.00
   22   18    8     -0.65      0.00
   22   18    9      1.32      0.00
  -22   20    7      1.09      0.00
  -22   20    6     -2.73      0.00
  -22   20    5      0.04      0.00
  -22   20    4      2.06      0.00
  -22   20    3      1.04      0.00
  -22   20    2      1.77      0.00
  -22   20    1     -0.83      0.00
   22   20    0     -0.82      0.00
   22   20    1      1.77      0.00
   22   20    2     -2.46      0.00
   22   20    3     -4.79      0.00
   22   20    4     -0.31      0.00
   22   20    5      4.53      0.00
   22   20    6      4.33      0.00
   22   20    7     -1.58      0.00
  -22   22    4      1.92      0.00
  -22   22    3      0.41      0.00
  -22   22    2      2.37      0.00
  -22   22    1      2.75      0.00
   22   22    0     -2.62      0.00
   22   22    1      3.90      0.00
   22   22    2      1.04      0.00
   22   22    3     -5.38      0.00
   22   22    4     -1.96      0.00
  -23    1   14      0.67      0.00
  -23    1   13      0.80      0.00
  -23    1   12     -0.28      0.00
  -23    1   11     -0.79      0.00
  -23    1   10     -3.45      0.00
  -23    1    9      1.05      0.00
  -23    1    8      3.59      0.00
  -23    1    7     -0.59      0.00
  -23    1    6     -4.75      0.00
  -23    1    5      0.02      0.00
  -23    1    4      3.57      0.00
  -23    1    3      0.62      0.00
  -23    1    2     -4.14      0.00
  -23    1    1      0.03      0.00
   23    1    0      2.39      0.00
   23    1    1      1.60      0.00
   23    1    2      1.36      0.00
   23    1    3     -1.13      0.00
   23    1    4     -0.64      0.00
   23    1    5     -0.05      0.00
   23    1    6     -1.55      0.00
   23    1    7     -0.16      0.00
   23    1    8     -0.84      0.00
   23    1    9      1.10      0.00
   23    1   10      2.03      0.00
   23    1   11     -0.70      0.00
   23    1   12     -1.03      0.00
   23    1   13     -1.17      0.00
   23    1   14     -1.58      0.00
  -23    3   14     -0.14      0.00
  -23    3   13      0.29      0.00
  -23    3   12      1.23      0.00
  -23    3   11      0.35      0.00
  -23    3   10     -5.42      0.00
  -23    3    9     -0.55      0.00
  -23    3    8      5.29      0.00
  -23    3    7      0.99      0.00
  -23    3    6     -4.90      0.00
  -23    3    5      0.01      0.00
  -23    3    4      2.26      0.00
  -23    3    3     -0.05      0.00
  -23    3    2     -2.06      0.00
  -23    3    1      0.49      0.00
   23    3    0      2.59      0.00
   23    3    1      1.96      0.00
   23    3    2     -0.40      0.00
   23    3    3     -1.60      0.00
   23    3    4     -1.97      0.00
   23    3    5      0.85      0.00
   23    3    6      0.58      0.00
   23    3    7     -1.08      0.00
   23    3    8     -1.18      0.00
   23    3    9      2.43      0.00
   23    3   10      0.53      0.00
   23    3   11     -1.54      0.00
   23    3   12     -0.19      0.00
   23    3   13     -0.96      0.00
   23    3   14      1.21      0.00
  -23    5   14      0.37      0.00
  -23    5   13     -1.99      0.00
  -23    5   12      1.07      0.00
  -23    5   11      3.09      0.00
  -23    5   10     -3.68      0.00
  -23    5    9     -3.96      0.00
  -23    5    8      2.22      0.00
  -23    5    7      4.50      0.00
  -23    5    6     -2.67      0.00
  -23    5    5     -1.14      0.00
  -23    5    4      1.73      0.00
  -23    5    3     -1.40      0.00
  -23    5    2     -0.82      0.00
  -23    5    1      1.71      0.00
   23    5    0      0.65      0.00
   23    5    1      0.32      0.00
   23    5    2      0.44      0.00
   23    5    3     -0.65      0.00
   23    5    4     -2.90      0.00
   23    5    5      2.38      0.00
   23    5    6      0.51      0.00
   23    5    7     -1.38      0.00
   23    5    8     -0.52      0.00
   23    5    9      1.58      0.00
   23    5   10     -1.15      0.00
   23    5   11     -0.96      0.00
   23    5   12      1.73      0.00
   23    5   13      1.34      0.00
  -23    7   13     -2.84      0.00
  -23    7   12      0.33      0.00
  -23    7   11      3.05      0.00
  -23    7   10     -1.18      0.00
  -23    7    9     -2.17      0.00
  -23    7    8     -2.49      0.00
  -23    7    7      4.14      0.00
  -23    7    6      1.59      0.00
  -23    7    5     -2.28      0.00
  -23    7    4      0.07      0.00
  -23    7    3     -1.00      0.00
  -23    7    2     -0.46      0.00
  -23    7    1      2.98      0.00
   23    7    0     -0.95      0.00
   23    7    1      0.48      0.00
   23    7    2      1.66      0.00
   23    7    3      0.01      0.00
   23    7    4     -2.05      0.00
   23    7    5      1.93      0.00
   23    7    6     -1.67      0.00
   23    7    7      0.23      0.00
   23    7    8      0.14      0.00
   23    7    9     -0.27      0.00
   23    7   10     -1.34      0.00
   23    7   11      0.30      0.00
   23    7   12      2.64      0.00
   23    7   13      1.47      0.00
  -23    9   13     -2.44      0.00
  -23    9   12      0.04      0.00
  -23    9   11      3.19      0.00
  -23    9   10     -1.63      0.00
  -23    9    9      0.55      0.00
  -23    9    8     -2.49      0.00
  -23    9    7      1.07      0.00
  -23    9    6      3.34      0.00
  -23    9    5     -0.67      0.00
  -23    9    4     -1.64      0.00
  -23    9    3     -0.93      0.00
  -23    9    2     -0.76      0.00
  -23    9    1      2.57      0.00
   23    9    0     -0.08      0.00
   23    9    1      0.21      0.00
   23    9    2      1.14      0.00
   23    9    3      0.84      0.00
   23    9    4     -1.33      0.00
   23    9    5      0.35      0.00
   23    9    6     -2.94      0.00
   23    9    7      1.47      0.00
   23    9    8      0.23      0.00
   23    9    9     -0.51      0.00
   23    9   10     -0.48      0.00
   23    9   11      0.39      0.00
   23    9   12      1.71      0.00
   23    9   13      0.31      0.00
  -23   11   12     -2.20      0.00
  -23   11   11      4.84      0.00
  -23   11   10     -0.27      0.00
  -23   11    9     -0.73      0.00
  -23   11    8     -1.05      0.00
  -23   11    7      0.40      0.00
  -23   11    6      1.85      0.00
  -23   11    5      1.00      0.00
  -23   11    4     -0.80      0.00
  -23   11    3     -0.60      0.00
  -23   11    2     -1.43      0.00
  -23   11    1      0.29      0.00
   23   11    0      0.97      0.00
   23   11    1     -0.75      0.00
   23   11    2     -0.03      0.00
   23   11    3     -0.06      0.00
   23   11    4     -1.07      0.00
   23   11    5      0.39      0.00
   23   11    6     -3.07      0.00
   23   11    7      1.79      0.00
   23   11    8      0.72      0.00
   23   11    9      0.38      0.00
   23   11   10     -0.18      0.00
   23   11   11     -0.35      0.00
   23   11   12      1.22      0.00
  -23   13   11      3.42      0.00
  -23   13   10      2.83      0.00
  -23   13    9     -1.61      0.00
  -23   13    8     -1.74      0.00
  -23   13    7      1.35      0.00
  -23   13    6      1.20      0.00
  -23   13    5      0.59      0.00
  -23   13    4     -0.48      0.00
  -23   13    3      0.39      0.00
  -23   13    2     -0.64      0.00
  -23   13    1     -1.30      0.00
   23   13    0      1.69      0.00
   23   13    1     -1.33      0.00
   23   13    2     -3.14      0.00
   23   13    3     -1.45      0.00
   23   13    4      0.75      0.00
   23   13    5      1.06      0.00
   23   13    6     -1.72      0.00
   23   13    7      2.62      0.00
   23   13    8      0.50      0.00
   23   13    9      0.32      0.00
   23   13   10     -0.57      0.00
   23   13   11     -0.15      0.00
  -23   15   10      1.65      0.00
  -23   15    9     -0.52      0.00
  -23   15    8     -1.63      0.00
  -23   15    7      1.17      0.00
  -23   15    6      1.55      0.00
  -23   15    5      0.46      0.00
  -23   15    4     -0.63      0.00
  -23   15    3     -0.37      0.00
  -23   15    2     -0.24      0.00
  -23   15    1     -1.19      0.00
   23   15    0      2.15      0.00
   23   15    1     -3.86      0.00
   23   15    2     -4.33      0.00
   23   15    3      0.90      0.00
   23   15    4      1.24      0.00
   23   15    5      1.23      0.00
   23   15    6      1.32      0.00
   23   15    7      2.37      0.00
   23   15    8     -0.74      0.00
   23   15    9     -0.61      0.00
   23   15   10     -0.92      0.00
  -23   17    9     -0.81      0.00
  -23   17    8     -0.16      0.00
  -23   17    7      0.60      0.00
  -23   17    6      1.05      0.00
  -23   17    5     -0.22      0.00
  -23   17    4      1.17      0.00
  -23   17    3     -0.13      0.00
  -23   17    2     -1.97      0.00
  -23   17    1     -1.51      0.00
   23   17    0      0.58      0.00
   23   17    1     -5.62      0.00
   23   17    2      1.27      0.00
   23   17    3      2.65      0.00
   23   17    4     -1.63      0.00
   23   17    5      2.03      0.00
   23   17    6      2.48      0.00
   23   17    7      1.20      0.00
   23   17    8     -0.63      0.00
   23   17    9     -1.92      0.00
  -23   19    7     -0.32      0.00
  -23   19    6      1.47      0.00
  -23   19    5     -1.42      0.00
  -23   19    4      0.86      0.00
  -23   19    3      2.02      0.00
  -23   19    2     -1.68      0.00
  -23   19    1     -2.39      0.00
   23   19    0     -1.29      0.00
   23   19    1     -2.88      0.00
   23   19    2      5.78      0.00
   23   19    3     -0.55      0.00
   23   19    4     -2.19      0.00
   23   19    5      2.26      0.00
   23   19    6      0.65      0.00
   23   19    7      2.33      0.00
  -23   21    5      0.47      0.00
  -23   21    4     -1.63      0.00
  -23   21    3      0.66      0.00
  -23   21    2      1.00      0.00
  -23   21    1     -1.99      0.00
   23   21    0     -0.76      0.00
   23   21    1     -0.65      0.00
   23   21    2      2.59      0.00
   23   21    3     -2.42      0.00
   23   21    4      2.08      0.00
  -24    0   14      2.69      0.00
  -24    0   12     -2.66      0.00
  -24    0   10      3.64      0.00
  -24    0    8     -1.58      0.00
  -24    0    6      1.99      0.00
  -24    0    4     -0.62      0.00
  -24    0    2      0.74      0.00
   24    0    0     -1.41      0.00
   24    0    2     -0.66      0.00
   24    0    4      0.35      0.00
   24    0    6     -0.84      0.00
   24    0    8      1.07      0.00
   24    0   10     -0.55      0.00
   24    0   12     -4.78      0.00
  -24    2   14      2.14      0.00
  -24    2   13      0.77      0.00
  -24    2   12     -2.41      0.00
  -24    2   11     -0.21      0.00
  -24    2   10      4.48      0.00
  -24    2    9     -0.62      0.00
  -24    2    8     -3.64      0.00
  -24    2    7      1.23      0.00
  -24    2    6      2.99      0.00
  -24    2    5      0.51      0.00
  -24    2    4      0.06      0.00
  -24    2    3     -0.69      0.00
  -24    2    2     -0.27      0.00
  -24    2    1      1.21      0.00
   24    2    0     -1.04      0.00
   24    2    1      1.35      0.00
   24    2    2      0.30      0.00
   24    2    3     -0.14      0.00
   24    2    4      0.11      0.00
   24    2    5      0.38      0.00
   24    2    6     -1.03      0.00
   24    2    7      1.18      0.00
   24    2    8      0.31      0.00
   24    2    9     -1.73      0.00
   24    2   10      0.28      0.00
   24    2   11      0.45      0.00
   24    2   12     -4.70      0.00
   24    2   13      0.60      0.00
  -24    4   13      1.48      0.00
  -24    4   12     -1.13      0.00
  -24    4   11     -1.47      0.00
  -24    4   10      4.03      0.00
  -24    4    9      2.54      0.00
  -24    4    8     -4.26      0.00
  -24    4    7     -1.80      0.00
  -24    4    6      3.03      0.00
  -24    4    5      1.46      0.00
  -24    4    4      0.43      0.00
  -24    4    3      0.86      0.00
  -24    4    2     -0.33      0.00
  -24    4    1     -0.15      0.00
   24    4    0     -0.17      0.00
   24    4    1      2.38      0.00
   24    4    2      0.31      0.00
   24    4    3     -0.73      0.00
   24    4    4      0.49      0.00
   24    4    5     -0.44      0.00
   24    4    6     -0.87      0.00
   24    4    7      1.71      0.00
   24    4    8     -1.20      0.00
   24    4    9     -0.50      0.00
   24    4   10      1.23      0.00
   24    4   11     -1.27      0.00
   24    4   12     -4.03      0.00
   24    4   13      0.77      0.00
  -24    6   13      1.21      0.00
  -24    6   12      0.27      0.00
  -24    6   11     -1.60      0.00
  -24    6   10      1.57      0.00
  -24    6    9      3.49      0.00
  -24    6    8     -0.34      0.00
  -24    6    7     -2.92      0.00
  -24    6    6      0.09      0.00
  -24    6    5      1.65      0.00
  -24    6    4      0.44      0.00
  -24    6    3      1.46      0.00
  -24    6    2      1.33      0.00
  -24    6    1     -1.63      0.00
   24    6    0      0.84      0.00
   24    6    1      1.08      0.00
   24    6    2     -1.34      0.00
   24    6    3      1.02      0.00
   24    6    4      0.48      0.00
   24    6    5     -2.19      0.00
   24    6    6      1.02      0.00
   24    6    7      1.01      0.00
   24    6    8     -2.04      0.00
   24    6    9      2.04      0.00
   24    6   10      0.47      0.00
   24    6   11     -3.17      0.00
   24    6   12     -2.94      0.00
   24    6   13      0.39      0.00
  -24    8   13      0.93      0.00
  -24    8   12     -0.58      0.00
  -24    8   11     -1.49      0.00
  -24    8   10      1.49      0.00
  -24    8    9      1.21      0.00
  -24    8    8      1.41      0.00
  -24    8    7      0.28      0.00
  -24    8    6     -1.55      0.00
  -24    8    5     -0.61      0.00
  -24    8    4      0.77      0.00
  -24    8    3      1.70      0.00
  -24    8    2      2.10      0.00
  -24    8    1     -2.19      0.00
   24    8    0      0.99      0.00
   24    8    1     -1.14      0.00
   24    8    2     -0.84      0.00
   24    8    3      3.07      0.00
   24    8    4     -1.43      0.00
   24    8    5     -1.59      0.00
   24    8    6      3.33      0.00
   24    8    7     -0.92      0.00
   24    8    8     -2.11      0.00
   24    8    9      2.07      0.00
   24    8   10     -0.68      0.00
   24    8   11     -2.62      0.00
   24    8   12     -2.38      0.00
  -24   10   12     -1.98      0.00
  -24   10   11     -4.35      0.00
  -24   10   10      1.98      0.00
  -24   10    9      2.10      0.00
  -24   10    8      0.22      0.00
  -24   10    7      1.10      0.00
  -24   10    6      0.23      0.00
  -24   10    5     -2.30      0.00
  -24   10    4     -0.85      0.00
  -24   10    3      2.05      0.00
  -24   10    2      3.01      0.00
  -24   10    1     -1.27      0.00
   24   10    0      0.39      0.00
   24   10    1     -0.80      0.00
   24   10    2      1.22      0.00
   24   10    3      2.66      0.00
   24   10    4     -2.63      0.00
   24   10    5      0.85      0.00
   24   10    6      3.15      0.00
   24   10    7     -2.98      0.00
   24   10    8     -2.51      0.00
   24   10    9      0.01      0.00
   24   10   10     -0.08      0.00
   24   10   11     -0.58      0.00
   24   10   12     -2.25      0.00
  -24   12   11     -6.70      0.00
  -24   12   10     -1.05      0.00
  -24   12    9      4.20      0.00
  -24   12    8      1.12      0.00
  -24   12    7     -1.73      0.00
  -24   12    6      1.19      0.00
  -24   12    5     -0.13      0.00
  -24   12    4     -2.13      0.00
  -24   12    3     -0.18      0.00
  -24   12    2      2.50      0.00
  -24   12    1      1.15      0.00
   24   12    0      1.27      0.00
   24   12    1      0.84      0.00
   24   12    2      2.71      0.00
   24   12    3      2.03      0.00
   24   12    4     -3.05      0.00
   24   12    5      1.33      0.00
   24   12    6      0.97      0.00
   24   12    7     -4.26      0.00
   24   12    8     -2.59      0.00
   24   12    9     -0.76      0.00
   24   12   10      1.13      0.00
   24   12   11      0.47      0.00
  -24   14   10     -2.61      0.00
  -24   14    9      2.44      0.00
  -24   14    8      1.69      0.00
  -24   14    7     -3.01      0.00
  -24   14    6     -0.21      0.00
  -24   14    5      1.94      0.00
  -24   14    4     -0.20      0.00
  -24   14    3     -1.56      0.00
  -24   14    2     -0.20      0.00
  -24   14    1      1.56      0.00
   24   14    0      2.37      0.00
   24   14    1      1.50      0.00
   24   14    2      3.80      0.00
   24   14    3      1.11      0.00
   24   14    4     -3.40      0.00
   24   14    5      0.23      0.00
   24   14    6     -2.00      0.00
   24   14    7     -4.03      0.00
   24   14    8     -0.69      0.00
   24   14    9     -0.06      0.00
   24   14   10      0.84      0.00
  -24   16    9      0.97      0.00
  -24   16    8     -1.03      0.00
  -24   16    7     -2.22      0.00
  -24   16    6     -0.53      0.00
  -24   16    5      0.93      0.00
  -24   16    4      0.32      0.00
  -24   16    3     -0.44      0.00
  -24   16    2      0.15      0.00
  -24   16    1      1.06      0.00
   24   16    0      1.27      0.00
   24   16    1      2.20      0.00
   24   16    2      1.86      0.00
   24   16    3      0.39      0.00
   24   16    4     -0.24      0.00
   24   16    5     -2.19      0.00
   24   16    6     -5.20      0.00
   24   16    7     -1.74      0.00
   24   16    8      1.60      0.00
   24   16    9      0.50      0.00
  -24   18    7     -1.61      0.00
  -24   18    6      0.52      0.00
  -24   18    5     -0.04      0.00
  -24   18    4     -1.38      0.00
  -24   18    3     -1.40      0.00
  -24   18    2      1.41      0.00
  -24   18    1      3.03      0.00
   24   18    0      1.35      0.00
   24   18    1      1.37      0.00
   24   18    2     -2.96      0.00
   24   18    3      4.59      0.00
   24   18    4      3.66      0.00
   24   18    5     -6.68      0.00
   24   18    6     -5.74      0.00
   24   18    7      0.10      0.00
  -24   20    5     -0.40      0.00
  -24   20    4     -1.00      0.00
  -24   20    3     -1.84      0.00
  -24   20    2     -1.51      0.00
  -24   20    1      2.62      0.00
   24   20    0      3.34      0.00
   24   20    1     -2.51      0.00
   24   20    2     -3.71      0.00
   24   20    3     10.22      0.00
   24   20    4      1.26      0.00
   24   20    5     -8.74      0.00
  -25    1   13     -1.18      0.00
  -25    1   12      3.24      0.00
  -25    1   11      0.93      0.00
  -25    1   10     -3.26      0.00
  -25    1    9      0.21      0.00
  -25    1    8      2.28      0.00
  -25    1    7     -1.93      0.00
  -25    1    6      1.52      0.00
  -25    1    5      0.46      0.00
  -25    1    4     -1.25      0.00
  -25    1    3      0.88      0.00
  -25    1    2      0.67      0.00
  -25    1    1     -1.33      0.00
   25    1    0      0.12      0.00
   25    1    1     -1.44      0.00
   25    1    2     -0.05      0.00
   25    1    3      0.19      0.00
   25    1    4     -2.59      0.00
   25    1    5     -0.33      0.00
   25    1    6      5.04      0.00
   25    1    7     -0.24      0.00
   25    1    8     -1.75      0.00
   25    1    9      0.79      0.00
   25    1   10      1.03      0.00
   25    1   11     -0.73      0.00
   25    1   12      3.62      0.00
   25    1   13      0.68      0.00
  -25    3   13     -1.96      0.00
  -25    3   12      0.39      0.00
  -25    3   11      1.41      0.00
  -25    3   10     -1.33      0.00
  -25    3    9     -0.40      0.00
  -25    3    8      3.68      0.00
  -25    3    7     -2.95      0.00
  -25    3    6     -0.39      0.00
  -25    3    5      0.77      0.00
  -25    3    4     -2.17      0.00
  -25    3    3      1.14      0.00
  -25    3    2      1.88      0.00
  -25    3    1     -2.32      0.00
   25    3    0     -0.39      0.00
   25    3    1     -3.61      0.00
   25    3    2     -1.58      0.00
   25    3    3      1.52      0.00
   25    3    4      0.56      0.00
   25    3    5     -1.84      0.00
   25    3    6      2.74      0.00
   25    3    7      0.09      0.00
   25    3    8      0.78      0.00
   25    3    9      0.76      0.00
   25    3   10     -0.77      0.00
   25    3   11     -0.76      0.00
   25    3   12      3.22      0.00
   25    3   13      1.03      0.00
  -25    5   13      0.24      0.00
  -25    5   12     -2.48      0.00
  -25    5   11     -0.79      0.00
  -25    5   10      1.57      0.00
  -25    5    9     -1.02      0.00
  -25    5    8      2.47      0.00
  -25    5    7     -1.40      0.00
  -25    5    6     -0.66      0.00
  -25    5    5      0.81      0.00
  -25    5    4     -2.39      0.00
  -25    5    3     -0.20      0.00
  -25    5    2      1.47      0.00
  -25    5    1     -1.38      0.00
   25    5    0     -0.62      0.00
   25    5    1     -3.57      0.00
   25    5    2     -1.42      0.00
   25    5    3      1.80      0.00
   25    5    4      1.77      0.00
   25    5    5     -2.12      0.00
   25    5    6      1.60      0.00
   25    5    7      0.25      0.00
   25    5    8      2.13      0.00
   25    5    9     -1.46      0.00
   25    5   10     -1.41      0.00
   25    5   11      1.50      0.00
   25    5   12      2.31      0.00
  -25    7   12     -2.12      0.00
  -25    7   11     -3.53      0.00
  -25    7   10      2.26      0.00
  -25    7    9      0.08      0.00
  -25    7    8      0.12      0.00
  -25    7    7     -1.58      0.00
  -25    7    6      0.26      0.00
  -25    7    5      1.79      0.00
  -25    7    4     -1.46      0.00
  -25    7    3     -1.49      0.00
  -25    7    2     -0.13      0.00
  -25    7    1      0.22      0.00
   25    7    0     -0.60      0.00
   25    7    1     -0.50      0.00
   25    7    2     -0.42      0.00
   25    7    3     -1.60      0.00
   25    7    4      2.04      0.00
   25    7    5      0.11      0.00
   25    7    6      0.75      0.00
   25    7    7     -0.77      0.00
   25    7    8      1.43      0.00
   25    7    9     -2.38      0.00
   25    7   10      0.71      0.00
   25    7   11      3.27      0.00
   25    7   12      1.12      0.00
  -25    9   12      1.10      0.00
  -25    9   11     -3.28      0.00
  -25    9   10      0.01      0.00
  -25    9    9      0.56      0.00
  -25    9    8     -0.23      0.00
  -25    9    7     -2.34      0.00
  -25    9    6     -0.07      0.00
  -25    9    5      2.41      0.00
  -25    9    4      0.44      0.00
  -25    9    3     -1.90      0.00
  -25    9    2     -2.14      0.00
  -25    9    1      1.58      0.00
   25    9    0      0.25      0.00
   25    9    1      2.84      0.00
   25    9    2     -1.12      0.00
   25    9    3     -4.70      0.00
   25    9    4      3.30      0.00
   25    9    5      0.74      0.00
   25    9    6     -0.10      0.00
   25    9    7     -0.90      0.00
   25    9    8      0.91      0.00
   25    9    9     -0.17      0.00
   25    9   10      2.36      0.00
   25    9   11      1.83      0.00
  -25   11   11     -0.65      0.00
  -25   11   10     -1.63      0.00
  -25   11    9      0.01      0.00
  -25   11    8      0.00      0.00
  -25   11    7     -1.62      0.00
  -25   11    6     -0.85      0.00
  -25   11    5      0.58      0.00
  -25   11    4      1.95      0.00
  -25   11    3      0.28      0.00
  -25   11    2     -3.07      0.00
  -25   11    1      0.54      0.00
   25   11    0      0.00      0.00
   25   11    1      3.30      0.00
   25   11    2     -1.22      0.00
   25   11    3     -4.51      0.00
   25   11    4      3.22      0.00
   25   11    5     -0.50      0.00
   25   11    6      0.85      0.00
   25   11    7      0.03      0.00
   25   11    8      1.53      0.00
   25   11    9      1.99      0.00
   25   11   10      0.54      0.00
   25   11   11     -0.70      0.00
  -25   13   10     -2.12      0.00
  -25   13    9      1.38      0.00
  -25   13    8      1.10      0.00
  -25   13    7     -1.14      0.00
  -25   13    6     -1.04      0.00
  -25   13    5     -2.04      0.00
  -25   13    4      0.55      0.00
  -25   13    3      3.21      0.00
  -25   13    2     -0.32      0.00
  -25   13    1     -0.73      0.00
   25   13    0     -2.81      0.00
   25   13    1      3.41      0.00
   25   13    2      0.41      0.00
   25   13    3     -3.40      0.00
   25   13    4      1.92      0.00
   25   13    5     -1.02      0.00
   25   13    6      2.13      0.00
   25   13    7      0.63      0.00
   25   13    8      1.95      0.00
   25   13    9      1.29      0.00
   25   13   10     -1.58      0.00
  -25   15    9      2.15      0.00
  -25   15    8      4.71      0.00
  -25   15    7     -0.57      0.00
  -25   15    6     -1.46      0.00
  -25   15    5     -1.89      0.00
  -25   15    4     -2.20      0.00
  -25   15    3      2.16      0.00
  -25   15    2      2.66      0.00
  -25   15    1      0.42      0.00
   25   15    0     -3.41      0.00
   25   15    1      4.04      0.00
   25   15    2      0.63      0.00
   25   15    3     -2.26      0.00
   25   15    4      0.36      0.00
   25   15    5     -1.13      0.00
   25   15    6      3.00      0.00
   25   15    7      0.66      0.00
   25   15    8      0.82      0.00
  -25   17    7      1.71      0.00
  -25   17    6     -1.93      0.00
  -25   17    5      0.56      0.00
  -25   17    4     -1.98      0.00
  -25   17    3     -0.99      0.00
  -25   17    2      2.02      0.00
  -25   17    1      0.35      0.00
   25   17    0     -1.57      0.00
   25   17    1      2.36      0.00
   25   17    2      0.56      0.00
   25   17    3     -1.94      0.00
   25   17    4     -2.24      0.00
   25   17    5      0.44      0.00
   25   17    6      4.04      0.00
   25   17    7     -0.15      0.00
  -25   19    5      1.72      0.00
  -25   19    4      0.69      0.00
  -25   19    3     -1.76      0.00
  -25   19    2      0.97      0.00
  -25   19    1     -0.44      0.00
   25   19    0     -2.30      0.00
   25   19    1      2.16      0.00
   25   19    2      1.67      0.00
   25   19    3     -4.94      0.00
   25   19    4     -2.94      0.00
  -26    0   12     -0.30      0.00
  -26    0   10      3.19      0.00
  -26    0    8     -4.78      0.00
  -26    0    6     -1.08      0.00
  -26    0    4     -1.66      0.00
  -26    0    2      2.77      0.00
   26    0    0     -0.82      0.00
   26    0    2     -0.52      0.00
   26    0    4      2.93      0.00
   26    0    6     -3.11      0.00
   26    0    8      0.07      0.00
   26    0   10     -1.37      0.00
   26    0   12      0.68      0.00
  -26    2   12      0.63      0.00
  -26    2   11     -1.72      0.00
  -26    2   10      1.61      0.00
  -26    2    9      0.96      0.00
  -26    2    8     -4.43      0.00
  -26    2    7      2.30      0.00
  -26    2    6     -0.61      0.00
  -26    2    5     -1.53      0.00
  -26    2    4     -0.49      0.00
  -26    2    3     -1.41      0.00
  -26    2    2      1.32      0.00
  -26    2    1      1.18      0.00
   26    2    0     -0.73      0.00
   26    2    1     -0.39      0.00
   26    2    2      0.65      0.00
   26    2    3      1.49      0.00
   26    2    4      0.22      0.00
   26    2    5     -0.59      0.00
   26    2    6     -0.90      0.00
   26    2    7     -0.48      0.00
   26    2    8     -1.37      0.00
   26    2    9      0.18      0.00
   26    2   10     -0.24      0.00
   26    2   11      1.03      0.00
   26    2   12      0.59      0.00
  -26    4   12      2.18      0.00
  -26    4   11     -0.67      0.00
  -26    4   10     -1.29      0.00
  -26    4    9      0.66      0.00
  -26    4    8     -3.51      0.00
  -26    4    7      2.81      0.00
  -26    4    6      0.43      0.00
  -26    4    5     -2.73      0.00
  -26    4    4      1.21      0.00
  -26    4    3     -0.67      0.00
  -26    4    2     -1.56      0.00
  -26    4    1      1.69      0.00
   26    4    0     -0.03      0.00
   26    4    1      0.45      0.00
   26    4    2      1.71      0.00
   26    4    3     -0.32      0.00
   26    4    4     -2.60      0.00
   26    4    5      2.45      0.00
   26    4    6      0.19      0.00
   26    4    7     -2.48      0.00
   26    4    8     -2.05      0.00
   26    4    9      1.36      0.00
   26    4   10      1.59      0.00
   26    4   11      1.30      0.00
   26    4   12     -0.19      0.00
  -26    6   12      2.26      0.00
  -26    6   11      2.06      0.00
  -26    6   10     -2.75      0.00
  -26    6    9      0.02      0.00
  -26    6    8     -1.85      0.00
  -26    6    7      1.17      0.00
  -26    6    6      0.62      0.00
  -26    6    5     -2.45      0.00
  -26    6    4      1.04      0.00
  -26    6    3      1.42      0.00
  -26    6    2     -2.56      0.00
  -26    6    1      0.25      0.00
   26    6    0      0.71      0.00
   26    6    1      0.13      0.00
   26    6    2      0.47      0.00
   26    6    3     -1.19      0.00
   26    6    4     -1.21      0.00
   26    6    5      2.79      0.00
   26    6    6     -2.56      0.00
   26    6    7     -0.83      0.00
   26    6    8      0.08      0.00
   26    6    9      1.63      0.00
   26    6   10      1.19      0.00
   26    6   11     -0.20      0.00
  -26    8   11      3.91      0.00
  -26    8   10     -2.00      0.00
  -26    8    9     -0.42      0.00
  -26    8    8      0.16      0.00
  -26    8    7     -0.22      0.00
  -26    8    6     -0.91      0.00
  -26    8    5     -0.83      0.00
  -26    8    4     -0.07      0.00
  -26    8    3      1.87      0.00
  -26    8    2     -0.63      0.00
  -26    8    1     -1.80      0.00
   26    8    0     -0.54      0.00
   26    8    1     -2.52      0.00
   26    8    2     -0.44      0.00
   26    8    3      1.44      0.00
   26    8    4     -0.27      0.00
   26    8    5     -0.72      0.00
   26    8    6     -2.95      0.00
   26    8    7      3.27      0.00
   26    8    8      1.01      0.00
   26    8    9      0.24      0.00
   26    8   10     -1.31      0.00
   26    8   11     -1.37      0.00
  -26   10   11      4.45      0.00
  -26   10   10      0.31      0.00
  -26   10    9     -1.44      0.00
  -26   10    8      0.70      0.00
  -26   10    7      0.88      0.00
  -26   10    6     -2.24      0.00
  -26   10    5      0.14      0.00
  -26   10    4     -0.23      0.00
  -26   10    3      0.10      0.00
  -26   10    2      1.15      0.00
  -26   10    1     -1.71      0.00
   26   10    0     -2.43      0.00
   26   10    1     -4.34      0.00
   26   10    2     -0.31      0.00
   26   10    3      3.30      0.00
   26   10    4     -0.92      0.00
   26   10    5     -1.90      0.00
   26   10    6     -1.30      0.00
   26   10    7      3.99      0.00
   26   10    8      0.21      0.00
   26   10    9     -0.71      0.00
   26   10   10     -2.14      0.00
  -26   12   10      3.10      0.00
  -26   12    9     -3.08      0.00
  -26   12    8     -1.17      0.00
  -26   12    7      3.26      0.00
  -26   12    6     -1.19      0.00
  -26   12    5      0.14      0.00
  -26   12    4      0.15      0.00
  -26   12    3     -1.65      0.00
  -26   12    2      0.44      0.00
  -26   12    1     -0.68      0.00
   26   12    0     -1.83      0.00
   26   12    1     -4.91      0.00
   26   12    2     -1.76      0.00
   26   12    3      3.21      0.00
   26   12    4      0.13      0.00
   26   12    5     -0.86      0.00
   26   12    6     -1.22      0.00
   26   12    7      3.01      0.00
   26   12    8     -0.15      0.00
   26   12    9     -0.07      0.00
  -26   14    8     -4.18      0.00
  -26   14    7      3.96      0.00
  -26   14    6      0.92      0.00
  -26   14    5      0.11      0.00
  -26   14    4      0.95      0.00
  -26   14    3     -1.63      0.00
  -26   14    2     -1.40      0.00
  -26   14    1     -0.90      0.00
   26   14    0     -0.86      0.00
   26   14    1     -5.56      0.00
   26   14    2     -2.17      0.00
   26   14    3      2.72      0.00
   26   14    4      0.78      0.00
   26   14    5      0.31      0.00
   26   14    6     -0.22      0.00
   26   14    7      2.61      0.00
   26   14    8     -0.75      0.00
  -26   16    7      1.85      0.00
  -26   16    6      1.60      0.00
  -26   16    5     -0.79      0.00
  -26   16    4      2.00      0.00
  -26   16    3      0.88      0.00
  -26   16    2     -2.65      0.00
  -26   16    1     -1.04      0.00
   26   16    0     -1.07      0.00
   26   16    1     -2.94      0.00
   26   16    2      0.05      0.00
   26   16    3     -0.68      0.00
   26   16    4     -0.25      0.00
   26   16    5      3.35      0.00
   26   16    6      1.85      0.00
   26   16    7      0.84      0.00
  -26   18    4      0.76      0.00
  -26   18    3      4.03      0.00
  -26   18    2     -2.07      0.00
  -26   18    1     -1.09      0.00
   26   18    0      0.62      0.00
   26   18    1      1.03      0.00
   26   18    2     -0.34      0.00
   26   18    3     -4.80      0.00
   26   18    4      0.71      0.00
  -27    1   12     -1.25      0.00
  -27    1   11      0.31      0.00
  -27    1   10     -3.06      0.00
  -27    1    9     -0.49      0.00
  -27    1    8      4.44      0.00
  -27    1    7      0.13      0.00
  -27    1    6     -1.14      0.00
  -27    1    5      0.18      0.00
  -27    1    4      3.04      0.00
  -27    1    3      0.62      0.00
  -27    1    2     -3.92      0.00
  -27    1    1      0.20      0.00
   27    1    0      1.76      0.00
   27    1    1      1.95      0.00
   27    1    2      0.81      0.00
   27    1    3     -1.70      0.00
   27    1    4      0.86      0.00
   27    1    5      1.62      0.00
   27    1    6     -2.16      0.00
   27    1    7     -0.65      0.00
   27    1    8      0.15      0.00
   27    1    9     -0.16      0.00
   27    1   10      0.55      0.00
   27    1   11      0.29      0.00
  -27    3   11      0.61      0.00
  -27    3   10     -2.51      0.00
  -27    3    9     -0.47      0.00
  -27    3    8      3.32      0.00
  -27    3    7     -0.58      0.00
  -27    3    6     -0.27      0.00
  -27    3    5      1.94      0.00
  -27    3    4      0.74      0.00
  -27    3    3     -0.02      0.00
  -27    3    2     -1.00      0.00
  -27    3    1      0.12      0.00
   27    3    0      1.65      0.00
   27    3    1      3.41      0.00
   27    3    2      0.00      0.00
   27    3    3     -2.14      0.00
   27    3    4      2.21      0.00
   27    3    5      0.80      0.00
   27    3    6     -3.90      0.00
   27    3    7      1.46      0.00
   27    3    8      1.26      0.00
   27    3    9     -1.61      0.00
   27    3   10     -0.36      0.00
   27    3   11      0.04      0.00
  -27    5   11      0.87      0.00
  -27    5   10     -2.38      0.00
  -27    5    9     -0.16      0.00
  -27    5    8      2.88      0.00
  -27    5    7     -0.44      0.00
  -27    5    6     -0.72      0.00
  -27    5    5      3.09      0.00
  -27    5    4      0.42      0.00
  -27    5    3     -2.65      0.00
  -27    5    2      1.74      0.00
  -27    5    1      0.87      0.00
   27    5    0      0.12      0.00
   27    5    1      2.46      0.00
   27    5    2      0.99      0.00
   27    5    3      0.45      0.00
   27    5    4      0.16      0.00
   27    5    5     -2.55      0.00
   27    5    6     -0.41      0.00
   27    5    7      3.88      0.00
   27    5    8     -1.36      0.00
   27    5    9     -2.37      0.00
   27    5   10     -0.47      0.00
   27    5   11     -0.82      0.00
  -27    7   11      1.27      0.00
  -27    7   10     -1.85      0.00
  -27    7    9     -0.78      0.00
  -27    7    8      1.50      0.00
  -27    7    7      1.61      0.00
  -27    7    6      0.60      0.00
  -27    7    5      0.78      0.00
  -27    7    4      1.10      0.00
  -27    7    3     -2.94      0.00
  -27    7    2      1.28      0.00
  -27    7    1      2.05      0.00
   27    7    0      0.17      0.00
   27    7    1      2.25      0.00
   27    7    2      2.24      0.00
   27    7    3      1.23      0.00
   27    7    4     -2.69      0.00
   27    7    5     -1.04      0.00
   27    7    6      2.94      0.00
   27    7    7      0.34      0.00
   27    7    8     -3.07      0.00
   27    7    9     -0.52      0.00
   27    7   10     -0.05      0.00
  -27    9   10     -0.57      0.00
  -27    9    9     -0.68      0.00
  -27    9    8     -0.38      0.00
  -27    9    7      0.99      0.00
  -27    9    6      3.54      0.00
  -27    9    5     -0.35      0.00
  -27    9    4     -0.28      0.00
  -27    9    3     -0.48      0.00
  -27    9    2      0.50      0.00
  -27    9    1      0.59      0.00
   27    9    0      2.15      0.00
   27    9    1      1.78      0.00
   27    9    2      1.59      0.00
   27    9    3      0.52      0.00
   27    9    4     -1.94      0.00
   27    9    5      1.54      0.00
   27    9    6      0.31      0.00
   27    9    7     -2.28      0.00
   27    9    8     -0.50      0.00
   27    9    9     -0.40      0.00
   27    9   10      0.05      0.00
  -27   11    9      0.08      0.00
  -27   11    8      0.19      0.00
  -27   11    7     -1.78      0.00
  -27   11    6      2.67      0.00
  -27   11    5      1.60      0.00
  -27   11    4     -1.08      0.00
  -27   11    3      0.30      0.00
  -27   11    2      1.68      0.00
  -27   11    1     -0.93      0.00
   27   11    0      2.81      0.00
   27   11    1      1.06      0.00
   27   11    2      1.02      0.00
   27   11    3      0.42      0.00
   27   11    4     -1.14      0.00
   27   11    5      0.70      0.00
   27   11    6     -1.32      0.00
   27   11    7     -0.30      0.00
   27   11    8     -0.27      0.00
   27   11    9     -3.02      0.00
  -27   13    8      1.14      0.00
  -27   13    7     -2.07      0.00
  -27   13    6     -0.09      0.00
  -27   13    5      1.92      0.00
  -27   13    4      0.36      0.00
  -27   13    3     -0.38      0.00
  -27   13    2      1.45      0.00
  -27   13    1     -0.18      0.00
   27   13    0      3.72      0.00
   27   13    1      1.55      0.00
   27   13    2      0.35      0.00
   27   13    3     -0.42      0.00
   27   13    4     -1.81      0.00
   27   13    5      0.47      0.00
   27   13    6      0.07      0.00
   27   13    7     -0.45      0.00
   27   13    8     -2.78      0.00
  -27   15    6      0.25      0.00
  -27   15    5      0.79      0.00
  -27   15    4      0.46      0.00
  -27   15    3     -0.09      0.00
  -27   15    2      0.51      0.00
  -27   15    1     -0.71      0.00
   27   15    0      4.97      0.00
   27   15    1     -0.06      0.00
   27   15    2     -1.76      0.00
   27   15    3      0.25      0.00
   27   15    4     -0.15      0.00
   27   15    5      0.15      0.00
   27   15    6     -1.59      0.00
  -27   17    4     -0.49      0.00
  -27   17    3     -1.03      0.00
  -27   17    2      1.59      0.00
  -27   17    1     -1.40      0.00
   27   17    0      2.01      0.00
   27   17    1     -3.69      0.00
   27   17    2     -0.89      0.00
   27   17    3      4.68      0.00
   27   17    4      0.94      0.00
  -28    0   10      1.87      0.00
  -28    0    8      1.45      0.00
  -28    0    6      0.40      0.00
  -28    0    4     -2.31      0.00
  -28    0    2      3.75      0.00
   28    0    0     -2.53      0.00
   28    0    2     -1.31      0.00
   28    0    4     -0.40      0.00
   28    0    6     -0.50      0.00
   28    0    8      5.78      0.00
   28    0   10     -2.34      0.00
  -28    2   11      0.74      0.00
  -28    2   10      2.47      0.00
  -28    2    9     -1.47      0.00
  -28    2    8      1.36      0.00
  -28    2    7      0.17      0.00
  -28    2    6     -0.67      0.00
  -28    2    5     -0.15      0.00
  -28    2    4     -0.55      0.00
  -28    2    3     -0.57      0.00
  -28    2    2      2.07      0.00
  -28    2    1      0.55      0.00
   28    2    0     -2.65      0.00
   28    2    1     -1.52      0.00
   28    2    2     -0.66      0.00
   28    2    3      0.26      0.00
   28    2    4     -0.53      0.00
   28    2    5     -1.02      0.00
   28    2    6      1.21      0.00
   28    2    7      1.76      0.00
   28    2    8      3.59      0.00
   28    2    9     -1.53      0.00
   28    2   10     -1.65      0.00
  -28    4   10      3.95      0.00
  -28    4    9     -2.36      0.00
  -28    4    8      0.08      0.00
  -28    4    7      1.48      0.00
  -28    4    6     -0.61      0.00
  -28    4    5     -2.77      0.00
  -28    4    4      0.14      0.00
  -28    4    3      2.54      0.00
  -28    4    2      0.05      0.00
  -28    4    1     -0.48      0.00
   28    4    0     -1.94      0.00
   28    4    1     -1.15      0.00
   28    4    2     -0.64      0.00
   28    4    3     -1.20      0.00
   28    4    4      0.95      0.00
   28    4    5      1.33      0.00
   28    4    6      1.31      0.00
   28    4    7     -1.97      0.00
   28    4    8      2.40      0.00
   28    4    9      0.18      0.00
   28    4   10     -1.40      0.00
  -28    6   10      4.87      0.00
  -28    6    9     -1.83      0.00
  -28    6    8     -1.34      0.00
  -28    6    7      1.04      0.00
  -28    6    6      0.21      0.00
  -28    6    5     -2.37      0.00
  -28    6    4     -1.78      0.00
  -28    6    3      3.76      0.00
  -28    6    2      0.99      0.00
  -28    6    1     -1.81      0.00
   28    6    0     -1.28      0.00
   28    6    1     -0.74      0.00
   28    6    2     -1.66      0.00
   28    6    3     -2.00      0.00
   28    6    4      3.69      0.00
   28    6    5      1.85      0.00
   28    6    6     -1.60      0.00
   28    6    7     -3.41      0.00
   28    6    8      3.85      0.00
   28    6    9      0.26      0.00
   28    6   10     -1.41      0.00
  -28    8    9     -0.73      0.00
  -28    8    8     -0.79      0.00
  -28    8    7      0.81      0.00
  -28    8    6     -1.87      0.00
  -28    8    5     -0.78      0.00
  -28    8    4     -0.72      0.00
  -28    8    3      0.72      0.00
  -28    8    2      1.62      0.00
  -28    8    1      0.22      0.00
   28    8    0     -1.60      0.00
   28    8    1      0.27      0.00
   28    8    2     -1.57      0.00
   28    8    3     -1.57      0.00
   28    8    4      3.62      0.00
   28    8    5     -0.31      0.00
   28    8    6     -0.34      0.00
   28    8    7     -1.36      0.00
   28    8    8      1.42      0.00
   28    8    9     -0.78      0.00
  -28   10    9      0.08      0.00
  -28   10    8     -0.14      0.00
  -28   10    7      2.38      0.00
  -28   10    6     -2.07      0.00
  -28   10    5     -2.78      0.00
  -28   10    4      1.14      0.00
  -28   10    3     -0.75      0.00
  -28   10    2     -0.95      0.00
  -28   10    1      2.99      0.00
   28   10    0     -0.44      0.00
   28   10    1      1.71      0.00
   28   10    2     -0.84      0.00
   28   10    3     -1.35      0.00
   28   10    4      1.83      0.00
   28   10    5     -0.05      0.00
   28   10    6      2.62      0.00
   28   10    7     -3.02      0.00
   28   10    8     -1.13      0.00
  -28   12    8      0.06      0.00
  -28   12    7      1.18      0.00
  -28   12    6      0.96      0.00
  -28   12    5     -2.92      0.00
  -28   12    4     -0.46      0.00
  -28   12    3      0.11      0.00
  -28   12    2     -2.19      0.00
  -28   12    1      1.82      0.00
   28   12    0     -0.10      0.00
   28   12    1      1.03      0.00
   28   12    2      0.60      0.00
   28   12    3     -0.40      0.00
   28   12    4      1.67      0.00
   28   12    5      0.57      0.00
   28   12    6      0.22      0.00
   28   12    7     -4.51      0.00
  -28   14    6      0.28      0.00
  -28   14    5      0.22      0.00
  -28   14    4     -1.02      0.00
  -28   14    3     -0.83      0.00
  -28   14    2     -0.36      0.00
  -28   14    1      0.87      0.00
   28   14    0     -2.81      0.00
   28   14    1      1.01      0.00
   28   14    2      2.96      0.00
   28   14    3      0.77      0.00
   28   14    4      1.51      0.00
   28   14    5     -1.93      0.00
   28   14    6     -2.54      0.00
  -28   16    3     -1.89      0.00
  -28   16    2     -0.23      0.00
  -28   16    1      2.26      0.00
   28   16    0     -2.66      0.00
   28   16    1      3.02      0.00
   28   16    2      2.11      0.00
   28   16    3      0.27      0.00
  -29    1   10      0.94      0.00
  -29    1    9      1.33      0.00
  -29    1    8     -6.33      0.00
  -29    1    7     -0.96      0.00
  -29    1    6      1.50      0.00
  -29    1    5     -0.22      0.00
  -29    1    4      0.63      0.00
  -29    1    3      1.22      0.00
  -29    1    2     -2.67      0.00
  -29    1    1     -1.42      0.00
   29    1    0      2.39      0.00
   29    1    1     -0.74      0.00
   29    1    2      0.18      0.00
   29    1    3      0.65      0.00
   29    1    4     -1.79      0.00
   29    1    5     -0.22      0.00
   29    1    6      2.77      0.00
   29    1    7     -1.37      0.00
   29    1    8     -5.33      0.00
   29    1    9      2.13      0.00
  -29    3   10      0.61      0.00
  -29    3    9      3.18      0.00
  -29    3    8     -4.60      0.00
  -29    3    7     -2.86      0.00
  -29    3    6      1.38      0.00
  -29    3    5      1.35      0.00
  -29    3    4     -1.04      0.00
  -29    3    3      0.20      0.00
  -29    3    2     -0.34      0.00
  -29    3    1     -1.38      0.00
   29    3    0      1.64      0.00
   29    3    1     -1.70      0.00
   29    3    2     -1.27      0.00
   29    3    3      2.08      0.00
   29    3    4     -1.11      0.00
   29    3    5     -1.58      0.00
   29    3    6      0.66      0.00
   29    3    7     -0.78      0.00
   29    3    8     -1.85      0.00
   29    3    9      2.94      0.00
  -29    5    9      3.85      0.00
  -29    5    8     -2.19      0.00
  -29    5    7     -3.60      0.00
  -29    5    6     -0.60      0.00
  -29    5    5      2.79      0.00
  -29    5    4      0.87      0.00
  -29    5    3     -2.42      0.00
  -29    5    2     -1.72      0.00
  -29    5    1      1.21      0.00
   29    5    0      1.79      0.00
   29    5    1     -1.55      0.00
   29    5    2     -1.92      0.00
   29    5    3      2.47      0.00
   29    5    4     -1.73      0.00
   29    5    5     -2.11      0.00
   29    5    6      0.87      0.00
   29    5    7      1.94      0.00
   29    5    8     -1.21      0.00
   29    5    9      1.13      0.00
  -29    7    9      3.59      0.00
  -29    7    8     -0.44      0.00
  -29    7    7     -3.15      0.00
  -29    7    6     -1.32      0.00
  -29    7    5      1.55      0.00
  -29    7    4      2.17      0.00
  -29    7    3     -0.88      0.00
  -29    7    2     -4.27      0.00
  -29    7    1      0.97      0.00
   29    7    0      2.12      0.00
   29    7    1     -1.35      0.00
   29    7    2     -1.29      0.00
   29    7    3      1.14      0.00
   29    7    4     -2.32      0.00
   29    7    5     -0.04      0.00
   29    7    6      1.00      0.00
   29    7    7      1.58      0.00
   29    7    8     -1.18      0.00
  -29    9    8     -0.04      0.00
  -29    9    7     -2.87      0.00
  -29    9    6     -0.64      0.00
  -29    9    5      1.89      0.00
  -29    9    4      0.61      0.00
  -29    9    3      0.64      0.00
  -29    9    2     -3.07      0.00
  -29    9    1     -0.87      0.00
   29    9    0     -0.13      0.00
   29    9    1     -1.07      0.00
   29    9    2      0.21      0.00
   29    9    3     -0.75      0.00
   29    9    4     -1.84      0.00
   29    9    5      1.19      0.00
   29    9    6     -0.96      0.00
   29    9    7      1.70      0.00
   29    9    8      0.91      0.00
  -29   11    7     -1.56      0.00
  -29   11    6     -1.53      0.00
  -29   11    5      2.06      0.00
  -29   11    4      1.15      0.00
  -29   11    3      0.09      0.00
  -29   11    2     -1.48      0.00
  -29   11    1      0.18      0.00
   29   11    0     -2.59      0.00
   29   11    1      1.26      0.00
   29   11    2      0.42      0.00
   29   11    3     -2.95      0.00
   29   11    4     -1.24      0.00
   29   11    5      0.84      0.00
   29   11    6     -0.28      0.00
   29   11    7      3.74      0.00
  -29   13    5     -1.10      0.00
  -29   13    4      1.43      0.00
  -29   13    3      1.40      0.00
  -29   13    2     -1.94      0.00
  -29   13    1      1.54      0.00
   29   13    0     -1.21      0.00
   29   13    1      2.74      0.00
   29   13    2     -2.10      0.00
   29   13    3     -3.77      0.00
   29   13    4     -0.50      0.00
   29   13    5      1.97      0.00
  -29   15    2     -1.45      0.00
  -29   15    1      0.24      0.00
   29   15    0      0.40      0.00
   29   15    1      0.62      0.00
   29   15    2     -2.59      0.00
  -30    0    8      3.51      0.00
  -30    0    6     -0.32      0.00
  -30    0    4     -0.05      0.00
  -30    0    2      0.69      0.00
   30    0    0      0.72      0.00
   30    0    2      0.18      0.00
   30    0    4      2.01      0.00
   30    0    6     -0.91      0.00
   30    0    8     -0.95      0.00
  -30    2    9     -0.60      0.00
  -30    2    8      3.01      0.00
  -30    2    7      1.87      0.00
  -30    2    6      0.03      0.00
  -30    2    5     -0.23      0.00
  -30    2    4      0.94      0.00
  -30    2    3     -1.37      0.00
  -30    2    2     -0.88      0.00
  -30    2    1      0.99      0.00
   30    2    0      1.69      0.00
   30    2    1      0.84      0.00
   30    2    2      1.06      0.00
   30    2    3      0.45      0.00
   30    2    4      0.50      0.00
   30    2    5      0.73      0.00
   30    2    6      0.13      0.00
   30    2    7     -0.29      0.00
   30    2    8     -2.04      0.00
  -30    4    8      2.79      0.00
  -30    4    7      2.10      0.00
  -30    4    6      0.89      0.00
  -30    4    5     -1.01      0.00
  -30    4    4      1.03      0.00
  -30    4    3      0.16      0.00
  -30    4    2     -1.06      0.00
  -30    4    1     -1.41      0.00
   30    4    0      1.54      0.00
   30    4    1      0.20      0.00
   30    4    2      2.94      0.00
   30    4    3      0.14      0.00
   30    4    4     -1.29      0.00
   30    4    5      1.77      0.00
   30    4    6      0.47      0.00
   30    4    7     -1.46      0.00
   30    4    8     -2.36      0.00
  -30    6    8      2.74      0.00
  -30    6    7      1.97      0.00
  -30    6    6      1.75      0.00
  -30    6    5     -1.06      0.00
  -30    6    4     -0.58      0.00
  -30    6    3      0.64      0.00
  -30    6    2      1.81      0.00
  -30    6    1     -2.44      0.00
   30    6    0     -0.47      0.00
   30    6    1      0.23      0.00
   30    6    2      3.64      0.00
   30    6    3      0.11      0.00
   30    6    4     -1.04      0.00
   30    6    5      0.65      0.00
   30    6    6     -0.87      0.00
   30    6    7     -0.52      0.00
   30    6    8     -0.60      0.00
  -30    8    7      1.45      0.00
  -30    8    6      2.38      0.00
  -30    8    5     -0.83      0.00
  -30    8    4     -1.04      0.00
  -30    8    3      0.48      0.00
  -30    8    2      2.71      0.00
  -30    8    1     -1.89      0.00
   30    8    0      0.23      0.00
   30    8    1      0.32      0.00
   30    8    2      1.42      0.00
   30    8    3      1.28      0.00
   30    8    4      0.05      0.00
   30    8    5     -1.44      0.00
   30    8    6     -0.92      0.00
   30    8    7      1.26      0.00
  -30   10    6      2.21      0.00
  -30   10    5     -0.23      0.00
  -30   10    4     -1.53      0.00
  -30   10    3      1.70      0.00
  -30   10    2      2.90      0.00
  -30   10    1     -3.70      0.00
   30   10    0      2.34      0.00
   30   10    1     -2.68      0.00
   30   10    2     -1.17      0.00
   30   10    3      4.04      0.00
   30   10    4      0.70      0.00
   30   10    5     -2.15      0.00
   30   10    6     -0.64      0.00
  -30   12    4     -1.84      0.00
  -30   12    3      0.89      0.00
  -30   12    2      4.47      0.00
  -30   12    1     -4.87      0.00
   30   12    0      1.40      0.00
   30   12    1     -5.67      0.00
   30   12    2      0.00      0.00
   30   12    3      5.87      0.00
   30   12    4     -0.37      0.00
   30   14    0     -0.21      0.00
  -31    1    8      2.84      0.00
  -31    1    7     -0.36      0.00
  -31    1    6     -0.97      0.00
  -31    1    5      0.34      0.00
  -31    1    4     -1.64      0.00
  -31    1    3     -0.08      0.00
  -31    1    2      2.77      0.00
  -31    1    1      0.49      0.00
   31    1    0     -3.93      0.00
   31    1    1      0.40      0.00
   31    1    2      0.30      0.00
   31    1    3     -1.17      0.00
   31    1    4     -0.34      0.00
   31    1    5      0.58      0.00
   31    1    6     -0.21      0.00
   31    1    7      0.48      0.00
  -31    3    7      0.19      0.00
  -31    3    6     -1.29      0.00
  -31    3    5      0.10      0.00
  -31    3    4     -1.71      0.00
  -31    3    3     -0.30      0.00
  -31    3    2      2.88      0.00
  -31    3    1      2.10      0.00
   31    3    0     -4.21      0.00
   31    3    1      1.86      0.00
   31    3    2      0.16      0.00
   31    3    3     -2.34      0.00
   31    3    4      1.47      0.00
   31    3    5      0.00      0.00
   31    3    6     -0.79      0.00
   31    3    7      1.61      0.00
  -31    5    7      0.82      0.00
  -31    5    6      0.22      0.00
  -31    5    5     -0.21      0.00
  -31    5    4     -2.37      0.00
  -31    5    3     -0.35      0.00
  -31    5    2      2.01      0.00
  -31    5    1      2.43      0.00
   31    5    0     -2.21      0.00
   31    5    1      2.08      0.00
   31    5    2     -0.80      0.00
   31    5    3     -1.62      0.00
   31    5    4      1.70      0.00
   31    5    5     -1.20      0.00
   31    5    6      0.82      0.00
  -31    7    6      0.96      0.00
  -31    7    5      0.99      0.00
  -31    7    4     -2.51      0.00
  -31    7    3     -1.11      0.00
  -31    7    2      1.96      0.00
  -31    7    1      1.20      0.00
   31    7    0     -1.35      0.00
   31    7    1      0.19      0.00
   31    7    2     -0.43      0.00
   31    7    3     -0.61      0.00
   31    7    4      0.63      0.00
   31    7    5     -0.31      0.00
   31    7    6      2.02      0.00
  -31    9    5      1.08      0.00
  -31    9    4     -1.07      0.00
  -31    9    3     -2.76      0.00
  -31    9    2      1.92      0.00
  -31    9    1      2.45      0.00
   31    9    0     -2.45      0.00
   31    9    1      0.74      0.00
   31    9    2      1.64      0.00
   31    9    3     -1.17      0.00
   31    9    4     -0.16      0.00
   31    9    5      0.59      0.00
  -31   11    3     -2.94      0.00
  -31   11    2     -0.19      0.00
  -31   11    1      4.22      0.00
   31   11    0     -1.15      0.00
   31   11    1      3.43      0.00
   31   11    2      1.88      0.00
   31   11    3     -2.91      0.00
  -32    0    6     -0.24      0.00
  -32    0    4      0.96      0.00
  -32    0    2     -1.05      0.00
   32    0    0      0.75      0.00
   32    0    2     -0.12      0.00
   32    0    4      0.09      0.00
   32    0    6     -2.81      0.00
  -32    2    6      0.34      0.00
  -32    2    5     -1.49      0.00
  -32    2    4      0.01      0.00
  -32    2    3      1.91      0.00
  -32    2    2     -0.27      0.00
  -32    2    1     -1.44      0.00
   32    2    0      0.81      0.00
   32    2    1     -0.37      0.00
   32    2    2     -1.20      0.00
   32    2    3     -0.11      0.00
   32    2    4     -0.15      0.00
   32    2    5     -0.79      0.00
  -32    4    5     -0.56      0.00
  -32    4    4      0.42      0.00
  -32    4    3      1.22      0.00
  -32    4    2      0.00      0.00
  -32    4    1     -0.95      0.00
   32    4    0      0.25      0.00
   32    4    1     -0.92      0.00
   32    4    2     -2.43      0.00
   32    4    3     -0.46      0.00
   32    4    4      0.26      0.00
   32    4    5      0.99      0.00
  -32    6    5     -1.00      0.00
  -32    6    4      3.21      0.00
  -32    6    3      1.07      0.00
  -32    6    2     -2.18      0.00
  -32    6    1      0.83      0.00
   32    6    0      0.20      0.00
   32    6    1      0.09      0.00
   32    6    2     -2.57      0.00
   32    6    3     -0.95      0.00
   32    6    4      1.22      0.00
  -32    8    3      2.46      0.00
  -32    8    2     -4.18      0.00
  -32    8    1      0.80      0.00
   32    8    0      1.54      0.00
   32    8    1      0.65      0.00
   32    8    2     -2.84      0.00
   32    8    3     -1.02      0.00
  -33    1    4      1.91      0.00
  -33    1    3     -1.37      0.00
  -33    1    2     -3.01      0.00
  -33    1    1      0.07      0.00
   33    1    0      4.07      0.00
   33    1    1     -0.89      0.00
   33    1    2     -0.53      0.00
   33    1    3      1.48      0.00
  -33    3    3     -1.92      0.00
  -33    3    2     -3.62      0.00
  -33    3    1     -0.57      0.00
   33    3    0      3.78      0.00
   33    3    1     -1.71      0.00
   33    3    2      1.06      0.00
   33    3    3      3.22      0.00
  -33    5    2     -1.63      0.00
  -33    5    1     -1.57      0.00
   33    5    0      2.66      0.00
   33    5    1     -1.50      0.00
   33    5    2      2.07      0.00
   33    7    0      0.73      0.00
   33    9    0      0.15      0.00
   32   10    0      1.07      0.00
   33   11    0      1.21      0.00
   32   12    0     -0.94      0.00
   31   13    0      1.16      0.00
   33   13    0      1.11      0.00
   32   14    0     -1.36      0.00
   31   15    0      1.02      0.00
   33   15    0      0.30      0.00
   30   16    0      0.46      0.00
   32   16    0     -1.02      0.00
   29   17    0     -0.55      0.00
   31   17    0     -0.07      0.00
   28   18    0      0.67      0.00
   30   18    0      0.55      0.00
   27   19    0     -1.65      0.00
   29   19    0      0.18      0.00
   26   20    0      1.49      0.00
   28   20    0      0.50      0.00
   30   20    0     -0.91      0.00
   25   21    0     -2.15      0.00
   27   21    0      0.00      0.00
   29   21    0      1.82      0.00
   24   22    0      2.20      0.00
   26   22    0     -1.86      0.00
   28   22    0     -0.86      0.00
   23   23    0      0.53      0.00
   25   23    0      1.36      0.00
   27   23    0      2.01      0.00
   22   24    0     -0.38      0.00
   24   24    0     -0.87      0.00
   26   24    0     -3.19      0.00
   21   25    0     -1.20      0.00
   23   25    0      0.86      0.00
   25   25    0      1.91      0.00
   18   26    0     -3.21      0.00
   20   26    0     -2.39      0.00
   22   26    0      1.24      0.00
   17   27    0      1.30      0.00
   19   27    0      5.16      0.00
   21   27    0     -1.22      0.00
   14   28    0     -2.02      0.00
   16   28    0     -3.55      0.00
   18   28    0     -2.47      0.00
   20   28    0     -2.16      0.00
   11   29    0      3.88      0.00
   13   29    0      0.22      0.00
   15   29    0      4.03      0.00
   17   29    0      1.00      0.00
   19   29    0      3.02      0.00
    8   30    0      0.79      0.00
   10   30    0     -2.41      0.00
   12   30    0     -1.65      0.00
   14   30    0     -0.95      0.00
   16   30    0     -2.25      0.00
  -33    7    1     -1.13      0.00
   33    7    1     -0.74      0.00
  -33    9    1     -0.16      0.00
   33    9    1      0.73      0.00
  -32   10    1     -0.45      0.00
   32   10    1     -0.67      0.00
  -33   11    1     -0.68      0.00
   33   11    1      1.14      0.00
  -32   12    1     -0.10      0.00
   32   12    1     -1.09      0.00
  -33   13    1     -1.31      0.00
  -31   13    1      2.68      0.00
   31   13    1      3.26      0.00
   33   13    1      0.54      0.00
  -32   14    1      0.46      0.00
  -30   14    1     -2.68      0.00
   30   14    1     -3.78      0.00
   32   14    1     -0.68      0.00
  -33   15    1     -0.27      0.00
  -31   15    1      0.57      0.00
   31   15    1      0.81      0.00
   33   15    1      1.07      0.00
  -32   16    1      0.02      0.00
  -30   16    1     -0.82      0.00
   30   16    1     -0.59      0.00
   32   16    1     -0.82      0.00
  -31   17    1     -0.01      0.00
  -29   17    1     -0.10      0.00
   29   17    1      0.14      0.00
   31   17    1     -0.53      0.00
  -30   18    1     -0.84      0.00
  -28   18    1      0.95      0.00
   28   18    1      1.69      0.00
   30   18    1     -0.40      0.00
  -29   19    1      1.24      0.00
  -27   19    1      0.69      0.00
   27   19    1     -2.88      0.00
   29   19    1      2.42      0.00
  -30   20    1     -0.40      0.00
  -28   20    1     -1.11      0.00
  -26   20    1     -2.05      0.00
   26   20    1     -0.45      0.00
   28   20    1     -1.61      0.00
   30   20    1     -0.37      0.00
  -29   21    1      0.67      0.00
  -27   21    1      1.05      0.00
  -25   21    1      1.69      0.00
   25   21    1      5.40      0.00
   27   21    1      0.41      0.00
   29   21    1      1.68      0.00
  -28   22    1      0.15      0.00
  -26   22    1     -1.30      0.00
  -24   22    1     -1.32      0.00
   24   22    1     -4.37      0.00
   26   22    1     -2.77      0.00
   28   22    1     -0.83      0.00
  -27   23    1     -1.21      0.00
  -25   23    1      2.39      0.00
  -23   23    1     -1.09      0.00
   23   23    1     -1.80      0.00
   25   23    1      4.77      0.00
   27   23    1     -0.29      0.00
  -26   24    1      0.71      0.00
  -24   24    1     -1.52      0.00
  -22   24    1      3.68      0.00
   22   24    1      4.18      0.00
   24   24    1     -1.54      0.00
   26   24    1     -0.32      0.00
  -25   25    1      0.10      0.00
  -23   25    1     -1.21      0.00
  -21   25    1     -2.73      0.00
   21   25    1     -1.92      0.00
   23   25    1     -2.05      0.00
   25   25    1      0.49      0.00
  -22   26    1      1.37      0.00
  -20   26    1      1.34      0.00
  -18   26    1     -0.40      0.00
   18   26    1     -1.05      0.00
   20   26    1      1.64      0.00
   22   26    1      1.06      0.00
  -21   27    1     -0.55      0.00
  -19   27    1     -0.98      0.00
  -17   27    1     -1.74      0.00
   17   27    1      1.58      0.00
   19   27    1     -2.91      0.00
   21   27    1     -0.09      0.00
  -20   28    1      0.68      0.00
  -18   28    1      1.17      0.00
  -16   28    1      2.54      0.00
  -14   28    1     -1.19      0.00
   14   28    1      5.91      0.00
   16   28    1     -0.72      0.00
   18   28    1      2.06      0.00
   20   28    1      1.80      0.00
  -19   29    1      0.14      0.00
  -17   29    1     -3.02      0.00
  -15   29    1      0.01      0.00
  -13   29    1     -0.90      0.00
  -11   29    1     -1.69      0.00
   11   29    1      3.84      0.00
   13   29    1     -4.98      0.00
   15   29    1     -1.70      0.00
   17   29    1     -0.51      0.00
   19   29    1     -2.39      0.00
  -16   30    1      3.26      0.00
  -14   30    1     -1.58      0.00
  -12   30    1      3.11      0.00
  -10   30    1     -0.68      0.00
   -8   30    1      3.09      0.00
    6   30    1      0.54      0.00
    8   30    1      4.90      0.00
   10   30    1     -2.47      0.00
   12   30    1      0.54      0.00
   14   30    1      3.39      0.00
   16   30    1     -0.04      0.00
  -33    7    2      1.15      0.00
   33    7    2      2.33      0.00
  -33    9    2      1.53      0.00
   33    9    2      1.91      0.00
  -32   10    2     -3.77      0.00
   32   10    2     -2.58      0.00
  -33   11    2      1.26      0.00
   33   11    2      0.90      0.00
  -32   12    2     -2.84      0.00
   32   12    2     -1.51      0.00
  -33   13    2      2.06      0.00
  -31   13    2     -1.70      0.00
   31   13    2     -0.01      0.00
   33   13    2      0.61      0.00
  -32   14    2     -2.31      0.00
  -30   14    2      4.01      0.00
   30   14    2      2.09      0.00
   32   14    2     -0.69      0.00
  -33   15    2      2.13      0.00
  -31   15    2     -1.23      0.00
   31   15    2     -0.65      0.00
   33   15    2      0.43      0.00
  -32   16    2     -1.14      0.00
  -30   16    2      1.97      0.00
   30   16    2      0.63      0.00
   32   16    2     -0.01      0.00
  -31   17    2     -0.84      0.00
  -29   17    2     -0.40      0.00
   29   17    2      0.58      0.00
   31   17    2      0.11      0.00
  -30   18    2      1.76      0.00
  -28   18    2     -1.18      0.00
   28   18    2     -2.03      0.00
   30   18    2     -0.69      0.00
  -29   19    2     -1.17      0.00
  -27   19    2      1.03      0.00
   27   19    2      2.91      0.00
   29   19    2      1.29      0.00
  -30   20    2      2.21      0.00
  -28   20    2     -0.08      0.00
  -26   20    2      0.81      0.00
   26   20    2     -1.42      0.00
   28   20    2     -2.76      0.00
  -29   21    2     -1.55      0.00
  -27   21    2     -1.49      0.00
  -25   21    2      0.54      0.00
   25   21    2     -0.12      0.00
   27   21    2      1.73      0.00
   29   21    2     -0.54      0.00
  -28   22    2      0.14      0.00
  -26   22    2      2.78      0.00
  -24   22    2     -2.81      0.00
   24   22    2      0.16      0.00
   26   22    2      2.33      0.00
   28   22    2     -0.01      0.00
  -27   23    2     -1.06      0.00
  -25   23    2     -0.56      0.00
  -23   23    2      1.20      0.00
   23   23    2     -1.37      0.00
   25   23    2     -3.33      0.00
   27   23    2     -2.65      0.00
  -26   24    2      1.14      0.00
  -24   24    2     -0.30      0.00
  -22   24    2      0.48      0.00
   22   24    2      1.53      0.00
   24   24    2      1.69      0.00
   26   24    2      4.65      0.00
  -25   25    2      0.08      0.00
  -23   25    2     -0.06      0.00
  -21   25    2     -1.72      0.00
   21   25    2      0.21      0.00
   23   25    2     -1.54      0.00
  -22   26    2     -0.38      0.00
  -20   26    2      3.19      0.00
  -18   26    2     -1.78      0.00
   18   26    2      3.96      0.00
   20   26    2      1.69      0.00
   22   26    2      1.22      0.00
  -21   27    2     -1.40      0.00
  -19   27    2     -0.59      0.00
  -17   27    2     -1.01      0.00
   17   27    2     -1.65      0.00
   19   27    2     -4.59      0.00
   21   27    2     -0.81      0.00
  -20   28    2      2.50      0.00
  -18   28    2     -2.14      0.00
  -16   28    2      5.33      0.00
  -14   28    2      0.59      0.00
   14   28    2      4.38      0.00
   16   28    2      4.03      0.00
   18   28    2      2.97      0.00
   20   28    2      1.81      0.00
  -19   29    2     -0.04      0.00
  -17   29    2     -0.34      0.00
  -15   29    2     -4.86      0.00
  -13   29    2     -0.49      0.00
  -11   29    2     -0.49      0.00
   11   29    2     -2.81      0.00
   13   29    2      0.86      0.00
   15   29    2     -5.37      0.00
   17   29    2     -1.84      0.00
  -16   30    2      2.93      0.00
  -14   30    2      2.73      0.00
  -12   30    2      0.05      0.00
  -10   30    2      0.37      0.00
   -8   30    2      1.21      0.00
   -6   30    2     -2.03      0.00
    6   30    2      0.13      0.00
    8   30    2     -0.33      0.00
   10   30    2      2.12      0.00
   12   30    2      0.89      0.00
   14   30    2      1.11      0.00
   16   30    2      3.61      0.00
  -33    5    3     -0.88      0.00
   33    5    3      2.89      0.00
  -33    7    3     -1.46      0.00
   33    7    3      1.67      0.00
  -33    9    3     -1.58      0.00
   33    9    3      0.68      0.00
  -32   10    3      2.31      0.00
   32   10    3     -0.46      0.00
  -33   11    3      0.04      0.00
   33   11    3      0.06      0.00
  -32   12    3      1.31      0.00
   32   12    3      0.49      0.00
  -33   13    3      0.68      0.00
  -31   13    3     -1.81      0.00
   31   13    3     -2.72      0.00
   33   13    3     -1.14      0.00
  -32   14    3      1.59      0.00
  -30   14    3     -0.91      0.00
   30   14    3      3.30      0.00
   32   14    3      1.30      0.00
  -33   15    3      0.14      0.00
  -31   15    3     -1.76      0.00
  -29   15    3      2.60      0.00
   29   15    3     -2.38      0.00
   31   15    3     -0.04      0.00
   33   15    3     -2.41      0.00
  -32   16    3      1.36      0.00
  -30   16    3      0.29      0.00
   30   16    3      0.10      0.00
   32   16    3      1.16      0.00
  -31   17    3     -1.89      0.00
  -29   17    3      0.88      0.00
   29   17    3     -2.70      0.00
   31   17    3      1.51      0.00
  -30   18    3      1.83      0.00
  -28   18    3     -0.59      0.00
   28   18    3      0.32      0.00
   30   18    3      0.66      0.00
  -29   19    3     -0.43      0.00
  -27   19    3     -2.57      0.00
   27   19    3      6.29      0.00
   29   19    3     -4.75      0.00
  -28   20    3      0.25      0.00
  -26   20    3      3.40      0.00
   26   20    3     -3.32      0.00
   28   20    3      2.15      0.00
  -27   21    3     -1.01      0.00
  -25   21    3     -0.72      0.00
   25   21    3     -7.48      0.00
   27   21    3      2.68      0.00
  -28   22    3     -0.08      0.00
  -26   22    3     -0.40      0.00
  -24   22    3      0.99      0.00
   24   22    3      8.65      0.00
   26   22    3     -0.33      0.00
  -27   23    3      0.63      0.00
  -25   23    3      0.60      0.00
  -23   23    3     -2.36      0.00
   23   23    3      0.02      0.00
   25   23    3     -4.24      0.00
  -24   24    3      1.15      0.00
  -22   24    3      0.68      0.00
   22   24    3     -4.30      0.00
   24   24    3      2.51      0.00
  -23   25    3     -1.45      0.00
  -21   25    3      1.62      0.00
  -19   25    3      0.96      0.00
   19   25    3     -1.35      0.00
   21   25    3      2.22      0.00
   23   25    3      1.30      0.00
  -22   26    3      1.09      0.00
  -20   26    3     -2.45      0.00
  -18   26    3      0.90      0.00
   18   26    3      0.78      0.00
   20   26    3     -0.86      0.00
   22   26    3     -1.36      0.00
  -21   27    3      0.23      0.00
  -19   27    3      0.99      0.00
  -17   27    3      0.05      0.00
   17   27    3      0.01      0.00
   19   27    3      1.55      0.00
   21   27    3      0.50      0.00
  -20   28    3     -1.62      0.00
  -18   28    3      0.52      0.00
  -16   28    3     -0.67      0.00
  -14   28    3      4.03      0.00
   14   28    3     -3.54      0.00
   16   28    3     -0.44      0.00
   18   28    3     -2.01      0.00
   20   28    3     -1.25      0.00
  -17   29    3      0.95      0.00
  -15   29    3     -1.89      0.00
  -13   29    3     -0.79      0.00
  -11   29    3      1.82      0.00
    9   29    3      2.04      0.00
   11   29    3     -1.28      0.00
   13   29    3      2.76      0.00
   15   29    3      1.04      0.00
   17   29    3      1.63      0.00
  -16   30    3     -1.86      0.00
  -14   30    3      2.48      0.00
  -12   30    3     -2.29      0.00
  -10   30    3      1.90      0.00
   -8   30    3     -0.83      0.00
   -6   30    3     -1.73      0.00
    4   30    3     -1.68      0.00
    6   30    3     -3.08      0.00
    8   30    3     -0.35      0.00
   10   30    3      0.22      0.00
   12   30    3      0.10      0.00
   14   30    3     -1.47      0.00
   16   30    3     -0.50      0.00
   33    1    4      0.20      0.00
  -33    3    4      3.12      0.00
   33    3    4     -0.62      0.00
  -33    5    4      1.30      0.00
   33    5    4     -1.66      0.00
  -33    7    4     -1.33      0.00
   33    7    4     -1.48      0.00
  -32    8    4      3.51      0.00
   32    8    4      0.95      0.00
  -33    9    4     -1.05      0.00
   33    9    4     -0.52      0.00
  -32   10    4      1.74      0.00
   32   10    4      0.63      0.00
  -33   11    4     -0.06      0.00
  -31   11    4     -0.02      0.00
   31   11    4     -0.24      0.00
   33   11    4     -0.94      0.00
  -32   12    4      1.42      0.00
   32   12    4      1.29      0.00
  -33   13    4     -0.25      0.00
  -31   13    4     -0.47      0.00
   31   13    4      0.80      0.00
   33   13    4     -1.95      0.00
  -32   14    4      0.88      0.00
  -30   14    4      0.15      0.00
   30   14    4     -1.72      0.00
   32   14    4      1.23      0.00
  -31   15    4     -0.10      0.00
  -29   15    4     -1.44      0.00
   29   15    4     -0.55      0.00
   31   15    4      1.23      0.00
  -32   16    4     -0.84      0.00
  -30   16    4      1.24      0.00
  -28   16    4      0.96      0.00
   28   16    4      0.76      0.00
   30   16    4     -0.45      0.00
   32   16    4      0.52      0.00
  -31   17    4      1.10      0.00
  -29   17    4     -2.08      0.00
   29   17    4     -1.79      0.00
   31   17    4      0.14      0.00
  -30   18    4     -0.30      0.00
  -28   18    4      0.88      0.00
   28   18    4      1.84      0.00
   30   18    4      0.65      0.00
  -29   19    4      0.08      0.00
  -27   19    4      0.68      0.00
   27   19    4     -1.98      0.00
   29   19    4     -1.44      0.00
  -28   20    4     -0.38      0.00
  -26   20    4     -2.10      0.00
   26   20    4      2.17      0.00
   28   20    4      2.59      0.00
  -27   21    4      1.53      0.00
  -25   21    4      2.14      0.00
   25   21    4      0.33      0.00
   27   21    4     -2.93      0.00
  -26   22    4     -1.89      0.00
  -24   22    4     -0.63      0.00
   24   22    4     -4.15      0.00
   26   22    4      0.55      0.00
  -25   23    4      1.16      0.00
  -23   23    4     -0.69      0.00
   23   23    4      5.74      0.00
   25   23    4      2.69      0.00
  -24   24    4     -1.55      0.00
  -22   24    4      0.73      0.00
  -20   24    4     -2.67      0.00
   20   24    4      5.54      0.00
   22   24    4     -1.97      0.00
   24   24    4     -5.15      0.00
  -23   25    4      1.22      0.00
  -21   25    4      0.66      0.00
  -19   25    4      0.20      0.00
   19   25    4      2.10      0.00
   21   25    4     -4.02      0.00
   23   25    4      5.39      0.00
  -22   26    4     -0.21      0.00
  -20   26    4     -0.77      0.00
  -18   26    4     -0.74      0.00
   18   26    4     -8.05      0.00
   20   26    4      2.85      0.00
   22   26    4     -1.67      0.00
  -21   27    4      0.87      0.00
  -19   27    4     -0.74      0.00
  -17   27    4      3.96      0.00
  -15   27    4     -1.21      0.00
   15   27    4      2.10      0.00
   17   27    4      5.26      0.00
   19   27    4      3.96      0.00
   21   27    4     -1.78      0.00
  -18   28    4     -0.29      0.00
  -16   28    4     -3.56      0.00
  -14   28    4      2.12      0.00
  -12   28    4     -0.63      0.00
   12   28    4     -1.18      0.00
   14   28    4     -3.17      0.00
   16   28    4     -2.36      0.00
   18   28    4     -6.04      0.00
  -17   29    4      2.38      0.00
  -15   29    4      1.36      0.00
  -13   29    4      0.22      0.00
  -11   29    4     -0.63      0.00
   -9   29    4     -0.33      0.00
    9   29    4     -0.85      0.00
   11   29    4      1.93      0.00
   13   29    4      1.74      0.00
   15   29    4      2.40      0.00
   17   29    4      3.46      0.00
  -14   30    4     -1.49      0.00
  -12   30    4     -0.22      0.00
  -10   30    4     -0.25      0.00
   -8   30    4     -0.40      0.00
   -6   30    4      3.02      0.00
   -4   30    4      2.19      0.00
   -2   30    4     -1.22      0.00
    0   30    4      2.10      0.00
    2   30    4      0.23      0.00
    4   30    4     -0.66      0.00
    6   30    4      0.91      0.00
    8   30    4     -0.57      0.00
   10   30    4     -0.68      0.00
   12   30    4     -2.11      0.00
   14   30    4     -1.97      0.00
  -33    1    5      1.38      0.00
   33    1    5      0.02      0.00
  -33    3    5      2.16      0.00
   33    3    5     -0.83      0.00
  -33    5    5      1.24      0.00
   33    5    5     -1.58      0.00
   32    6    5      1.79      0.00
  -33    7    5      1.76      0.00
   33    7    5     -0.66      0.00
  -32    8    5     -2.72      0.00
   32    8    5      1.01      0.00
  -33    9    5      2.55      0.00
   33    9    5     -0.18      0.00
  -32   10    5     -1.99      0.00
   32   10    5      1.11      0.00
  -33   11    5      1.65      0.00
  -31   11    5     -0.54      0.00
   31   11    5      0.64      0.00
   33   11    5     -0.44      0.00
  -32   12    5     -0.86      0.00
  -30   12    5      1.52      0.00
   30   12    5     -2.35      0.00
   32   12    5      0.93      0.00
  -33   13    5      0.60      0.00
  -31   13    5     -0.28      0.00
   31   13    5      0.39      0.00
   33   13    5      0.59      0.00
  -32   14    5     -1.43      0.00
  -30   14    5      1.59      0.00
   30   14    5     -2.07      0.00
   32   14    5      0.17      0.00
  -31   15    5      1.25      0.00
  -29   15    5     -1.74      0.00
   29   15    5      4.06      0.00
   31   15    5     -0.76      0.00
  -30   16    5     -0.66      0.00
  -28   16    5      0.15      0.00
   28   16    5     -3.01      0.00
   30   16    5     -1.61      0.00
  -31   17    5      0.68      0.00
  -29   17    5      1.18      0.00
  -27   17    5      1.56      0.00
   27   17    5     -4.09      0.00
   29   17    5      4.91      0.00
   31   17    5     -1.23      0.00
  -30   18    5     -1.33      0.00
  -28   18    5     -1.89      0.00
  -26   18    5     -2.24      0.00
   26   18    5      5.99      0.00
   28   18    5     -0.98      0.00
   30   18    5     -2.10      0.00
  -29   19    5      1.64      0.00
  -27   19    5      2.27      0.00
   25   19    5      3.96      0.00
   27   19    5     -6.82      0.00
   29   19    5      4.32      0.00
  -28   20    5     -1.60      0.00
  -26   20    5     -1.67      0.00
   26   20    5      4.48      0.00
   28   20    5     -0.27      0.00
  -27   21    5      1.32      0.00
  -25   21    5      0.69      0.00
   23   21    5      0.57      0.00
   25   21    5      4.80      0.00
   27   21    5     -3.95      0.00
  -26   22    5     -0.03      0.00
  -24   22    5     -1.20      0.00
  -22   22    5     -2.47      0.00
   22   22    5      5.49      0.00
   24   22    5     -5.36      0.00
   26   22    5      1.76      0.00
  -25   23    5     -0.19      0.00
  -23   23    5      2.67      0.00
  -21   23    5      2.33      0.00
   21   23    5     -4.01      0.00
   23   23    5     -1.16      0.00
   25   23    5      1.75      0.00
  -24   24    5     -0.75      0.00
  -22   24    5     -3.07      0.00
  -20   24    5     -0.23      0.00
   20   24    5      1.60      0.00
   22   24    5      3.59      0.00
   24   24    5     -0.69      0.00
  -23   25    5      0.93      0.00
  -21   25    5      1.86      0.00
  -19   25    5      0.83      0.00
   19   25    5      0.12      0.00
   21   25    5     -1.98      0.00
   23   25    5     -1.49      0.00
  -22   26    5     -0.66      0.00
  -20   26    5     -1.37      0.00
  -18   26    5     -1.73      0.00
  -16   26    5     -2.81      0.00
   16   26    5      1.20      0.00
   18   26    5     -0.45      0.00
   20   26    5      0.81      0.00
   22   26    5      1.08      0.00
  -19   27    5      2.37      0.00
  -17   27    5      0.27      0.00
  -15   27    5      5.69      0.00
   15   27    5     -0.75      0.00
   17   27    5     -1.21      0.00
   19   27    5     -0.85      0.00
  -18   28    5     -1.28      0.00
  -16   28    5     -1.07      0.00
  -14   28    5     -5.14      0.00
  -12   28    5      1.28      0.00
   12   28    5      0.32      0.00
   14   28    5      0.96      0.00
   16   28    5      1.83      0.00
   18   28    5      1.75      0.00
  -17   29    5     -1.26      0.00
  -15   29    5      3.49      0.00
  -13   29    5      1.21      0.00
  -11   29    5      2.16      0.00
   -9   29    5      2.57      0.00
   -7   29    5     -1.53      0.00
    7   29    5     -0.58      0.00
    9   29    5     -2.15      0.00
   11   29    5      0.06      0.00
   13   29    5     -1.33      0.00
   15   29    5     -0.67      0.00
   17   29    5     -2.38      0.00
  -14   30    5     -2.32      0.00
  -12   30    5     -0.32      0.00
  -10   30    5     -3.18      0.00
   -8   30    5     -0.59      0.00
   -6   30    5      0.99      0.00
   -4   30    5     -1.09      0.00
   -2   30    5      1.89      0.00
    0   30    5      1.39      0.00
    2   30    5      2.37      0.00
    4   30    5      3.81      0.00
    6   30    5      3.40      0.00
    8   30    5      0.23      0.00
   10   30    5      0.55      0.00
   12   30    5      0.49      0.00
   14   30    5      0.18      0.00
  -33    1    6      0.76      0.00
   33    1    6      2.61      0.00
   32    2    6     -1.79      0.00
  -33    3    6      0.25      0.00
   33    3    6      1.28      0.00
  -32    4    6     -0.53      0.00
   32    4    6     -1.49      0.00
  -33    5    6      0.96      0.00
   33    5    6      1.15      0.00
  -32    6    6     -3.24      0.00
   32    6    6     -2.41      0.00
  -33    7    6      2.30      0.00
   33    7    6      0.61      0.00
  -32    8    6     -3.35      0.00
   32    8    6     -1.14      0.00
  -33    9    6      1.99      0.00
  -31    9    6     -0.37      0.00
   31    9    6      1.10      0.00
   33    9    6     -1.06      0.00
  -32   10    6     -1.32      0.00
   32   10    6      0.46      0.00
  -33   11    6      0.48      0.00
  -31   11    6     -0.06      0.00
   31   11    6      0.66      0.00
   33   11    6     -0.93      0.00
  -32   12    6     -0.74      0.00
  -30   12    6      0.60      0.00
   30   12    6     -1.65      0.00
   32   12    6     -0.05      0.00
  -33   13    6      0.04      0.00
  -31   13    6      1.24      0.00
  -29   13    6     -1.26      0.00
   29   13    6      3.07      0.00
   31   13    6      0.73      0.00
  -32   14    6     -0.74      0.00
  -30   14    6     -0.42      0.00
   30   14    6     -2.25      0.00
   32   14    6     -0.49      0.00
  -31   15    6      0.07      0.00
  -29   15    6      0.67      0.00
   29   15    6      3.89      0.00
   31   15    6      0.54      0.00
  -30   16    6      0.99      0.00
  -28   16    6     -2.18      0.00
   28   16    6     -0.89      0.00
   30   16    6     -1.93      0.00
  -29   17    6     -0.26      0.00
  -27   17    6      1.24      0.00
   27   17    6     -3.66      0.00
   29   17    6      2.35      0.00
  -30   18    6      1.89      0.00
  -28   18    6     -0.59      0.00
  -26   18    6      0.81      0.00
   26   18    6      1.57      0.00
   28   18    6     -0.10      0.00
  -29   19    6     -2.17      0.00
  -27   19    6      0.56      0.00
  -25   19    6     -1.56      0.00
   25   19    6      3.30      0.00
   27   19    6     -1.27      0.00
   29   19    6      1.11      0.00
  -28   20    6      1.47      0.00
  -26   20    6     -0.38      0.00
  -24   20    6      0.88      0.00
   24   20    6     -3.03      0.00
   26   20    6      0.04      0.00
   28   20    6     -1.39      0.00
  -27   21    6      0.34      0.00
  -25   21    6     -0.79      0.00
  -23   21    6      2.36      0.00
   23   21    6     -0.84      0.00
   25   21    6      0.99      0.00
   27   21    6      1.17      0.00
  -26   22    6     -1.23      0.00
  -24   22    6      0.99      0.00
  -22   22    6     -2.80      0.00
   22   22    6      3.24      0.00
   24   22    6     -0.16      0.00
   26   22    6     -0.35      0.00
  -25   23    6     -0.27      0.00
  -23   23    6      1.35      0.00
  -21   23    6     -2.79      0.00
   21   23    6     -1.12      0.00
   23   23    6     -1.62      0.00
   25   23    6     -0.23      0.00
  -24   24    6      0.76      0.00
  -22   24    6     -0.24      0.00
  -20   24    6      3.51      0.00
   20   24    6     -1.77      0.00
   22   24    6      1.29      0.00
   24   24    6      1.41      0.00
  -23   25    6      0.69      0.00
  -21   25    6     -4.02      0.00
  -19   25    6      2.00      0.00
  -17   25    6     -0.17      0.00
   17   25    6      1.43      0.00
   19   25    6     -0.55      0.00
   21   25    6      1.29      0.00
  -20   26    6      2.95      0.00
  -18   26    6     -2.20      0.00
  -16   26    6      0.82      0.00
   16   26    6     -2.12      0.00
   18   26    6      3.26      0.00
   20   26    6     -0.57      0.00
  -19   27    6      0.70      0.00
  -17   27    6     -1.04      0.00
  -15   27    6     -0.21      0.00
  -13   27    6      0.13      0.00
   13   27    6     -4.61      0.00
   15   27    6     -1.60      0.00
   17   27    6     -1.38      0.00
   19   27    6     -3.11      0.00
  -18   28    6     -0.73      0.00
  -16   28    6      1.58      0.00
  -14   28    6      1.63      0.00
  -12   28    6     -2.74      0.00
  -10   28    6     -2.81      0.00
   10   28    6     -1.20      0.00
   12   28    6      1.69      0.00
   14   28    6      5.07      0.00
   16   28    6      0.09      0.00
   18   28    6      3.51      0.00
  -15   29    6     -2.46      0.00
  -13   29    6     -0.75      0.00
  -11   29    6      2.59      0.00
   -9   29    6     -0.06      0.00
   -7   29    6      1.47      0.00
   -5   29    6      2.82      0.00
    3   29    6     -1.90      0.00
    5   29    6      1.86      0.00
    7   29    6     -1.92      0.00
    9   29    6     -0.93      0.00
   11   29    6      0.26      0.00
   13   29    6     -4.53      0.00
   15   29    6     -1.84      0.00
  -14   30    6      2.84      0.00
  -12   30    6     -0.82      0.00
  -10   30    6      0.13      0.00
   -8   30    6      0.68      0.00
   -6   30    6     -1.68      0.00
   -4   30    6     -1.62      0.00
   -2   30    6      0.94      0.00
    0   30    6     -2.32      0.00
    2   30    6     -0.57      0.00
    4   30    6     -0.59      0.00
    6   30    6     -1.84      0.00
    8   30    6      2.31      0.00
   10   30    6     -0.23      0.00
   12   30    6      2.15      0.00
  -33    1    7     -0.29      0.00
   33    1    7     -0.81      0.00
  -32    2    7      0.13      0.00
   32    2    7      0.36      0.00
  -33    3    7     -1.18      0.00
   33    3    7     -0.75      0.00
  -32    4    7     -0.30      0.00
   32    4    7     -0.35      0.00
  -33    5    7     -1.89      0.00
   31    5    7      0.97      0.00
   33    5    7      0.18      0.00
  -32    6    7      0.34      0.00
   32    6    7      0.68      0.00
  -33    7    7     -1.97      0.00
  -31    7    7     -0.08      0.00
   31    7    7     -1.90      0.00
   33    7    7     -0.49      0.00
  -32    8    7      1.61      0.00
   32    8    7      2.35      0.00
  -33    9    7     -2.02      0.00
  -31    9    7      0.17      0.00
   31    9    7     -2.83      0.00
   33    9    7     -0.91      0.00
  -32   10    7      1.51      0.00
  -30   10    7     -0.25      0.00
   30   10    7      0.49      0.00
   32   10    7      1.71      0.00
  -33   11    7     -1.43      0.00
  -31   11    7      1.00      0.00
   31   11    7     -1.29      0.00
   33   11    7     -0.42      0.00
  -32   12    7      0.89      0.00
  -30   12    7     -0.70      0.00
   30   12    7     -0.42      0.00
   32   12    7      0.56      0.00
  -31   13    7     -0.70      0.00
  -29   13    7      0.62      0.00
   29   13    7      2.14      0.00
   31   13    7     -0.29      0.00
  -32   14    7      1.09      0.00
  -30   14    7      0.88      0.00
  -28   14    7     -1.36      0.00
   28   14    7     -0.59      0.00
   30   14    7      0.70      0.00
  -31   15    7     -2.05      0.00
  -29   15    7      0.66      0.00
  -27   15    7     -1.40      0.00
   27   15    7     -1.88      0.00
   29   15    7     -1.81      0.00
   31   15    7     -0.09      0.00
  -30   16    7      0.79      0.00
  -28   16    7      0.26      0.00
   28   16    7      1.81      0.00
   30   16    7      1.56      0.00
  -29   17    7     -0.36      0.00
  -27   17    7     -2.16      0.00
   27   17    7      0.56      0.00
   29   17    7     -2.24      0.00
  -28   18    7      2.87      0.00
  -26   18    7     -0.84      0.00
   26   18    7     -1.32      0.00
   28   18    7     -0.40      0.00
  -27   19    7     -2.58      0.00
  -25   19    7      3.07      0.00
   25   19    7     -0.77      0.00
   27   19    7      2.94      0.00
  -26   20    7     -1.00      0.00
  -24   20    7     -0.47      0.00
   24   20    7     -0.68      0.00
   26   20    7     -1.49      0.00
  -25   21    7      1.33      0.00
  -23   21    7     -2.23      0.00
   23   21    7      3.89      0.00
   25   21    7     -0.22      0.00
  -24   22    7      0.84      0.00
  -22   22    7      4.13      0.00
   22   22    7     -2.98      0.00
   24   22    7     -1.36      0.00
  -23   23    7     -2.57      0.00
  -21   23    7     -3.86      0.00
  -19   23    7      0.34      0.00
   19   23    7      6.31      0.00
   21   23    7      2.71      0.00
   23   23    7      2.52      0.00
  -22   24    7      3.99      0.00
  -20   24    7      1.55      0.00
  -18   24    7      2.89      0.00
   18   24    7     -1.48      0.00
   20   24    7     -4.19      0.00
   22   24    7     -1.98      0.00
  -21   25    7     -3.34      0.00
  -19   25    7     -2.50      0.00
  -17   25    7     -3.36      0.00
   17   25    7      0.30      0.00
   19   25    7      1.49      0.00
   21   25    7      2.37      0.00
  -20   26    7      2.46      0.00
  -18   26    7      3.59      0.00
  -16   26    7      3.34      0.00
  -14   26    7      3.69      0.00
   14   26    7     -0.42      0.00
   16   26    7     -3.37      0.00
   18   26    7      1.95      0.00
   20   26    7     -2.33      0.00
  -19   27    7     -3.10      0.00
  -17   27    7     -1.54      0.00
  -15   27    7     -5.34      0.00
  -13   27    7     -2.21      0.00
  -11   27    7     -3.67      0.00
   11   27    7      0.06      0.00
   13   27    7     -1.34      0.00
   15   27    7      3.07      0.00
   17   27    7     -0.44      0.00
   19   27    7      0.44      0.00
  -16   28    7      1.49      0.00
  -14   28    7      4.01      0.00
  -12   28    7      3.20      0.00
  -10   28    7      3.24      0.00
   -8   28    7      1.21      0.00
    8   28    7      0.21      0.00
   10   28    7     -1.57      0.00
   12   28    7      0.90      0.00
   14   28    7     -1.06      0.00
   16   28    7     -2.31      0.00
  -15   29    7     -2.05      0.00
  -13   29    7     -1.89      0.00
  -11   29    7     -4.43      0.00
   -9   29    7     -1.23      0.00
   -7   29    7     -2.39      0.00
   -5   29    7     -1.21      0.00
   -3   29    7     -2.59      0.00
   -1   29    7      3.08      0.00
    1   29    7     -0.15      0.00
    3   29    7      2.50      0.00
    5   29    7      3.33      0.00
    7   29    7      0.55      0.00
    9   29    7      1.85      0.00
   11   29    7     -0.74      0.00
   13   29    7      1.04      0.00
   15   29    7      2.34      0.00
  -12   30    7      2.61      0.00
  -10   30    7      1.61      0.00
   -8   30    7      1.26      0.00
   -6   30    7      1.05      0.00
   -4   30    7      2.62      0.00
   -2   30    7     -0.67      0.00
    0   30    7     -0.40      0.00
    2   30    7     -0.94      0.00
    4   30    7     -2.41      0.00
    6   30    7     -2.21      0.00
    8   30    7     -1.49      0.00
   10   30    7      0.18      0.00
   12   30    7     -0.71      0.00
  -32    0    8     -4.24      0.00
   32    0    8      1.88      0.00
  -33    1    8      1.06      0.00
   31    1    8      3.00      0.00
   33    1    8     -3.73      0.00
  -32    2    8     -3.52      0.00
   32    2    8      1.89      0.00
  -33    3    8      0.34      0.00
  -31    3    8      1.68      0.00
   31    3    8      2.15      0.00
   33    3    8     -2.74      0.00
  -32    4    8     -1.86      0.00
   32    4    8      2.58      0.00
  -33    5    8      1.26      0.00
  -31    5    8     -0.98      0.00
   31    5    8     -0.07      0.00
   33    5    8     -2.19      0.00
  -32    6    8     -0.41      0.00
   32    6    8      2.74      0.00
  -33    7    8      2.21      0.00
  -31    7    8     -2.21      0.00
   31    7    8     -1.01      0.00
   33    7    8     -0.89      0.00
  -32    8    8     -0.05      0.00
  -30    8    8      1.56      0.00
   30    8    8     -0.17      0.00
   32    8    8      0.61      0.00
  -33    9    8      1.55      0.00
  -31    9    8     -1.28      0.00
   31    9    8      0.17      0.00
   33    9    8      0.99      0.00
  -32   10    8     -0.59      0.00
  -30   10    8      1.25      0.00
   30   10    8     -0.47      0.00
   32   10    8     -1.41      0.00
  -31   11    8     -0.98      0.00
  -29   11    8     -0.80      0.00
   29   11    8     -0.16      0.00
   31   11    8      0.91      0.00
  -32   12    8     -0.92      0.00
  -30   12    8      1.98      0.00
   28   12    8      2.61      0.00
   30   12    8      0.64      0.00
   32   12    8     -1.32      0.00
  -31   13    8     -0.72      0.00
  -29   13    8     -1.40      0.00
   29   13    8     -3.84      0.00
   31   13    8      0.68      0.00
  -30   14    8      0.10      0.00
  -28   14    8      1.91      0.00
   28   14    8      5.66      0.00
   30   14    8      1.28      0.00
  -29   15    8     -0.37      0.00
  -27   15    8     -0.17      0.00
   27   15    8     -1.76      0.00
   29   15    8     -3.81      0.00
  -30   16    8     -2.73      0.00
  -28   16    8      3.16      0.00
  -26   16    8     -5.36      0.00
   26   16    8     -1.77      0.00
   28   16    8      3.05      0.00
  -29   17    8      1.21      0.00
  -27   17    8     -1.33      0.00
  -25   17    8      6.14      0.00
   25   17    8     -0.53      0.00
   27   17    8      0.88      0.00
   29   17    8     -1.50      0.00
  -28   18    8      1.24      0.00
  -26   18    8     -2.55      0.00
  -24   18    8     -2.49      0.00
   24   18    8      2.11      0.00
   26   18    8     -1.88      0.00
   28   18    8      1.09      0.00
  -27   19    8     -0.84      0.00
  -25   19    8      1.97      0.00
  -23   19    8      0.22      0.00
   23   19    8      0.07      0.00
   25   19    8     -0.70      0.00
   27   19    8      0.55      0.00
  -26   20    8      1.44      0.00
  -24   20    8     -0.99      0.00
  -22   20    8      1.90      0.00
   22   20    8     -2.79      0.00
   24   20    8      2.22      0.00
   26   20    8     -1.12      0.00
  -25   21    8     -1.82      0.00
  -23   21    8      0.53      0.00
  -21   21    8     -2.40      0.00
   21   21    8      3.97      0.00
   23   21    8     -0.84      0.00
   25   21    8     -0.61      0.00
  -24   22    8     -0.54      0.00
  -22   22    8      0.78      0.00
  -20   22    8      1.85      0.00
   20   22    8     -1.39      0.00
   22   22    8     -1.83      0.00
   24   22    8      2.33      0.00
  -23   23    8      1.45      0.00
  -21   23    8     -0.99      0.00
  -19   23    8     -2.36      0.00
   19   23    8     -1.95      0.00
   21   23    8      1.61      0.00
   23   23    8     -1.36      0.00
  -22   24    8     -1.45      0.00
  -20   24    8      2.84      0.00
  -18   24    8     -1.27      0.00
   16   24    8      2.06      0.00
   18   24    8      2.24      0.00
   20   24    8      0.94      0.00
   22   24    8     -0.10      0.00
  -21   25    8      1.47      0.00
  -19   25    8     -3.51      0.00
  -17   25    8      4.91      0.00
  -15   25    8     -6.49      0.00
   15   25    8     -1.41      0.00
   17   25    8     -2.43      0.00
   19   25    8     -0.89      0.00
   21   25    8     -0.28      0.00
  -18   26    8     -1.78      0.00
  -16   26    8     -0.85      0.00
  -14   26    8      3.93      0.00
  -12   26    8     -2.06      0.00
   12   26    8      1.92      0.00
   14   26    8     -1.17      0.00
   16   26    8      2.46      0.00
   18   26    8     -0.08      0.00
  -17   27    8      4.53      0.00
  -15   27    8     -2.52      0.00
  -13   27    8      0.56      0.00
  -11   27    8     -1.10      0.00
   -9   27    8     -2.13      0.00
    9   27    8      2.35      0.00
   11   27    8     -1.29      0.00
   13   27    8      2.33      0.00
   15   27    8      0.15      0.00
   17   27    8     -0.63      0.00
  -16   28    8     -1.67      0.00
  -14   28    8      0.65      0.00
  -12   28    8     -0.67      0.00
  -10   28    8      1.09      0.00
   -8   28    8      1.89      0.00
   -6   28    8     -0.01      0.00
   -4   28    8      1.06      0.00
   -2   28    8      2.05      0.00
    0   28    8      0.55      0.00
    2   28    8      3.54      0.00
    4   28    8     -1.54      0.00
    6   28    8      1.95      0.00
    8   28    8     -1.92      0.00
   10   28    8     -0.08      0.00
   12   28    8     -1.71      0.00
   14   28    8     -2.84      0.00
  -13   29    8     -0.02      0.00
  -11   29    8      1.01      0.00
   -9   29    8     -0.67      0.00
   -7   29    8     -0.41      0.00
   -5   29    8      1.06      0.00
   -3   29    8     -1.87      0.00
   -1   29    8     -0.29      0.00
    1   29    8     -3.10      0.00
    3   29    8     -0.57      0.00
    5   29    8     -0.51      0.00
    7   29    8     -0.22      0.00
    9   29    8      1.45      0.00
   11   29    8      0.86      0.00
   13   29    8      3.23      0.00
  -10   30    8     -1.39      0.00
   -8   30    8      0.67      0.00
   -6   30    8     -1.19      0.00
   -4   30    8     -0.37      0.00
   -2   30    8      0.13      0.00
    0   30    8      1.09      0.00
    2   30    8      1.87      0.00
    4   30    8     -0.33      0.00
    6   30    8      1.69      0.00
    8   30    8     -0.80      0.00
   10   30    8     -0.74      0.00
  -33    1    9     -0.37      0.00
  -31    1    9     -0.74      0.00
   31    1    9     -1.12      0.00
   33    1    9      0.15      0.00
  -32    2    9      1.06      0.00
   30    2    9     -0.85      0.00
   32    2    9      1.71      0.00
  -33    3    9      0.54      0.00
  -31    3    9     -1.57      0.00
   31    3    9     -2.74      0.00
   33    3    9      0.03      0.00
  -32    4    9      0.26      0.00
  -30    4    9     -1.01      0.00
   30    4    9      0.17      0.00
   32    4    9      1.93      0.00
  -33    5    9      2.13      0.00
  -31    5    9     -1.04      0.00
   31    5    9     -2.18      0.00
   33    5    9      0.06      0.00
  -32    6    9     -0.47      0.00
  -30    6    9     -1.87      0.00
   30    6    9      0.08      0.00
   32    6    9      0.26      0.00
  -33    7    9      1.42      0.00
  -31    7    9     -0.30      0.00
   29    7    9      1.43      0.00
   31    7    9     -0.03      0.00
   33    7    9      0.58      0.00
  -32    8    9     -0.07      0.00
  -30    8    9     -1.73      0.00
   30    8    9     -1.15      0.00
   32    8    9     -0.87      0.00
  -31    9    9     -0.70      0.00
  -29    9    9      2.25      0.00
   29    9    9      1.25      0.00
   31    9    9      0.75      0.00
  -32   10    9      0.25      0.00
  -30   10    9     -0.61      0.00
   28   10    9      1.75      0.00
   30   10    9     -1.22      0.00
   32   10    9     -0.15      0.00
  -31   11    9     -0.74      0.00
  -29   11    9      1.06      0.00
   29   11    9     -0.09      0.00
   31   11    9      0.13      0.00
  -30   12    9     -1.56      0.00
  -28   12    9      1.31      0.00
   28   12    9      3.43      0.00
   30   12    9     -1.42      0.00
  -31   13    9      0.57      0.00
  -29   13    9      1.22      0.00
  -27   13    9     -0.34      0.00
   27   13    9     -3.43      0.00
   29   13    9      1.37      0.00
  -30   14    9     -3.24      0.00
  -28   14    9      2.20      0.00
  -26   14    9     -3.51      0.00
   26   14    9      0.91      0.00
   28   14    9      0.51      0.00
   30   14    9     -2.09      0.00
  -29   15    9      1.18      0.00
  -27   15    9     -0.96      0.00
   25   15    9     -0.08      0.00
   27   15    9     -1.46      0.00
   29   15    9      3.25      0.00
  -28   16    9      1.17      0.00
  -26   16    9     -1.07      0.00
   26   16    9      0.92      0.00
   28   16    9     -1.29      0.00
  -27   17    9     -0.26      0.00
  -25   17    9     -1.29      0.00
   25   17    9     -0.03      0.00
   27   17    9     -0.87      0.00
  -26   18    9      1.73      0.00
  -24   18    9      2.43      0.00
   18   18    9      0.49      0.00
   24   18    9      1.40      0.00
   26   18    9      0.45      0.00
  -27   19    9      0.68      0.00
  -25   19    9     -3.56      0.00
  -23   19    9     -0.92      0.00
   23   19    9     -3.29      0.00
   25   19    9     -0.01      0.00
  -26   20    9      1.23      0.00
  -24   20    9      1.64      0.00
  -22   20    9     -0.86      0.00
   22   20    9      0.93      0.00
   24   20    9      2.39      0.00
  -25   21    9     -0.53      0.00
  -23   21    9      0.98      0.00
  -21   21    9      1.24      0.00
   19   21    9     -6.06      0.00
   21   21    9     -0.43      0.00
   23   21    9     -3.19      0.00
  -24   22    9     -1.39      0.00
  -22   22    9     -2.96      0.00
  -20   22    9      1.14      0.00
  -18   22    9     -0.37      0.00
   18   22    9      2.95      0.00
   20   22    9      5.86      0.00
   22   22    9      1.03      0.00
  -21   23    9      3.18      0.00
  -19   23    9     -1.05      0.00
  -17   23    9      2.83      0.00
   17   23    9     -0.98      0.00
   19   23    9     -6.69      0.00
   21   23    9     -1.89      0.00
  -20   24    9     -2.06      0.00
  -18   24    9     -2.09      0.00
  -16   24    9     -2.38      0.00
   14   24    9      4.72      0.00
   16   24    9      5.70      0.00
   18   24    9      1.04      0.00
   20   24    9      4.54      0.00
  -19   25    9      2.65      0.00
  -17   25    9      2.47      0.00
  -15   25    9      4.37      0.00
  -13   25    9      2.39      0.00
   13   25    9      1.78      0.00
   15   25    9     -6.53      0.00
   17   25    9      0.79      0.00
   19   25    9     -3.17      0.00
  -18   26    9     -1.98      0.00
  -16   26    9     -3.29      0.00
  -14   26    9     -5.09      0.00
  -12   26    9     -1.62      0.00
  -10   26    9     -2.56      0.00
   10   26    9      2.34      0.00
   12   26    9     -1.72      0.00
   14   26    9      1.09      0.00
   16   26    9      1.85      0.00
   18   26    9     -0.32      0.00
  -15   27    9      5.66      0.00
  -13   27    9      2.23      0.00
  -11   27    9      2.25      0.00
   -9   27    9      4.51      0.00
   -7   27    9      5.96      0.00
   -5   27    9      1.03      0.00
    5   27    9     -1.15      0.00
    7   27    9      2.81      0.00
    9   27    9     -0.04      0.00
   11   27    9     -0.08      0.00
   13   27    9      1.83      0.00
   15   27    9     -2.36      0.00
  -14   28    9     -4.04      0.00
  -12   28    9     -1.01      0.00
  -10   28    9     -2.67      0.00
   -8   28    9     -6.52      0.00
   -6   28    9     -2.55      0.00
   -4   28    9     -3.13      0.00
   -2   28    9     -3.55      0.00
    0   28    9      0.95      0.00
    2   28    9     -0.34      0.00
    4   28    9     -0.51      0.00
    6   28    9      0.10      0.00
    8   28    9     -0.88      0.00
   10   28    9      0.15      0.00
   12   28    9     -1.00      0.00
   14   28    9      0.98      0.00
  -11   29    9      0.84      0.00
   -9   29    9      3.37      0.00
   -7   29    9      4.58      0.00
   -5   29    9      0.28      0.00
   -3   29    9      5.55      0.00
   -1   29    9      1.22      0.00
    1   29    9      0.64      0.00
    3   29    9      0.96      0.00
    5   29    9      0.24      0.00
    7   29    9     -0.54      0.00
    9   29    9     -0.47      0.00
   11   29    9      0.77      0.00
   -8   30    9     -3.46      0.00
   -6   30    9     -0.10      0.00
   -4   30    9     -2.01      0.00
   -2   30    9     -3.49      0.00
    0   30    9     -0.89      0.00
    2   30    9     -0.53      0.00
    4   30    9     -1.18      0.00
    6   30    9      1.01      0.00
  -32    0   10      0.43      0.00
  -30    0   10     -2.43      0.00
  -22    0   10      1.71      0.00
   30    0   10     -0.13      0.00
   32    0   10     -1.14      0.00
  -33    1   10     -0.93      0.00
  -31    1   10      1.56      0.00
   29    1   10      2.34      0.00
   31    1   10     -0.42      0.00
   33    1   10      0.95      0.00
  -32    2   10     -0.42      0.00
  -30    2   10     -3.23      0.00
   30    2   10      0.58      0.00
   32    2   10     -1.44      0.00
  -33    3   10      0.01      0.00
  -31    3   10      3.12      0.00
   29    3   10      1.09      0.00
   31    3   10     -0.13      0.00
  -32    4   10     -0.70      0.00
  -30    4   10     -4.43      0.00
   30    4   10      0.60      0.00
   32    4   10     -2.07      0.00
  -33    5   10     -1.05      0.00
  -31    5   10      3.66      0.00
  -29    5   10     -0.26      0.00
   29    5   10      1.29      0.00
   31    5   10      0.90      0.00
  -32    6   10      0.46      0.00
  -30    6   10     -3.83      0.00
   30    6   10     -0.48      0.00
   32    6   10     -1.87      0.00
  -31    7   10      2.49      0.00
  -29    7   10     -1.36      0.00
   29    7   10      0.58      0.00
   31    7   10      1.31      0.00
  -32    8   10      0.36      0.00
  -30    8   10     -1.52      0.00
  -28    8   10      3.42      0.00
   28    8   10      0.70      0.00
   30    8   10     -0.39      0.00
  -31    9   10      1.00      0.00
  -29    9   10     -1.13      0.00
   29    9   10     -1.49      0.00
   31    9   10      1.00      0.00
  -30   10   10      0.08      0.00
  -28   10   10      0.23      0.00
   28   10   10      1.84      0.00
   30   10   10     -0.20      0.00
  -31   11   10     -0.18      0.00
  -29   11   10      0.55      0.00
  -27   11   10     -0.14      0.00
   27   11   10      0.62      0.00
   29   11   10     -0.89      0.00
  -30   12   10      0.74      0.00
  -28   12   10     -2.14      0.00
   26   12   10     -0.43      0.00
   28   12   10     -0.67      0.00
   30   12   10     -0.51      0.00
  -29   13   10      0.98      0.00
  -27   13   10     -0.63      0.00
   27   13   10      1.72      0.00
   29   13   10      0.96      0.00
  -28   14   10     -2.62      0.00
  -26   14   10      5.08      0.00
   26   14   10      0.29      0.00
   28   14   10     -2.46      0.00
  -29   15   10     -0.47      0.00
  -27   15   10     -0.36      0.00
  -25   15   10     -3.84      0.00
   25   15   10     -0.42      0.00
   27   15   10      1.78      0.00
  -28   16   10     -1.96      0.00
  -26   16   10      4.72      0.00
  -24   16   10      0.55      0.00
   24   16   10     -0.55      0.00
   26   16   10     -0.64      0.00
   28   16   10     -1.04      0.00
  -27   17   10      0.39      0.00
  -25   17   10     -4.20      0.00
  -23   17   10     -1.08      0.00
   23   17   10     -0.68      0.00
   25   17   10      1.63      0.00
   27   17   10      0.51      0.00
  -26   18   10      2.04      0.00
  -24   18   10      1.73      0.00
  -22   18   10      0.78      0.00
   22   18   10      1.07      0.00
   24   18   10     -1.80      0.00
   26   18   10     -0.56      0.00
  -25   19   10     -0.96      0.00
  -23   19   10      0.25      0.00
  -21   19   10     -0.42      0.00
   21   19   10     -1.21      0.00
   23   19   10      0.49      0.00
   25   19   10      1.60      0.00
  -24   20   10     -0.91      0.00
  -22   20   10     -2.37      0.00
  -20   20   10      3.75      0.00
   20   20   10      2.40      0.00
   22   20   10      1.18      0.00
   24   20   10     -2.28      0.00
  -23   21   10      2.12      0.00
  -21   21   10      0.87      0.00
  -19   21   10     -3.57      0.00
   19   21   10     -1.73      0.00
   21   21   10     -2.65      0.00
   23   21   10      1.69      0.00
  -22   22   10     -1.56      0.00
  -20   22   10      1.23      0.00
  -18   22   10     -0.03      0.00
   16   22   10      1.16      0.00
   18   22   10     -0.05      0.00
   20   22   10      2.00      0.00
   22   22   10     -0.02      0.00
  -21   23   10     -1.02      0.00
  -19   23   10      0.73      0.00
  -17   23   10      0.30      0.00
  -15   23   10      1.77      0.00
   15   23   10     -0.18      0.00
   17   23   10      1.61      0.00
   19   23   10     -0.48      0.00
   21   23   10     -0.44      0.00
  -20   24   10      0.91      0.00
  -18   24   10     -0.71      0.00
  -16   24   10     -0.92      0.00
  -14   24   10     -0.89      0.00
   12   24   10      0.34      0.00
   14   24   10     -1.22      0.00
   16   24   10     -3.01      0.00
   18   24   10     -0.71      0.00
  -17   25   10     -1.58      0.00
  -15   25   10      2.49      0.00
  -13   25   10     -2.21      0.00
  -11   25   10      1.31      0.00
   11   25   10     -0.97      0.00
   13   25   10      1.05      0.00
   15   25   10      2.83      0.00
   17   25   10      2.45      0.00
  -16   26   10      0.90      0.00
  -14   26   10     -0.68      0.00
  -12   26   10      2.13      0.00
  -10   26   10     -2.20      0.00
   -8   26   10     -1.58      0.00
   -6   26   10     -2.35      0.00
    6   26   10      1.56      0.00
    8   26   10     -2.38      0.00
   10   26   10     -0.35      0.00
   12   26   10      0.17      0.00
   14   26   10     -1.38      0.00
   16   26   10     -2.69      0.00
  -13   27   10     -1.04      0.00
  -11   27   10     -0.72      0.00
   -9   27   10      1.45      0.00
   -7   27   10      1.30      0.00
   -5   27   10     -0.03      0.00
   -3   27   10      4.29      0.00
   -1   27   10      2.17      0.00
    1   27   10      0.65      0.00
    3   27   10      4.35      0.00
    5   27   10      0.71      0.00
    7   27   10      0.03      0.00
    9   27   10      0.91      0.00
   11   27   10     -0.26      0.00
   13   27   10     -0.34      0.00
  -12   28   10      0.78      0.00
  -10   28   10      0.49      0.00
   -8   28   10     -0.88      0.00
   -6   28   10      1.42      0.00
   -4   28   10     -1.98      0.00
   -2   28   10     -3.78      0.00
    0   28   10     -1.55      0.00
    2   28   10     -3.38      0.00
    4   28   10     -2.62      0.00
    6   28   10     -0.04      0.00
    8   28   10      0.22      0.00
   10   28   10     -0.54      0.00
   12   28   10      1.64      0.00
   -9   29   10      0.14      0.00
   -7   29   10     -1.14      0.00
   -5   29   10     -1.10      0.00
   -3   29   10      2.79      0.00
   -1   29   10      1.19      0.00
    1   29   10      2.31      0.00
    3   29   10      2.82      0.00
    5   29   10      0.34      0.00
    7   29   10     -0.17      0.00
   -2   30   10     -0.20      0.00
    0   30   10     -0.44      0.00
    2   30   10     -2.29      0.00
  -31    1   11      0.51      0.00
  -29    1   11     -0.23      0.00
   29    1   11     -0.52      0.00
   31    1   11      0.48      0.00
  -32    2   11     -0.21      0.00
  -30    2   11     -0.35      0.00
   28    2   11     -0.30      0.00
   30    2   11      0.12      0.00
   32    2   11     -0.92      0.00
  -31    3   11      0.05      0.00
  -29    3   11     -1.18      0.00
   29    3   11     -0.42      0.00
   31    3   11      1.45      0.00
  -32    4   11      0.92      0.00
  -30    4   11      1.31      0.00
  -28    4   11      0.59      0.00
   28    4   11     -0.05      0.00
   30    4   11     -0.95      0.00
  -31    5   11     -1.20      0.00
  -29    5   11     -2.15      0.00
   29    5   11     -0.11      0.00
   31    5   11      1.52      0.00
  -30    6   11      2.68      0.00
  -28    6   11     -0.90      0.00
   28    6   11      1.32      0.00
   30    6   11     -1.22      0.00
  -31    7   11     -0.67      0.00
  -29    7   11     -1.67      0.00
   27    7   11     -0.93      0.00
   29    7   11     -0.98      0.00
   31    7   11      0.93      0.00
  -30    8   11      1.85      0.00
  -28    8   11     -2.30      0.00
   28    8   11      2.20      0.00
   30    8   11     -0.99      0.00
  -31    9   11      0.35      0.00
  -29    9   11     -0.36      0.00
  -27    9   11      0.58      0.00
   27    9   11     -0.50      0.00
   29    9   11     -1.05      0.00
  -30   10   11      0.42      0.00
  -28   10   11     -1.91      0.00
   26   10   11     -0.26      0.00
   28   10   11      1.25      0.00
   30   10   11     -0.92      0.00
  -29   11   11      0.12      0.00
  -27   11   11     -1.16      0.00
   27   11   11      0.10      0.00
   29   11   11     -0.61      0.00
  -28   12   11     -0.74      0.00
  -26   12   11      4.13      0.00
   26   12   11      0.29      0.00
   28   12   11      0.19      0.00
  -29   13   11     -0.09      0.00
  -27   13   11     -1.48      0.00
  -25   13   11      0.57      0.00
   25   13   11     -0.66      0.00
   27   13   11      1.05      0.00
  -28   14   11     -0.56      0.00
  -26   14   11      2.47      0.00
  -24   14   11     -4.46      0.00
   24   14   11     -0.07      0.00
   26   14   11     -1.13      0.00
   28   14   11      0.31      0.00
  -27   15   11      0.04      0.00
  -25   15   11      0.39      0.00
  -23   15   11      0.77      0.00
   23   15   11      1.05      0.00
   25   15   11      0.73      0.00
   27   15   11      1.24      0.00
  -26   16   11      0.12      0.00
  -24   16   11     -1.99      0.00
  -22   16   11      2.21      0.00
   22   16   11     -2.00      0.00
   24   16   11     -0.96      0.00
   26   16   11     -1.34      0.00
  -25   17   11      0.89      0.00
  -23   17   11      1.99      0.00
  -21   17   11     -2.00      0.00
   21   17   11      1.08      0.00
   23   17   11      1.90      0.00
   25   17   11      0.43      0.00
  -24   18   11     -2.19      0.00
  -22   18   11     -2.05      0.00
  -20   18   11      2.17      0.00
   20   18   11     -0.19      0.00
   22   18   11     -1.11      0.00
   24   18   11     -0.84      0.00
  -23   19   11      3.23      0.00
  -21   19   11      0.31      0.00
  -19   19   11     -0.63      0.00
   19   19   11      0.89      0.00
   21   19   11     -0.08      0.00
   23   19   11      1.53      0.00
  -22   20   11     -1.23      0.00
  -20   20   11     -0.24      0.00
  -18   20   11     -0.85      0.00
   18   20   11      0.53      0.00
   20   20   11     -1.75      0.00
   22   20   11     -0.76      0.00
  -21   21   11     -1.21      0.00
  -19   21   11      1.77      0.00
  -17   21   11      0.20      0.00
   17   21   11     -0.69      0.00
   19   21   11      1.77      0.00
   21   21   11      1.75      0.00
  -20   22   11     -0.22      0.00
  -18   22   11      0.52      0.00
  -16   22   11     -0.49      0.00
   14   22   11     -3.29      0.00
   16   22   11     -4.96      0.00
   18   22   11      1.59      0.00
   20   22   11     -3.73      0.00
  -19   23   11      0.12      0.00
  -17   23   11     -2.80      0.00
  -15   23   11      0.23      0.00
  -13   23   11     -1.03      0.00
   13   23   11     -1.94      0.00
   15   23   11      8.09      0.00
   17   23   11     -0.79      0.00
   19   23   11      2.03      0.00
  -18   24   11      2.72      0.00
  -16   24   11      2.37      0.00
  -14   24   11      0.91      0.00
  -12   24   11      2.40      0.00
  -10   24   11      3.53      0.00
   10   24   11      0.82      0.00
   12   24   11      1.60      0.00
   14   24   11     -3.22      0.00
   16   24   11     -3.87      0.00
   18   24   11      1.03      0.00
  -17   25   11     -2.72      0.00
  -15   25   11     -2.60      0.00
  -13   25   11     -0.58      0.00
  -11   25   11     -4.90      0.00
   -9   25   11     -2.77      0.00
   -7   25   11     -0.65      0.00
    5   25   11     -0.85      0.00
    7   25   11     -1.08      0.00
    9   25   11     -4.38      0.00
   11   25   11      1.38      0.00
   13   25   11     -1.44      0.00
   15   25   11      4.68      0.00
  -14   26   11      1.60      0.00
  -12   26   11      1.58      0.00
  -10   26   11      5.76      0.00
   -8   26   11      2.67      0.00
   -6   26   11      1.72      0.00
   -4   26   11      3.83      0.00
   -2   26   11      0.71      0.00
    0   26   11     -2.92      0.00
    2   26   11      2.30      0.00
    4   26   11      3.04      0.00
    6   26   11     -1.96      0.00
    8   26   11      4.76      0.00
   10   26   11      0.20      0.00
   12   26   11      0.48      0.00
   14   26   11     -1.24      0.00
  -11   27   11     -3.75      0.00
   -9   27   11     -4.58      0.00
   -7   27   11     -2.85      0.00
   -5   27   11     -2.86      0.00
   -3   27   11     -4.94      0.00
   -1   27   11      2.27      0.00
    1   27   11     -0.49      0.00
    3   27   11     -3.20      0.00
    5   27   11     -0.51      0.00
    7   27   11     -0.21      0.00
    9   27   11     -3.27      0.00
   11   27   11      0.86      0.00
   -8   28   11      3.48      0.00
   -6   28   11      1.87      0.00
   -4   28   11      4.93      0.00
   -2   28   11      2.34      0.00
    0   28   11     -0.04      0.00
    2   28   11      1.77      0.00
    4   28   11      3.52      0.00
    6   28   11     -1.34      0.00
    8   28   11      2.04      0.00
   -3   29   11     -4.71      0.00
   -1   29   11     -1.03      0.00
    1   29   11     -1.92      0.00
    3   29   11     -2.32      0.00
  -30    0   12      0.52      0.00
  -28    0   12     -0.71      0.00
   28    0   12      1.49      0.00
   30    0   12     -1.32      0.00
  -31    1   12     -2.05      0.00
  -29    1   12      1.26      0.00
   27    1   12     -1.97      0.00
   29    1   12     -0.47      0.00
   31    1   12      1.29      0.00
  -30    2   12      1.78      0.00
  -28    2   12     -0.95      0.00
   28    2   12      1.89      0.00
   30    2   12     -1.30      0.00
  -31    3   12     -2.43      0.00
  -29    3   12     -0.14      0.00
  -27    3   12     -0.32      0.00
   27    3   12     -1.80      0.00
   29    3   12     -1.15      0.00
  -30    4   12      2.90      0.00
  -28    4   12     -2.02      0.00
   28    4   12      2.25      0.00
   30    4   12     -0.56      0.00
  -31    5   12     -1.27      0.00
  -29    5   12     -0.24      0.00
  -27    5   12      1.13      0.00
   27    5   12     -0.57      0.00
   29    5   12     -1.90      0.00
  -30    6   12      1.91      0.00
  -28    6   12     -2.85      0.00
   26    6   12     -0.82      0.00
   28    6   12      1.69      0.00
   30    6   12      0.00      0.00
  -29    7   12      0.42      0.00
  -27    7   12      1.30      0.00
   27    7   12     -0.19      0.00
   29    7   12     -1.09      0.00
  -30    8   12      0.61      0.00
  -28    8   12     -1.36      0.00
  -26    8   12      0.93      0.00
   26    8   12      0.56      0.00
   28    8   12      0.88      0.00
  -29    9   12      0.46      0.00
  -27    9   12     -0.45      0.00
   25    9   12      0.22      0.00
   27    9   12     -1.61      0.00
   29    9   12      0.50      0.00
  -28   10   12      1.00      0.00
  -26   10   12     -0.69      0.00
   26   10   12      2.04      0.00
   28   10   12      0.53      0.00
  -29   11   12      0.77      0.00
  -27   11   12     -1.29      0.00
  -25   11   12      3.49      0.00
   25   11   12      0.39      0.00
   27   11   12     -2.02      0.00
  -28   12   12      1.26      0.00
  -26   12   12     -2.45      0.00
  -24   12   12     -0.69      0.00
   24   12   12     -2.02      0.00
   26   12   12      1.04      0.00
   28   12   12      0.37      0.00
  -27   13   12      0.38      0.00
  -25   13   12      3.08      0.00
  -23   13   12     -3.98      0.00
   23   13   12      1.78      0.00
   25   13   12      0.95      0.00
   27   13   12     -0.89      0.00
  -26   14   12     -3.32      0.00
  -24   14   12      1.25      0.00
   22   14   12     -1.73      0.00
   24   14   12     -1.39      0.00
   26   14   12      0.08      0.00
  -25   15   12      0.86      0.00
  -23   15   12     -0.94      0.00
   21   15   12     -0.15      0.00
   23   15   12      1.84      0.00
   25   15   12     -0.14      0.00
  -26   16   12     -1.62      0.00
  -24   16   12      1.09      0.00
  -22   16   12     -3.36      0.00
   20   16   12      1.41      0.00
   22   16   12     -0.87      0.00
   24   16   12     -0.16      0.00
  -25   17   12     -1.46      0.00
  -23   17   12      2.54      0.00
  -21   17   12      2.95      0.00
   19   17   12      1.27      0.00
   21   17   12     -1.60      0.00
   23   17   12      1.33      0.00
  -24   18   12      0.53      0.00
  -22   18   12     -3.03      0.00
  -20   18   12     -1.75      0.00
   18   18   12     -2.25      0.00
   20   18   12      1.01      0.00
   22   18   12     -0.66      0.00
   24   18   12      0.80      0.00
  -23   19   12      1.49      0.00
  -21   19   12      0.03      0.00
  -19   19   12      3.02      0.00
  -17   19   12      1.64      0.00
   17   19   12      0.16      0.00
   19   19   12      1.16      0.00
   21   19   12     -0.59      0.00
   23   19   12      0.85      0.00
  -22   20   12      0.74      0.00
  -20   20   12     -1.05      0.00
  -18   20   12     -1.42      0.00
  -16   20   12     -1.02      0.00
   16   20   12     -0.21      0.00
   18   20   12     -1.05      0.00
   20   20   12      0.50      0.00
   22   20   12     -0.80      0.00
  -21   21   12     -1.28      0.00
  -19   21   12      1.53      0.00
  -17   21   12     -0.68      0.00
  -15   21   12      0.73      0.00
   15   21   12      1.53      0.00
   17   21   12     -0.07      0.00
   19   21   12      0.54      0.00
  -18   22   12      0.73      0.00
  -16   22   12      0.33      0.00
  -14   22   12     -0.35      0.00
  -12   22   12     -1.07      0.00
   12   22   12     -0.02      0.00
   14   22   12     -0.78      0.00
   16   22   12      0.51      0.00
   18   22   12     -1.27      0.00
  -17   23   12     -0.11      0.00
  -15   23   12     -0.83      0.00
  -13   23   12      1.48      0.00
  -11   23   12     -0.76      0.00
   -9   23   12      1.36      0.00
    9   23   12     -3.13      0.00
   11   23   12      2.54      0.00
   13   23   12     -0.21      0.00
   15   23   12     -0.38      0.00
   17   23   12     -0.30      0.00
  -16   24   12     -1.03      0.00
  -14   24   12      0.80      0.00
  -12   24   12     -2.01      0.00
  -10   24   12      2.22      0.00
   -8   24   12     -1.50      0.00
   -6   24   12      3.89      0.00
    4   24   12      1.78      0.00
    6   24   12     -2.25      0.00
    8   24   12      4.73      0.00
   10   24   12     -1.91      0.00
   12   24   12     -1.11      0.00
   14   24   12      0.69      0.00
   16   24   12      2.19      0.00
  -13   25   12      1.20      0.00
  -11   25   12      0.26      0.00
   -9   25   12     -1.20      0.00
   -7   25   12     -0.95      0.00
   -5   25   12     -4.01      0.00
   -3   25   12      3.60      0.00
   -1   25   12     -0.87      0.00
    1   25   12     -0.54      0.00
    3   25   12     -1.29      0.00
    5   25   12      1.27      0.00
    7   25   12     -1.48      0.00
    9   25   12     -1.13      0.00
   11   25   12      2.43      0.00
   13   25   12     -1.02      0.00
  -12   26   12     -2.20      0.00
  -10   26   12      0.83      0.00
   -8   26   12      0.01      0.00
   -6   26   12      3.52      0.00
   -4   26   12      0.92      0.00
   -2   26   12     -1.46      0.00
    0   26   12      3.68      0.00
    2   26   12     -0.12      0.00
    4   26   12      1.09      0.00
    6   26   12     -0.28      0.00
    8   26   12      1.82      0.00
   10   26   12     -1.60      0.00
   12   26   12      0.16      0.00
   -9   27   12     -0.35      0.00
   -7   27   12     -0.64      0.00
   -5   27   12     -3.11      0.00
   -3   27   12      0.99      0.00
   -1   27   12     -3.12      0.00
    1   27   12     -2.82      0.00
    3   27   12     -0.09      0.00
    5   27   12     -0.64      0.00
    7   27   12     -1.80      0.00
    9   27   12      0.70      0.00
   -4   28   12      0.96      0.00
   -2   28   12      0.42      0.00
    0   28   12      4.87      0.00
    2   28   12      0.87      0.00
    4   28   12     -0.23      0.00
  -29    1   13     -0.48      0.00
  -27    1   13      0.47      0.00
   27    1   13     -0.98      0.00
   29    1   13     -0.28      0.00
  -30    2   13      0.61      0.00
  -28    2   13     -0.55      0.00
  -26    2   13      0.61      0.00
   26    2   13     -0.69      0.00
   28    2   13      1.92      0.00
  -29    3   13      0.01      0.00
  -27    3   13      1.13      0.00
   27    3   13     -1.20      0.00
   29    3   13     -0.56      0.00
  -30    4   13     -0.75      0.00
  -28    4   13     -0.77      0.00
  -26    4   13     -0.30      0.00
   26    4   13     -1.25      0.00
   28    4   13      1.36      0.00
  -29    5   13      1.18      0.00
  -27    5   13      0.49      0.00
   25    5   13      0.14      0.00
   27    5   13      0.16      0.00
   29    5   13     -0.21      0.00
  -28    6   13      0.60      0.00
  -26    6   13     -1.97      0.00
   26    6   13     -0.56      0.00
   28    6   13     -0.09      0.00
  -29    7   13      0.77      0.00
  -27    7   13     -0.81      0.00
  -25    7   13      2.68      0.00
   25    7   13     -0.83      0.00
   27    7   13      0.13      0.00
  -28    8   13      1.72      0.00
  -26    8   13     -2.61      0.00
   24    8   13     -0.03      0.00
   26    8   13      1.12      0.00
   28    8   13     -0.67      0.00
  -27    9   13     -0.41      0.00
  -25    9   13      2.19      0.00
   25    9   13     -0.97      0.00
   27    9   13     -0.63      0.00
  -28   10   13      0.60      0.00
  -26   10   13     -2.71      0.00
  -24   10   13      2.38      0.00
   24   10   13     -0.47      0.00
   26   10   13      1.30      0.00
  -27   11   13      1.74      0.00
  -25   11   13     -0.22      0.00
  -23   11   13     -1.59      0.00
   23   11   13     -0.17      0.00
   25   11   13      0.19      0.00
   27   11   13     -0.33      0.00
  -26   12   13     -2.78      0.00
  -24   12   13      4.26      0.00
  -22   12   13     -3.68      0.00
   22   12   13      2.14      0.00
   24   12   13     -0.72      0.00
   26   12   13     -0.06      0.00
  -25   13   13     -2.10      0.00
  -23   13   13      0.41      0.00
   21   13   13     -2.18      0.00
   23   13   13     -1.13      0.00
   25   13   13      0.99      0.00
  -26   14   13     -1.26      0.00
  -24   14   13      4.24      0.00
  -22   14   13     -7.29      0.00
   20   14   13     -1.08      0.00
   22   14   13      2.83      0.00
   24   14   13      0.12      0.00
  -25   15   13     -2.62      0.00
  -23   15   13      1.45      0.00
  -21   15   13      6.16      0.00
   21   15   13     -1.51      0.00
   23   15   13     -2.06      0.00
  -24   16   13      2.62      0.00
  -22   16   13     -5.03      0.00
  -20   16   13     -1.41      0.00
   20   16   13     -1.29      0.00
   22   16   13      1.65      0.00
   24   16   13      1.15      0.00
  -23   17   13     -0.10      0.00
  -21   17   13      2.76      0.00
  -19   17   13     -1.27      0.00
   17   17   13     -2.58      0.00
   19   17   13      0.79      0.00
   21   17   13      0.45      0.00
   23   17   13     -1.41      0.00
  -22   18   13     -0.19      0.00
  -20   18   13     -0.46      0.00
  -18   18   13      2.45      0.00
   16   18   13      0.81      0.00
   18   18   13      1.39      0.00
   20   18   13     -0.12      0.00
   22   18   13     -0.38      0.00
  -21   19   13      0.45      0.00
  -19   19   13     -1.32      0.00
  -17   19   13     -1.69      0.00
  -15   19   13      0.82      0.00
   15   19   13     -0.46      0.00
   17   19   13     -1.00      0.00
   19   19   13     -1.38      0.00
   21   19   13      0.69      0.00
  -20   20   13     -0.22      0.00
  -18   20   13      2.06      0.00
  -16   20   13      0.28      0.00
  -14   20   13      0.54      0.00
   14   20   13      1.58      0.00
   16   20   13      0.41      0.00
   18   20   13      0.31      0.00
   20   20   13      1.06      0.00
  -19   21   13     -1.18      0.00
  -17   21   13     -0.50      0.00
  -15   21   13     -0.12      0.00
  -13   21   13     -0.47      0.00
  -11   21   13      1.40      0.00
   11   21   13      5.42      0.00
   13   21   13      0.25      0.00
   15   21   13     -1.14      0.00
   17   21   13      0.71      0.00
   19   21   13     -0.62      0.00
  -18   22   13      0.25      0.00
  -16   22   13     -0.62      0.00
  -14   22   13      0.26      0.00
  -12   22   13     -1.12      0.00
  -10   22   13      0.15      0.00
   -8   22   13      4.44      0.00
    8   22   13      0.31      0.00
   10   22   13     -5.30      0.00
   12   22   13     -2.99      0.00
   14   22   13      0.71      0.00
   16   22   13      0.28      0.00
  -15   23   13      0.95      0.00
  -13   23   13      0.03      0.00
  -11   23   13      2.80      0.00
   -9   23   13     -3.69      0.00
   -7   23   13     -1.71      0.00
   -5   23   13      0.61      0.00
   -3   23   13     -0.25      0.00
    1   23   13      2.21      0.00
    3   23   13     -0.31      0.00
    5   23   13      4.83      0.00
    7   23   13      0.85      0.00
    9   23   13      4.38      0.00
   11   23   13      3.41      0.00
   13   23   13      0.44      0.00
   15   23   13     -0.92      0.00
  -14   24   13     -0.83      0.00
  -12   24   13     -1.90      0.00
  -10   24   13     -1.22      0.00
   -8   24   13      3.49      0.00
   -6   24   13     -1.71      0.00
   -4   24   13      0.08      0.00
   -2   24   13      0.43      0.00
    0   24   13     -2.41      0.00
    2   24   13     -1.26      0.00
    4   24   13     -3.35      0.00
    6   24   13     -1.75      0.00
    8   24   13     -3.55      0.00
   10   24   13     -3.62      0.00
   12   24   13     -0.23      0.00
   14   24   13      0.76      0.00
  -11   25   13      3.88      0.00
   -9   25   13     -1.76      0.00
   -7   25   13      0.80      0.00
   -5   25   13      1.60      0.00
   -3   25   13     -0.26      0.00
   -1   25   13     -0.14      0.00
    1   25   13      2.80      0.00
    3   25   13      2.03      0.00
    5   25   13      2.63      0.00
    7   25   13      0.74      0.00
    9   25   13      4.78      0.00
   11   25   13     -0.20      0.00
   -8   26   13      0.90      0.00
   -6   26   13     -2.86      0.00
   -4   26   13     -0.99      0.00
   -2   26   13      0.88      0.00
    0   26   13     -1.37      0.00
    2   26   13     -1.72      0.00
    4   26   13     -3.28      0.00
    6   26   13      1.00      0.00
    8   26   13     -3.47      0.00
   -3   27   13      0.50      0.00
   -1   27   13     -0.58      0.00
    1   27   13      2.21      0.00
    3   27   13      1.64      0.00
  -28    0   14     -0.82      0.00
  -26    0   14     -1.79      0.00
   24    0   14      4.53      0.00
   26    0   14     -0.61      0.00
   28    0   14      1.10      0.00
  -29    1   14     -1.18      0.00
  -27    1   14      3.77      0.00
  -25    1   14     -2.70      0.00
   25    1   14     -1.68      0.00
   27    1   14     -0.41      0.00
  -28    2   14     -0.98      0.00
  -26    2   14     -1.83      0.00
   24    2   14      3.43      0.00
   26    2   14     -0.71      0.00
   28    2   14      0.36      0.00
  -27    3   14      2.49      0.00
  -25    3   14     -0.73      0.00
   25    3   14     -1.27      0.00
   27    3   14      0.43      0.00
  -28    4   14     -0.48      0.00
  -26    4   14     -1.64      0.00
  -24    4   14      0.36      0.00
   24    4   14      2.02      0.00
   26    4   14     -0.82      0.00
   28    4   14     -0.39      0.00
  -27    5   14      0.43      0.00
  -25    5   14      1.23      0.00
   23    5   14      0.35      0.00
   25    5   14     -0.71      0.00
   27    5   14      0.41      0.00
  -28    6   14      0.33      0.00
  -26    6   14     -0.64      0.00
  -24    6   14     -1.52      0.00
   24    6   14      2.29      0.00
   26    6   14     -0.33      0.00
  -27    7   14     -0.46      0.00
  -25    7   14      1.13      0.00
  -23    7   14      1.76      0.00
   23    7   14     -2.41      0.00
   25    7   14     -0.82      0.00
   27    7   14     -0.21      0.00
  -26    8   14     -0.04      0.00
  -24    8   14     -1.54      0.00
   22    8   14      1.54      0.00
   24    8   14      2.55      0.00
   26    8   14      0.27      0.00
  -27    9   14      0.62      0.00
  -25    9   14      0.04      0.00
  -23    9   14      2.14      0.00
   23    9   14     -2.02      0.00
   25    9   14     -0.76      0.00
  -26   10   14     -0.90      0.00
  -24   10   14      0.08      0.00
  -22   10   14     -2.08      0.00
   22   10   14      0.26      0.00
   24   10   14      1.33      0.00
   26   10   14     -0.12      0.00
  -25   11   14     -0.42      0.00
  -23   11   14      1.48      0.00
  -21   11   14      1.36      0.00
   21   11   14     -0.65      0.00
   23   11   14     -0.57      0.00
   25   11   14     -0.01      0.00
  -24   12   14      1.37      0.00
  -22   12   14     -3.35      0.00
   20   12   14      0.51      0.00
   22   12   14      0.33      0.00
   24   12   14      0.30      0.00
  -25   13   14     -0.47      0.00
  -23   13   14      0.09      0.00
  -21   13   14      3.26      0.00
   19   13   14      0.71      0.00
   21   13   14     -0.69      0.00
   23   13   14     -0.46      0.00
  -24   14   14      0.97      0.00
  -22   14   14     -0.66      0.00
  -20   14   14     -2.91      0.00
   18   14   14     -0.11      0.00
   20   14   14      0.26      0.00
   22   14   14      0.35      0.00
   24   14   14      0.32      0.00
  -23   15   14     -1.48      0.00
  -21   15   14      0.04      0.00
  -19   15   14      2.33      0.00
   17   15   14      0.48      0.00
   19   15   14     -1.18      0.00
   21   15   14      0.17      0.00
   23   15   14     -0.30      0.00
  -22   16   14      3.22      0.00
  -20   16   14     -1.33      0.00
  -18   16   14      0.51      0.00
   16   16   14     -0.78      0.00
   18   16   14      1.53      0.00
   20   16   14      1.04      0.00
   22   16   14     -0.49      0.00
  -21   17   14     -2.06      0.00
  -19   17   14      1.71      0.00
  -17   17   14     -3.17      0.00
  -15   17   14      0.95      0.00
   15   17   14     -3.25      0.00
   17   17   14      1.05      0.00
   19   17   14     -2.99      0.00
   21   17   14      0.32      0.00
  -20   18   14     -0.78      0.00
  -18   18   14      0.53      0.00
  -16   18   14      2.63      0.00
  -14   18   14     -1.18      0.00
   14   18   14      5.77      0.00
   16   18   14     -0.98      0.00
   18   18   14      1.17      0.00
   20   18   14      1.55      0.00
  -19   19   14      0.83      0.00
  -17   19   14     -1.89      0.00
  -15   19   14     -0.63      0.00
  -13   19   14     -0.88      0.00
   13   19   14     -1.56      0.00
   15   19   14     -2.69      0.00
   17   19   14      2.11      0.00
   19   19   14     -1.75      0.00
  -18   20   14     -0.20      0.00
  -16   20   14      1.44      0.00
  -14   20   14      0.37      0.00
  -12   20   14      1.94      0.00
  -10   20   14      1.19      0.00
   10   20   14     -2.98      0.00
   12   20   14     -3.12      0.00
   14   20   14      3.27      0.00
   16   20   14     -1.72      0.00
   18   20   14     -0.31      0.00
  -17   21   14      0.04      0.00
  -15   21   14     -0.53      0.00
  -13   21   14     -1.68      0.00
  -11   21   14     -0.78      0.00
   -9   21   14     -3.19      0.00
   -7   21   14     -2.01      0.00
    7   21   14      1.42      0.00
    9   21   14      1.23      0.00
   11   21   14      2.40      0.00
   13   21   14     -0.55      0.00
   15   21   14     -0.68      0.00
  -14   22   14      0.31      0.00
  -12   22   14      1.83      0.00
  -10   22   14      0.56      0.00
   -8   22   14      4.01      0.00
   -6   22   14     -1.64      0.00
   -4   22   14      4.24      0.00
   -2   22   14      1.71      0.00
    0   22   14     -3.61      0.00
    2   22   14      2.30      0.00
    4   22   14     -1.07      0.00
    6   22   14     -0.88      0.00
    8   22   14     -2.40      0.00
   10   22   14     -0.28      0.00
   12   22   14      0.10      0.00
   14   22   14      1.24      0.00
  -13   23   14     -1.27      0.00
  -11   23   14     -0.43      0.00
   -9   23   14     -1.94      0.00
   -7   23   14     -0.67      0.00
   -5   23   14      0.41      0.00
   -3   23   14     -5.29      0.00
   -1   23   14      2.90      0.00
    1   23   14      0.39      0.00
    3   23   14     -0.11      0.00
    5   23   14      0.47      0.00
    7   23   14      0.91      0.00
    9   23   14      1.34      0.00
   11   23   14     -1.90      0.00
   13   23   14     -0.55      0.00
  -10   24   14     -0.63      0.00
   -8   24   14      2.02      0.00
   -6   24   14     -1.97      0.00
   -4   24   14      3.49      0.00
   -2   24   14      1.02      0.00
    0   24   14     -2.37      0.00
    2   24   14      1.78      0.00
    4   24   14     -1.77      0.00
    6   24   14      1.76      0.00
    8   24   14     -1.68      0.00
   10   24   14      1.59      0.00
   -7   25   14     -0.36      0.00
   -5   25   14      0.44      0.00
   -3   25   14     -3.13      0.00
   -1   25   14      1.96      0.00
    1   25   14     -1.31      0.00
    3   25   14      0.16      0.00
    5   25   14     -0.41      0.00
    7   25   14     -0.50      0.00
   -2   26   14      0.07      0.00
    0   26   14     -0.94      0.00
  -27    1   15     -0.52      0.00
  -25    1   15      1.12      0.00
  -23    1   15      0.05      0.00
   23    1   15      2.90      0.00
   25    1   15     -0.65      0.00
   27    1   15      0.55      0.00
  -26    2   15     -0.21      0.00
  -24    2   15     -1.59      0.00
   22    2   15     -2.37      0.00
   24    2   15     -2.15      0.00
   26    2   15      1.25      0.00
  -27    3   15     -1.07      0.00
  -25    3   15      2.10      0.00
  -23    3   15      0.78      0.00
   23    3   15      3.25      0.00
   25    3   15     -1.14      0.00
  -26    4   15     -0.10      0.00
  -24    4   15     -1.82      0.00
  -22    4   15     -1.97      0.00
   22    4   15      1.14      0.00
   24    4   15     -0.87      0.00
   26    4   15      1.04      0.00
  -27    5   15     -0.45      0.00
  -25    5   15      0.69      0.00
  -23    5   15      2.25      0.00
   23    5   15     -1.75      0.00
   25    5   15     -0.32      0.00
  -26    6   15      0.26      0.00
  -24    6   15     -0.92      0.00
  -22    6   15     -2.54      0.00
   22    6   15      3.50      0.00
   24    6   15      0.56      0.00
   26    6   15      0.24      0.00
  -25    7   15     -0.67      0.00
  -23    7   15      2.39      0.00
  -21    7   15     -1.09      0.00
   21    7   15      0.96      0.00
   23    7   15     -2.91      0.00
   25    7   15      1.00      0.00
  -26    8   15      0.18      0.00
  -24    8   15     -0.31      0.00
  -22    8   15     -1.17      0.00
   20    8   15     -2.80      0.00
   22    8   15      0.88      0.00
   24    8   15     -0.36      0.00
  -25    9   15     -0.17      0.00
  -23    9   15      0.53      0.00
  -21    9   15     -0.70      0.00
   21    9   15      3.09      0.00
   23    9   15     -0.40      0.00
   25    9   15      1.66      0.00
  -24   10   15     -0.26      0.00
  -22   10   15      0.92      0.00
  -20   10   15     -1.57      0.00
   20   10   15     -2.42      0.00
   22   10   15     -1.42      0.00
   24   10   15     -1.01      0.00
  -23   11   15     -1.61      0.00
  -21   11   15      0.52      0.00
  -19   11   15      2.81      0.00
   19   11   15      0.35      0.00
   21   11   15      2.64      0.00
   23   11   15      0.84      0.00
  -24   12   15     -0.23      0.00
  -22   12   15      3.05      0.00
  -20   12   15     -3.04      0.00
  -18   12   15     -0.75      0.00
   18   12   15     -1.98      0.00
   20   12   15     -0.96      0.00
   22   12   15     -1.72      0.00
  -23   13   15     -2.15      0.00
  -21   13   15     -1.15      0.00
  -19   13   15      2.17      0.00
  -17   13   15     -0.48      0.00
   17   13   15      3.93      0.00
   19   13   15     -0.86      0.00
   21   13   15      1.90      0.00
   23   13   15      0.84      0.00
  -22   14   15      3.62      0.00
  -20   14   15     -0.59      0.00
  -18   14   15     -0.65      0.00
  -16   14   15      1.24      0.00
   16   14   15     -1.54      0.00
   18   14   15     -0.32      0.00
   20   14   15     -0.29      0.00
   22   14   15     -1.48      0.00
  -21   15   15     -2.10      0.00
  -19   15   15      0.70      0.00
  -17   15   15     -0.78      0.00
  -15   15   15     -0.38      0.00
   15   15   15     -1.12      0.00
   17   15   15      1.68      0.00
   19   15   15     -1.15      0.00
   21   15   15      1.37      0.00
  -20   16   15      0.52      0.00
  -18   16   15     -0.83      0.00
  -16   16   15      2.57      0.00
  -14   16   15     -2.19      0.00
   14   16   15      0.58      0.00
   16   16   15     -0.72      0.00
   18   16   15      0.66      0.00
   20   16   15     -0.80      0.00
  -19   17   15      0.18      0.00
  -17   17   15     -0.28      0.00
  -15   17   15     -1.09      0.00
  -13   17   15      0.96      0.00
   13   17   15     -1.07      0.00
   15   17   15      1.08      0.00
   17   17   15      0.06      0.00
   19   17   15      0.16      0.00
  -18   18   15     -0.83      0.00
  -16   18   15      1.34      0.00
  -14   18   15     -0.90      0.00
  -12   18   15      1.52      0.00
  -10   18   15     -2.29      0.00
   10   18   15     -2.49      0.00
   12   18   15      2.69      0.00
   14   18   15     -1.79      0.00
   16   18   15     -1.29      0.00
   18   18   15      0.80      0.00
  -17   19   15      0.53      0.00
  -15   19   15     -0.40      0.00
  -13   19   15     -0.19      0.00
  -11   19   15      0.06      0.00
   -9   19   15      2.61      0.00
   -7   19   15      2.33      0.00
    7   19   15     -1.23      0.00
    9   19   15      1.40      0.00
   11   19   15     -1.71      0.00
   13   19   15     -1.42      0.00
   15   19   15      3.20      0.00
   17   19   15     -0.72      0.00
  -16   20   15      0.00      0.00
  -14   20   15      0.05      0.00
  -12   20   15      0.29      0.00
  -10   20   15     -1.34      0.00
   -8   20   15     -1.86      0.00
   -6   20   15     -2.31      0.00
   -4   20   15      0.05      0.00
   -2   20   15     -1.25      0.00
    0   20   15     -4.28      0.00
    2   20   15     -0.04      0.00
    4   20   15     -1.27      0.00
    6   20   15      0.48      0.00
    8   20   15      0.30      0.00
   10   20   15     -0.06      0.00
   12   20   15      4.57      0.00
   14   20   15     -1.82      0.00
  -13   21   15     -0.11      0.00
  -11   21   15      0.67      0.00
   -9   21   15      0.91      0.00
   -7   21   15      2.70      0.00
   -5   21   15     -0.02      0.00
   -3   21   15      0.24      0.00
   -1   21   15      2.25      0.00
    1   21   15      2.23      0.00
    3   21   15      0.39      0.00
    5   21   15     -0.15      0.00
    7   21   15     -1.50      0.00
    9   21   15     -0.21      0.00
   11   21   15     -3.57      0.00
   13   21   15     -2.14      0.00
  -12   22   15     -0.47      0.00
  -10   22   15     -0.64      0.00
   -8   22   15     -1.73      0.00
   -6   22   15     -1.01      0.00
   -4   22   15      0.90      0.00
   -2   22   15     -1.23      0.00
    0   22   15     -1.05      0.00
    2   22   15      0.23      0.00
    4   22   15     -0.30      0.00
    6   22   15      2.18      0.00
    8   22   15      1.75      0.00
   10   22   15      1.83      0.00
   12   22   15      3.27      0.00
   -9   23   15      1.56      0.00
   -7   23   15      1.00      0.00
   -5   23   15     -1.04      0.00
   -3   23   15      0.64      0.00
   -1   23   15      0.20      0.00
    1   23   15     -1.72      0.00
    3   23   15     -0.32      0.00
    5   23   15     -1.65      0.00
    7   23   15     -2.35      0.00
    9   23   15     -2.43      0.00
   -6   24   15      1.04      0.00
   -4   24   15      0.02      0.00
   -2   24   15     -0.35      0.00
    0   24   15      1.92      0.00
    2   24   15      1.96      0.00
    4   24   15      1.31      0.00
    6   24   15      1.37      0.00
  -24    0   16     -0.28      0.00
  -22    0   16     -1.64      0.00
   20    0   16      1.10      0.00
   22    0   16     -1.37      0.00
   24    0   16     -3.42      0.00
  -25    1   16      1.17      0.00
  -23    1   16     -0.12      0.00
  -21    1   16      1.52      0.00
   21    1   16     -0.81      0.00
   23    1   16      3.39      0.00
   25    1   16     -0.40      0.00
  -24    2   16      0.21      0.00
  -22    2   16     -1.30      0.00
   20    2   16      0.79      0.00
   22    2   16      0.92      0.00
   24    2   16     -1.76      0.00
  -25    3   16      0.21      0.00
  -23    3   16     -0.45      0.00
  -21    3   16      0.22      0.00
   21    3   16     -1.32      0.00
   23    3   16     -0.63      0.00
   25    3   16     -0.12      0.00
  -24    4   16      1.08      0.00
  -22    4   16     -0.21      0.00
  -20    4   16      1.78      0.00
   20    4   16     -0.03      0.00
   22    4   16      2.87      0.00
   24    4   16     -0.58      0.00
  -25    5   16     -0.42      0.00
  -23    5   16     -1.05      0.00
  -21    5   16     -1.28      0.00
   19    5   16     -0.91      0.00
   21    5   16     -0.75      0.00
   23    5   16     -0.44      0.00
  -24    6   16      1.34      0.00
  -22    6   16      1.11      0.00
  -20    6   16      1.40      0.00
   20    6   16     -0.78      0.00
   22    6   16      0.81      0.00
   24    6   16     -2.33      0.00
  -23    7   16     -1.95      0.00
  -21    7   16     -1.10      0.00
  -19    7   16      0.78      0.00
   19    7   16      1.13      0.00
   21    7   16     -0.04      0.00
   23    7   16      2.57      0.00
  -24    8   16      1.25      0.00
  -22    8   16      1.86      0.00
  -20    8   16     -0.20      0.00
   18    8   16     -3.59      0.00
   20    8   16     -0.62      0.00
   22    8   16     -0.84      0.00
  -23    9   16     -2.27      0.00
  -21    9   16     -0.18      0.00
  -19    9   16      0.46      0.00
   17    9   16      4.36      0.00
   19    9   16      1.21      0.00
   21    9   16     -0.31      0.00
   23    9   16      2.53      0.00
  -22   10   16      1.73      0.00
  -20   10   16     -0.07      0.00
  -18   10   16     -1.00      0.00
   18   10   16     -2.77      0.00
   20   10   16      0.33      0.00
   22   10   16     -0.42      0.00
  -21   11   16     -0.89      0.00
  -19   11   16     -1.22      0.00
  -17   11   16      2.65      0.00
   17   11   16      3.54      0.00
   19   11   16     -0.43      0.00
   21   11   16     -0.34      0.00
  -22   12   16      0.94      0.00
  -20   12   16      2.04      0.00
  -18   12   16     -0.45      0.00
  -16   12   16     -1.21      0.00
   16   12   16     -1.14      0.00
   18   12   16     -1.11      0.00
   20   12   16      0.70      0.00
  -21   13   16     -1.60      0.00
  -19   13   16     -2.12      0.00
  -17   13   16      2.10      0.00
  -15   13   16     -1.75      0.00
   15   13   16     -0.78      0.00
   17   13   16      2.23      0.00
   19   13   16     -0.66      0.00
  -20   14   16      2.18      0.00
  -18   14   16     -0.44      0.00
  -16   14   16     -0.13      0.00
  -14   14   16      2.52      0.00
   14   14   16     -0.01      0.00
   16   14   16     -0.48      0.00
   18   14   16     -1.11      0.00
   20   14   16      0.27      0.00
  -19   15   16     -1.21      0.00
  -17   15   16      1.53      0.00
  -15   15   16     -1.52      0.00
  -13   15   16     -2.72      0.00
   11   15   16      0.64      0.00
   13   15   16      0.09      0.00
   15   15   16      0.06      0.00
   17   15   16      1.39      0.00
   19   15   16      0.53      0.00
  -18   16   16     -0.40      0.00
  -16   16   16     -0.96      0.00
  -14   16   16      1.99      0.00
  -12   16   16      1.20      0.00
  -10   16   16     -3.40      0.00
   10   16   16     -0.30      0.00
   12   16   16      0.48      0.00
   14   16   16     -1.02      0.00
   16   16   16     -0.47      0.00
   18   16   16     -1.63      0.00
  -17   17   16      1.38      0.00
  -15   17   16      0.35      0.00
  -13   17   16     -1.99      0.00
  -11   17   16      2.67      0.00
   -9   17   16      0.95      0.00
   -7   17   16      1.02      0.00
    7   17   16     -0.47      0.00
    9   17   16     -1.29      0.00
   11   17   16      0.00      0.00
   13   17   16     -0.21      0.00
   15   17   16      1.25      0.00
   17   17   16      1.13      0.00
  -16   18   16     -1.90      0.00
  -14   18   16      0.87      0.00
  -12   18   16     -0.64      0.00
  -10   18   16     -2.88      0.00
   -8   18   16      1.18      0.00
   -6   18   16     -3.51      0.00
   -4   18   16     -1.50      0.00
   -2   18   16      0.00      0.00
    0   18   16     -3.28      0.00
    2   18   16     -5.18      0.00
    4   18   16     -0.05      0.00
    6   18   16     -0.53      0.00
    8   18   16      1.14      0.00
   10   18   16     -0.33      0.00
   12   18   16      1.44      0.00
   14   18   16     -1.18      0.00
  -13   19   16     -0.46      0.00
  -11   19   16      2.80      0.00
   -9   19   16     -0.28      0.00
   -7   19   16      1.06      0.00
   -5   19   16      2.82      0.00
   -3   19   16      0.24      0.00
   -1   19   16      0.60      0.00
    1   19   16      5.19      0.00
    3   19   16      2.67      0.00
    5   19   16     -0.01      0.00
    7   19   16     -0.21      0.00
    9   19   16      0.08      0.00
   11   19   16     -0.64      0.00
   13   19   16     -0.43      0.00
  -12   20   16     -1.60      0.00
  -10   20   16     -1.43      0.00
   -8   20   16      0.38      0.00
   -6   20   16     -2.19      0.00
   -4   20   16     -1.29      0.00
   -2   20   16     -0.01      0.00
    0   20   16     -1.67      0.00
    2   20   16     -3.82      0.00
    4   20   16     -0.55      0.00
    6   20   16     -0.02      0.00
    8   20   16      0.56      0.00
   10   20   16     -0.42      0.00
   12   20   16      0.66      0.00
  -11   21   16      1.63      0.00
   -9   21   16      0.64      0.00
   -7   21   16      0.68      0.00
   -5   21   16      1.49      0.00
   -3   21   16      1.04      0.00
   -1   21   16     -0.13      0.00
    1   21   16      1.32      0.00
    3   21   16      1.56      0.00
    5   21   16      0.10      0.00
    7   21   16     -0.81      0.00
    9   21   16      0.08      0.00
   -8   22   16     -1.39      0.00
   -6   22   16     -0.11      0.00
   -4   22   16     -2.10      0.00
   -2   22   16     -0.10      0.00
    0   22   16      0.54      0.00
    2   22   16     -1.08      0.00
    4   22   16     -0.04      0.00
    6   22   16     -0.07      0.00
   -3   23   16      1.36      0.00
   -1   23   16     -0.76      0.00
    1   23   16      0.37      0.00
  -23    1   17     -0.41      0.00
  -21    1   17     -0.86      0.00
  -19    1   17     -0.29      0.00
   17    1   17      1.42      0.00
   19    1   17     -1.46      0.00
   21    1   17      0.73      0.00
   23    1   17     -1.89      0.00
  -22    2   17      1.15      0.00
  -20    2   17      0.88      0.00
  -18    2   17      0.54      0.00
   18    2   17      0.65      0.00
   20    2   17      0.01      0.00
   22    2   17      0.65      0.00
  -23    3   17     -0.45      0.00
  -21    3   17     -1.95      0.00
  -19    3   17      0.14      0.00
   17    3   17      3.40      0.00
   19    3   17     -1.98      0.00
   21    3   17      1.64      0.00
   23    3   17     -1.97      0.00
  -22    4   17      1.81      0.00
  -20    4   17      0.32      0.00
  -18    4   17     -0.14      0.00
   18    4   17     -1.35      0.00
   20    4   17     -0.03      0.00
   22    4   17     -0.82      0.00
  -23    5   17     -0.20      0.00
  -21    5   17     -1.79      0.00
  -19    5   17      1.16      0.00
  -17    5   17     -0.23      0.00
   17    5   17      2.98      0.00
   19    5   17      0.01      0.00
   21    5   17      1.03      0.00
  -22    6   17      2.21      0.00
  -20    6   17     -0.89      0.00
  -18    6   17     -0.26      0.00
   16    6   17      1.35      0.00
   18    6   17     -2.36      0.00
   20    6   17      0.43      0.00
   22    6   17     -1.52      0.00
  -21    7   17     -0.79      0.00
  -19    7   17      0.56      0.00
  -17    7   17      0.54      0.00
   17    7   17      0.59      0.00
   19    7   17      0.29      0.00
   21    7   17     -0.33      0.00
  -22    8   17      1.67      0.00
  -20    8   17     -0.77      0.00
  -18    8   17      0.97      0.00
  -16    8   17     -1.53      0.00
   16    8   17      0.86      0.00
   18    8   17      0.07      0.00
   20    8   17      1.12      0.00
  -21    9   17     -0.01      0.00
  -19    9   17     -1.21      0.00
  -17    9   17      0.31      0.00
  -15    9   17      0.51      0.00
   15    9   17      1.80      0.00
   17    9   17     -1.62      0.00
   19    9   17     -1.26      0.00
   21    9   17     -0.63      0.00
  -20   10   17      0.53      0.00
  -18   10   17      1.41      0.00
  -16   10   17     -0.11      0.00
  -14   10   17      0.15      0.00
   14   10   17     -1.03      0.00
   16   10   17     -0.46      0.00
   18   10   17      2.58      0.00
   20   10   17      0.96      0.00
  -19   11   17     -1.24      0.00
  -17   11   17     -0.72      0.00
  -15   11   17     -1.55      0.00
  -13   11   17     -0.23      0.00
   13   11   17     -2.00      0.00
   15   11   17      2.79      0.00
   17   11   17     -2.61      0.00
   19   11   17     -1.65      0.00
  -18   12   17      0.07      0.00
  -16   12   17      2.58      0.00
  -14   12   17      0.28      0.00
  -12   12   17      2.64      0.00
   12   12   17     -0.01      0.00
   14   12   17     -0.18      0.00
   16   12   17     -0.10      0.00
   18   12   17      2.63      0.00
  -19   13   17      0.76      0.00
  -17   13   17     -1.21      0.00
  -15   13   17     -2.29      0.00
  -13   13   17      0.76      0.00
  -11   13   17     -4.49      0.00
   11   13   17      1.97      0.00
   13   13   17     -1.76      0.00
   15   13   17      0.95      0.00
   17   13   17     -2.32      0.00
  -18   14   17     -1.12      0.00
  -16   14   17      2.50      0.00
  -14   14   17     -0.81      0.00
  -12   14   17      1.17      0.00
  -10   14   17      2.49      0.00
   -8   14   17     -1.21      0.00
    8   14   17      1.98      0.00
   10   14   17      0.87      0.00
   12   14   17     -0.61      0.00
   14   14   17      1.92      0.00
   16   14   17      0.43      0.00
  -17   15   17     -0.74      0.00
  -15   15   17     -0.61      0.00
  -13   15   17      1.83      0.00
  -11   15   17     -2.35      0.00
   -9   15   17     -0.82      0.00
   -7   15   17      0.73      0.00
    5   15   17      0.12      0.00
    7   15   17      0.15      0.00
    9   15   17     -2.65      0.00
   11   15   17      0.87      0.00
   13   15   17     -2.24      0.00
   15   15   17     -0.70      0.00
  -16   16   17      0.68      0.00
  -14   16   17     -1.29      0.00
  -12   16   17     -0.57      0.00
  -10   16   17      2.31      0.00
   -8   16   17      1.48      0.00
   -6   16   17     -1.71      0.00
   -4   16   17      1.27      0.00
   -2   16   17      1.39      0.00
    0   16   17     -1.82      0.00
    2   16   17     -3.34      0.00
    4   16   17      1.67      0.00
    6   16   17     -0.91      0.00
    8   16   17      0.51      0.00
   10   16   17      1.50      0.00
   12   16   17     -0.48      0.00
   14   16   17      2.75      0.00
  -13   17   17      1.64      0.00
  -11   17   17     -1.18      0.00
   -9   17   17     -3.12      0.00
   -7   17   17     -0.32      0.00
   -5   17   17      1.04      0.00
   -3   17   17     -3.57      0.00
   -1   17   17      0.21      0.00
    1   17   17      2.59      0.00
    3   17   17      0.55      0.00
    5   17   17     -0.47      0.00
    7   17   17      1.08      0.00
    9   17   17     -0.47      0.00
   11   17   17      0.09      0.00
   13   17   17     -1.18      0.00
  -12   18   17     -0.55      0.00
  -10   18   17      2.42      0.00
   -8   18   17      3.06      0.00
   -6   18   17     -1.92      0.00
   -4   18   17      3.05      0.00
   -2   18   17      1.55      0.00
    0   18   17     -0.43      0.00
    2   18   17     -1.04      0.00
    4   18   17      0.50      0.00
    6   18   17     -0.27      0.00
    8   18   17     -1.78      0.00
   10   18   17      1.08      0.00
   12   18   17     -1.23      0.00
  -11   19   17     -1.34      0.00
   -9   19   17     -2.10      0.00
   -7   19   17     -1.20      0.00
   -5   19   17      0.80      0.00
   -3   19   17     -4.21      0.00
   -1   19   17      1.02      0.00
    1   19   17     -1.55      0.00
    3   19   17     -0.17      0.00
    5   19   17     -0.13      0.00
    7   19   17      0.93      0.00
    9   19   17      0.65      0.00
   -8   20   17      1.45      0.00
   -6   20   17     -0.52      0.00
   -4   20   17      2.21      0.00
   -2   20   17      0.81      0.00
    0   20   17      0.58      0.00
    2   20   17      1.90      0.00
    4   20   17      0.11      0.00
    6   20   17     -0.09      0.00
    8   20   17     -1.19      0.00
   -5   21   17      0.52      0.00
   -3   21   17     -2.63      0.00
   -1   21   17      0.98      0.00
    1   21   17     -1.80      0.00
    3   21   17     -1.05      0.00
  -20    0   18     -0.23      0.00
  -18    0   18      0.77      0.00
  -16    0   18     -2.43      0.00
   14    0   18      0.98      0.00
   16    0   18     -1.38      0.00
   18    0   18     -1.01      0.00
   20    0   18     -0.01      0.00
  -21    1   18     -0.44      0.00
  -19    1   18     -0.05      0.00
  -17    1   18      0.68      0.00
  -15    1   18      2.86      0.00
   15    1   18     -0.01      0.00
   17    1   18      1.43      0.00
   19    1   18      0.61      0.00
   21    1   18      0.20      0.00
  -20    2   18     -0.73      0.00
  -18    2   18      0.30      0.00
  -16    2   18     -2.39      0.00
   14    2   18     -0.87      0.00
   16    2   18     -0.31      0.00
   18    2   18     -1.26      0.00
   20    2   18     -0.75      0.00
  -21    3   18      0.76      0.00
  -19    3   18      0.07      0.00
  -17    3   18      1.53      0.00
  -15    3   18      1.51      0.00
   15    3   18      1.35      0.00
   17    3   18     -0.66      0.00
   19    3   18      2.04      0.00
  -20    4   18     -1.08      0.00
  -18    4   18      0.49      0.00
  -16    4   18     -2.75      0.00
  -14    4   18     -0.41      0.00
   14    4   18     -3.47      0.00
   16    4   18      1.23      0.00
   18    4   18     -0.53      0.00
   20    4   18     -1.52      0.00
  -21    5   18      1.09      0.00
  -19    5   18     -0.80      0.00
  -17    5   18      1.02      0.00
  -15    5   18      1.94      0.00
   13    5   18      0.85      0.00
   15    5   18      2.73      0.00
   17    5   18     -2.89      0.00
   19    5   18      1.68      0.00
  -20    6   18     -0.47      0.00
  -18    6   18      2.17      0.00
  -16    6   18     -2.71      0.00
  -14    6   18     -0.51      0.00
   14    6   18     -3.74      0.00
   16    6   18      1.28      0.00
   18    6   18      1.28      0.00
   20    6   18     -1.17      0.00
  -19    7   18     -1.45      0.00
  -17    7   18     -1.28      0.00
  -15    7   18      2.69      0.00
  -13    7   18     -0.85      0.00
   13    7   18      0.56      0.00
   15    7   18      2.99      0.00
   17    7   18     -3.40      0.00
   19    7   18      0.44      0.00
  -18    8   18      2.66      0.00
  -16    8   18     -0.41      0.00
  -14    8   18     -0.68      0.00
  -12    8   18      0.65      0.00
   12    8   18     -0.42      0.00
   14    8   18     -2.82      0.00
   16    8   18      0.98      0.00
   18    8   18      1.48      0.00
  -19    9   18     -0.35      0.00
  -17    9   18     -3.02      0.00
  -15    9   18      1.16      0.00
  -13    9   18     -1.05      0.00
  -11    9   18     -0.61      0.00
   11    9   18      1.61      0.00
   13    9   18      1.43      0.00
   15    9   18      1.74      0.00
   17    9   18     -2.68      0.00
  -18   10   18      0.99      0.00
  -16   10   18      2.18      0.00
  -14   10   18     -0.79      0.00
  -12   10   18      1.16      0.00
  -10   10   18      2.06      0.00
   10   10   18     -0.98      0.00
   12   10   18     -2.36      0.00
   14   10   18     -1.26      0.00
   16   10   18      1.51      0.00
   18   10   18      0.25      0.00
  -17   11   18     -2.50      0.00
  -15   11   18     -0.12      0.00
  -13   11   18      0.69      0.00
  -11   11   18     -1.88      0.00
   -9   11   18     -0.26      0.00
    7   11   18      2.69      0.00
    9   11   18      0.44      0.00
   11   11   18      2.22      0.00
   13   11   18      0.64      0.00
   15   11   18     -0.23      0.00
   17   11   18     -1.87      0.00
  -16   12   18      1.76      0.00
  -14   12   18     -1.59      0.00
  -12   12   18     -0.24      0.00
  -10   12   18      1.55      0.00
   -8   12   18     -2.82      0.00
   -6   12   18      0.00      0.00
    6   12   18     -2.35      0.00
    8   12   18      0.32      0.00
   10   12   18     -0.55      0.00
   12   12   18     -1.43      0.00
   14   12   18      1.29      0.00
   16   12   18      1.47      0.00
  -15   13   18      0.55      0.00
  -13   13   18      2.12      0.00
  -11   13   18     -1.16      0.00
   -9   13   18      1.31      0.00
   -7   13   18      1.39      0.00
   -5   13   18      1.10      0.00
   -3   13   18      1.61      0.00
   -1   13   18      1.80      0.00
    1   13   18      0.18      0.00
    3   13   18      0.42      0.00
    5   13   18      2.52      0.00
    7   13   18     -0.40      0.00
    9   13   18     -0.69      0.00
   11   13   18      1.50      0.00
   13   13   18     -1.88      0.00
   15   13   18     -0.96      0.00
  -14   14   18     -1.46      0.00
  -12   14   18     -1.03      0.00
  -10   14   18      1.08      0.00
   -8   14   18     -1.53      0.00
   -6   14   18     -0.44      0.00
   -4   14   18     -1.57      0.00
   -2   14   18     -0.66      0.00
    0   14   18     -1.11      0.00
    2   14   18      0.41      0.00
    4   14   18     -1.98      0.00
    6   14   18     -1.10      0.00
    8   14   18      1.08      0.00
   10   14   18     -0.95      0.00
   12   14   18      0.39      0.00
   14   14   18      2.25      0.00
  -13   15   18      1.19      0.00
  -11   15   18     -0.86      0.00
   -9   15   18      0.04      0.00
   -7   15   18     -0.78      0.00
   -5   15   18      2.15      0.00
   -3   15   18     -1.32      0.00
   -1   15   18      1.56      0.00
    1   15   18     -1.28      0.00
    3   15   18      0.81      0.00
    5   15   18      2.28      0.00
    7   15   18     -0.64      0.00
    9   15   18      1.02      0.00
   11   15   18      0.82      0.00
   13   15   18     -2.04      0.00
  -12   16   18     -0.12      0.00
  -10   16   18      1.16      0.00
   -8   16   18      0.64      0.00
   -6   16   18      0.18      0.00
   -4   16   18     -0.49      0.00
   -2   16   18      1.19      0.00
    0   16   18     -0.09      0.00
    2   16   18      2.24      0.00
    4   16   18     -2.37      0.00
    6   16   18     -0.23      0.00
    8   16   18     -0.76      0.00
   10   16   18     -1.41      0.00
   -9   17   18     -0.11      0.00
   -7   17   18     -1.77      0.00
   -5   17   18      1.24      0.00
   -3   17   18     -2.09      0.00
   -1   17   18      0.76      0.00
    1   17   18     -3.56      0.00
    3   17   18     -0.22      0.00
    5   17   18      1.36      0.00
    7   17   18     -0.27      0.00
    9   17   18      1.48      0.00
   -8   18   18      0.25      0.00
   -6   18   18      1.06      0.00
   -4   18   18     -0.07      0.00
   -2   18   18      0.86      0.00
    0   18   18      1.13      0.00
    2   18   18      3.72      0.00
    4   18   18     -1.20      0.00
    6   18   18      0.42      0.00
   -3   19   18     -0.84      0.00
   -1   19   18      0.07      0.00
    1   19   18     -3.34      0.00
    3   19   18     -0.88      0.00
  -19    1   19      0.45      0.00
  -17    1   19      0.14      0.00
  -15    1   19     -0.33      0.00
  -13    1   19      0.67      0.00
  -11    1   19      0.85      0.00
   11    1   19      0.36      0.00
   13    1   19     -0.04      0.00
   15    1   19      0.77      0.00
   17    1   19     -1.67      0.00
  -18    2   19     -0.70      0.00
  -16    2   19      0.57      0.00
  -14    2   19     -0.41      0.00
  -12    2   19     -1.82      0.00
  -10    2   19     -0.46      0.00
   10    2   19     -2.25      0.00
   12    2   19      1.35      0.00
   14    2   19     -2.08      0.00
   16    2   19      2.09      0.00
   18    2   19      0.24      0.00
  -17    3   19     -0.32      0.00
  -15    3   19     -0.01      0.00
  -13    3   19      1.53      0.00
  -11    3   19      2.27      0.00
    9    3   19      0.55      0.00
   11    3   19      0.43      0.00
   13    3   19     -0.43      0.00
   15    3   19      1.21      0.00
   17    3   19     -3.40      0.00
  -18    4   19      0.15      0.00
  -16    4   19      0.79      0.00
  -14    4   19     -1.31      0.00
  -12    4   19     -2.32      0.00
  -10    4   19     -0.78      0.00
    8    4   19      1.73      0.00
   10    4   19     -1.03      0.00
   12    4   19      1.20      0.00
   14    4   19     -1.28      0.00
   16    4   19      2.22      0.00
  -17    5   19     -1.38      0.00
  -15    5   19      0.75      0.00
  -13    5   19      1.42      0.00
  -11    5   19      2.19      0.00
   -9    5   19     -1.48      0.00
    9    5   19     -0.70      0.00
   11    5   19      0.03      0.00
   13    5   19     -0.52      0.00
   15    5   19      0.12      0.00
   17    5   19     -2.33      0.00
  -16    6   19      1.23      0.00
  -14    6   19     -1.44      0.00
  -12    6   19     -1.51      0.00
  -10    6   19      0.33      0.00
   -8    6   19      1.12      0.00
    8    6   19      0.42      0.00
   10    6   19      0.59      0.00
   12    6   19     -0.41      0.00
   14    6   19      0.45      0.00
   16    6   19      1.29      0.00
  -17    7   19     -1.36      0.00
  -15    7   19      0.31      0.00
  -13    7   19      0.84      0.00
  -11    7   19      0.86      0.00
   -9    7   19     -1.90      0.00
   -7    7   19      0.35      0.00
    7    7   19      0.31      0.00
    9    7   19     -0.02      0.00
   11    7   19      0.27      0.00
   13    7   19      0.30      0.00
   15    7   19     -1.03      0.00
  -16    8   19      1.26      0.00
  -14    8   19     -0.85      0.00
  -12    8   19     -0.93      0.00
  -10    8   19      0.83      0.00
   -8    8   19      0.07      0.00
   -6    8   19     -0.28      0.00
   -4    8   19     -1.02      0.00
    4    8   19     -0.44      0.00
    6    8   19     -1.25      0.00
    8    8   19     -0.28      0.00
   10    8   19      0.18      0.00
   12    8   19     -1.45      0.00
   14    8   19      1.04      0.00
   16    8   19      0.57      0.00
  -15    9   19      0.26      0.00
  -13    9   19      0.69      0.00
  -11    9   19      0.97      0.00
   -9    9   19     -0.19      0.00
   -7    9   19      1.16      0.00
   -5    9   19      0.50      0.00
   -3    9   19      1.39      0.00
   -1    9   19     -0.71      0.00
    1    9   19     -0.62      0.00
    3    9   19     -1.74      0.00
    5    9   19      2.21      0.00
    7    9   19     -1.16      0.00
    9    9   19      0.53      0.00
   11    9   19      0.48      0.00
   13    9   19      0.32      0.00
   15    9   19     -1.20      0.00
  -14   10   19     -0.90      0.00
  -12   10   19     -1.28      0.00
  -10   10   19     -1.19      0.00
   -8   10   19     -1.23      0.00
   -6   10   19     -1.43      0.00
   -4   10   19     -0.73      0.00
   -2   10   19     -1.59      0.00
    0   10   19      1.01      0.00
    2   10   19      2.18      0.00
    4   10   19     -0.45      0.00
    6   10   19     -0.06      0.00
    8   10   19      1.42      0.00
   10   10   19     -0.52      0.00
   12   10   19     -0.41      0.00
   14   10   19      1.17      0.00
  -13   11   19      0.47      0.00
  -11   11   19      2.45      0.00
   -9   11   19      1.34      0.00
   -7   11   19      1.34      0.00
   -5   11   19      1.96      0.00
   -3   11   19      0.40      0.00
   -1   11   19      1.78      0.00
    1   11   19     -2.56      0.00
    3   11   19     -1.43      0.00
    5   11   19      1.92      0.00
    7   11   19     -3.05      0.00
    9   11   19      0.49      0.00
   11   11   19     -0.11      0.00
   13   11   19     -0.60      0.00
  -12   12   19     -1.06      0.00
  -10   12   19     -2.71      0.00
   -8   12   19      0.09      0.00
   -6   12   19     -2.73      0.00
   -4   12   19     -0.18      0.00
   -2   12   19     -1.75      0.00
    0   12   19      0.54      0.00
    2   12   19      2.71      0.00
    4   12   19     -1.79      0.00
    6   12   19      1.17      0.00
    8   12   19      1.36      0.00
   10   12   19     -1.05      0.00
   12   12   19      0.82      0.00
  -11   13   19      2.41      0.00
   -9   13   19      0.59      0.00
   -7   13   19     -0.13      0.00
   -5   13   19      3.13      0.00
   -3   13   19     -1.44      0.00
   -1   13   19      2.33      0.00
    1   13   19     -3.40      0.00
    3   13   19      0.57      0.00
    5   13   19      1.20      0.00
    7   13   19     -2.18      0.00
    9   13   19      1.84      0.00
   11   13   19     -0.30      0.00
  -10   14   19     -1.94      0.00
   -8   14   19      1.38      0.00
   -6   14   19     -2.02      0.00
   -4   14   19     -0.24      0.00
   -2   14   19     -0.18      0.00
    0   14   19      0.60      0.00
    2   14   19      2.25      0.00
    4   14   19     -2.21      0.00
    6   14   19      1.07      0.00
    8   14   19     -0.72      0.00
   10   14   19     -1.80      0.00
   -9   15   19      0.27      0.00
   -7   15   19     -0.64      0.00
   -5   15   19      2.10      0.00
   -3   15   19     -1.18      0.00
   -1   15   19      0.99      0.00
    1   15   19     -2.76      0.00
    3   15   19      0.44      0.00
    5   15   19      0.57      0.00
    7   15   19     -0.43      0.00
   -6   16   19     -0.17      0.00
   -4   16   19     -0.85      0.00
   -2   16   19      0.28      0.00
    0   16   19      0.35      0.00
    2   16   19      1.77      0.00
    4   16   19     -0.68      0.00
    0    0    0      0.00      0.00
# SQUEEZE RESULTS (Version =  30715)
# Note: Data are Listed for all Voids in the P1 Unit Cell
# i.e. Centre of Gravity, Solvent Accessible Volume,
# Recovered number of Electrons in the Void and
# Details about the Squeezed Material
loop_
  _platon_squeeze_void_nr
  _platon_squeeze_void_average_x
  _platon_squeeze_void_average_y
  _platon_squeeze_void_average_z
  _platon_squeeze_void_volume
  _platon_squeeze_void_count_electrons
  _platon_squeeze_void_content
   1  0.000  0.500 -0.022       931       212 ' '
   2  0.500  1.000  0.011       931       212 ' '
_platon_squeeze_void_probe_radius                  1.20
_platon_squeeze_details
)
TITL try_a.res in C2/c
CELL   28.6437   25.8870   16.8049     90.00     90.59     90.00
SPGR C2/c
# Solvent Accessible Volume =    1918.1
# Electrons Found in S.A.V. =     422.7
# Note: Atoms in Void as Cxxx and Qxxx all others
Q101 0.069 0.356 0.099 !       2.09 eA-3
Q102 0.014 0.447 0.214 !       2.07 eA-3
Q103 0.021 0.428 0.232 !       2.04 eA-3
C104 0.500 0.016 0.244 !       1.84 eA-3
C105 0.803 0.481 0.278 !       1.64 eA-3
Q106 0.429 0.167 0.331 !       1.50 eA-3
C107 0.302 0.017 0.240 !       1.49 eA-3
Q108 0.658 0.288 0.373 !       1.42 eA-3
Q109 0.718 0.293 0.472 !       1.39 eA-3
Q110 0.123 0.189 0.017 !       1.39 eA-3
Q111 0.920 0.056 0.410 !       1.38 eA-3
Q112 0.252 0.314 0.095 !       1.32 eA-3
Q113 0.500 0.500 0.254 !       1.30 eA-3
Q114 0.101 0.329 0.095 !       1.26 eA-3
Q115 0.315 0.297 0.188 !       1.26 eA-3
Q116 0.911 0.129 0.402 !       1.23 eA-3
Q117 0.017 0.039 0.302 !       1.23 eA-3
C118 0.624 0.015 0.300 !       1.21 eA-3
Q119 1.000 0.070 0.241 !       1.18 eA-3
C120 0.486 0.077 0.246 !       1.18 eA-3
C121 0.255 0.021 0.234 !       1.17 eA-3
Q122 0.038 0.212 0.264 !       1.13 eA-3
C123 0.258 0.066 0.246 !       1.12 eA-3
C124 0.727 0.027 0.234 !       1.10 eA-3
C125 0.274 0.059 0.298 !       1.09 eA-3
Q126 0.137 0.248 0.027 !       1.04 eA-3
C127 0.336 0.024 0.207 !       1.04 eA-3
Q128 0.937 0.074 0.438 !       1.04 eA-3
Q129 0.105 0.233 0.046 !       0.98 eA-3
C130 0.556 0.091 0.291 !       0.98 eA-3
Q131 0.859 0.229 0.436 !       0.98 eA-3
Q132 0.603 0.168 0.245 !       0.97 eA-3
Q133 0.877 0.358 0.392 !       0.96 eA-3
Q134 0.178 0.405 0.491 !       0.92 eA-3
C135 0.523 0.081 0.306 !       0.91 eA-3
Q136 0.899 0.091 0.362 !       0.89 eA-3
Q137 0.437 0.238 0.047 !       0.82 eA-3
C138 0.500 0.104 0.276 !       0.81 eA-3
Q139 0.099 0.094 0.077 !       0.80 eA-3
C140 0.447 0.052 0.189 !       0.79 eA-3
C141 0.424 0.054 0.214 !       0.77 eA-3
C142 0.722 0.090 0.230 !       0.76 eA-3
C143 0.530 0.107 0.230 !       0.76 eA-3
Q144 0.984 0.224 0.169 !       0.75 eA-3
Q145 0.557 0.212 0.486 !       0.73 eA-3
Q146 0.148 0.146 0.157 !       0.72 eA-3
Q147 0.244 0.341 0.394 !       0.72 eA-3
Q148 0.562 0.029 0.106 !       0.72 eA-3
Q149 0.967 0.396 0.363 !       0.71 eA-3
Q150 0.744 0.100 0.140 !       0.71 eA-3
Q151 0.977 0.069 0.104 !       0.70 eA-3
Q152 1.000 0.141 0.250 !       0.70 eA-3
Q153 0.318 0.081 0.160 !       0.68 eA-3
Q154 0.140 0.499-0.004 !       0.68 eA-3
Q155 0.908 0.367 0.107 !       0.67 eA-3
Q156 0.977 0.042 0.293 !       0.66 eA-3
Q157 0.510 0.272 0.052 !       0.66 eA-3
Q158 0.963 0.054 0.156 !       0.65 eA-3
Q159 0.676 0.468 0.455 !       0.63 eA-3
Q160 0.401 0.431 0.362 !       0.63 eA-3
Q161 0.585 0.476 0.110 !       0.63 eA-3
Q162 0.852 0.328 0.232 !       0.62 eA-3
Q163 0.115 0.358 0.375 !       0.62 eA-3
Q164 0.485 0.366 0.220 !       0.62 eA-3
Q165 0.076 0.478 0.112 !       0.62 eA-3
Q166 0.678 0.107 0.476 !       0.60 eA-3
Q167 0.698 0.145 0.207 !       0.60 eA-3
Q168 0.284 0.142 0.288 !       0.60 eA-3
C169 0.832 0.500 0.113 !       0.59 eA-3
Q170 0.714 0.294 0.081 !       0.59 eA-3
Q171 0.531 0.276 0.488 !       0.59 eA-3
Q172 0.483 0.007 0.345 !       0.58 eA-3
Q173 0.959 0.018 0.140 !       0.58 eA-3
Q174 0.820 0.467 0.078 !       0.58 eA-3
C175 0.694 0.089 0.184 !       0.58 eA-3
Q176 0.281 0.120 0.136 !       0.57 eA-3
Q177 0.540 0.149 0.220 !       0.57 eA-3
Q178 0.182 0.195 0.264 !       0.56 eA-3
Q179 0.022 0.071 0.044 !       0.55 eA-3
Q180 0.957 0.155 0.483 !       0.55 eA-3
C181 0.477 0.124 0.307 !       0.55 eA-3
Q182 0.616 0.029 0.094 !       0.55 eA-3
Q183 0.218 0.387 0.390 !       0.54 eA-3
Q184 0.831 0.031 0.452 !       0.53 eA-3
Q185 0.626 0.462 0.454 !       0.53 eA-3
Q186 0.494 0.429 0.235 !       0.53 eA-3
Q187 0.761 0.141 0.155 !       0.52 eA-3
C188 0.148 0.492 0.254 !       0.52 eA-3
Q189 0.129 0.329 0.212 !       0.51 eA-3
Q190 0.950 0.330 0.465 !       0.51 eA-3
Q191 0.925 0.093 0.192 !       0.51 eA-3
Q192 0.649 0.094 0.422 !       0.50 eA-3
Q193 0.914 0.375 0.207 !       0.50 eA-3
Q194 0.630 0.373 0.065 !       0.50 eA-3
Q195 0.362 0.431 0.391 !       0.50 eA-3
)
;
_shelx_fab_checksum              98774
loop_
_space_group_symop_operation_xyz
'x, y, z'
'-x, y, -z+1/2'
'x+1/2, y+1/2, z'
'-x+1/2, y+1/2, -z+1/2'
'-x, -y, -z'
'x, -y, z-1/2'
'-x+1/2, -y+1/2, -z'
'x+1/2, -y+1/2, z-1/2'
loop_
_atom_site_label
_atom_site_type_symbol
_atom_site_fract_x
_atom_site_fract_y
_atom_site_fract_z
_atom_site_U_iso_or_equiv
_atom_site_adp_type
_atom_site_occupancy
_atom_site_site_symmetry_order
_atom_site_calc_flag
_atom_site_refinement_flags_posn
_atom_site_refinement_flags_adp
_atom_site_refinement_flags_occupancy
Zn3 Zn 0.5000 0.53474(6) 0.2500 0.0613(5) Uani 1 2 d S T P
Zn2 Zn 0.58640(4) 0.59080(5) 0.10169(6) 0.0634(5) Uani 1 1 d . . .
Zn4 Zn 0.37677(4) 0.72336(6) 0.46727(6) 0.0709(5) Uani 1 1 d . . .
Zn1 Zn 0.39615(8) 0.86506(7) 0.43263(10) 0.1093(7) Uani 1 1 d . . .
O9 O 0.4783(2) 0.5830(2) 0.4522(3) 0.0601(14) Uani 1 1 d . . .
O7 O 0.5615(2) 0.5636(2) 0.2070(3) 0.0626(14) Uani 1 1 d . . .
O10 O 0.41592(19) 0.6593(3) 0.4600(3) 0.0634(15) Uani 1 1 d . . .
O8 O 0.5330(2) 0.5478(2) 0.3573(3) 0.0620(14) Uani 1 1 d . . .
O6 O 0.6385(2) 0.6183(3) 0.1746(3) 0.0733(17) Uani 1 1 d . . .
O11 O 0.4352(3) 0.7500(3) 0.5257(3) 0.0727(17) Uani 1 1 d . . .
O5 O 0.6640(2) 0.7019(3) 0.1314(3) 0.0760(18) Uani 1 1 d . . .
O4 O 0.6285(3) 0.7917(3) 0.0872(4) 0.088(2) Uani 1 1 d . . .
O1 O 0.4560(3) 0.8387(3) 0.4859(4) 0.089(2) Uani 1 1 d . . .
N5 N 0.3296(3) 0.7110(4) 0.5543(4) 0.068(2) Uani 1 1 d D . .
N4 N 0.5000 0.4557(4) 0.2500 0.073(3) Uani 1 2 d S T P
O3 O 0.6137(4) 0.8701(3) 0.1920(4) 0.112(3) Uani 1 1 d . . .
C24 C 0.4932(3) 0.6291(4) 0.4830(4) 0.058(2) Uani 1 1 d . . .
C25 C 0.4598(3) 0.6685(4) 0.4886(4) 0.060(2) Uani 1 1 d . . .
C19 C 0.5717(3) 0.5789(4) 0.3469(5) 0.059(2) Uani 1 1 d . . .
C22 C 0.5493(3) 0.6876(4) 0.5325(4) 0.065(2) Uani 1 1 d . . .
H22 H 0.5810 0.6948 0.5454 0.078 Uiso 1 1 calc R U .
C28 C 0.5289(4) 0.7823(4) 0.5684(5) 0.075(3) Uani 1 1 d . . .
H28 H 0.5005 0.7952 0.5963 0.090 Uiso 1 1 calc R U .
O2 O 0.5562(6) 0.9056(4) 0.2910(5) 0.152(5) Uani 1 1 d . . .
N3 N 0.6300(3) 0.5499(4) 0.0289(5) 0.082(2) Uani 1 1 d . . .
C27 C 0.5181(3) 0.7271(4) 0.5430(4) 0.069(3) Uani 1 1 d . . .
C20 C 0.5947(3) 0.6026(4) 0.4090(5) 0.060(2) Uani 1 1 d . . .
C23 C 0.5397(3) 0.6388(4) 0.5055(4) 0.058(2) Uani 1 1 d . . .
C26 C 0.4706(3) 0.7149(4) 0.5203(4) 0.063(2) Uani 1 1 d . . .
C18 C 0.5862(3) 0.5855(4) 0.2676(5) 0.064(2) Uani 1 1 d . . .
C16 C 0.6501(3) 0.6394(4) 0.3118(5) 0.068(3) Uani 1 1 d . . .
C2 C 0.5356(5) 0.8181(4) 0.4942(5) 0.082(3) Uani 1 1 d . . .
C14 C 0.6911(3) 0.6774(6) 0.2933(6) 0.088(4) Uani 1 1 d . . .
H14 H 0.7074 0.6636 0.2455 0.106 Uiso 1 1 calc R U .
C13 C 0.6708(3) 0.7305(5) 0.2701(5) 0.074(3) Uani 1 1 d . . .
C21 C 0.5772(3) 0.5975(4) 0.4938(5) 0.066(2) Uani 1 1 d . . .
H21 H 0.5611 0.5633 0.4973 0.079 Uiso 1 1 calc R U .
C12 C 0.6580(3) 0.7403(5) 0.1873(5) 0.075(3) Uani 1 1 d . . .
C17 C 0.6264(3) 0.6148(4) 0.2545(5) 0.066(2) Uani 1 1 d . . .
C8 C 0.6636(4) 0.7704(6) 0.3217(6) 0.093(4) Uani 1 1 d . . .
H8 H 0.6714 0.7650 0.3762 0.111 Uiso 1 1 calc R U .
C15 C 0.6340(3) 0.6333(4) 0.3900(5) 0.068(2) Uani 1 1 d . . .
H15 H 0.6501 0.6506 0.4318 0.082 Uiso 1 1 calc R U .
C10 C 0.6341(5) 0.8269(6) 0.2195(5) 0.096(4) Uani 1 1 d . . .
C1 C 0.5796(4) 0.8234(4) 0.4634(5) 0.082(3) Uani 1 1 d . . .
H1 H 0.6051 0.8063 0.4887 0.098 Uiso 1 1 calc R U .
C6 C 0.5881(5) 0.8545(5) 0.3928(6) 0.096(4) Uani 1 1 d . . .
C9 C 0.6454(5) 0.8189(5) 0.3000(5) 0.088(3) Uani 1 1 d . . .
C11 C 0.6407(4) 0.7857(5) 0.1664(5) 0.083(3) Uani 1 1 d . . .
C9S C 0.6485(5) 0.5106(5) -0.0949(6) 0.092(3) Uani 1 1 d . . .
H9S H 0.6368 0.4966 -0.1434 0.110 Uiso 1 1 calc R U .
C10S C 0.6171(5) 0.5303(5) -0.0376(7) 0.086(3) Uani 1 1 d . . .
H10S H 0.5847 0.5290 -0.0493 0.103 Uiso 1 1 calc R U .
C38 C 0.5689(5) 0.7836(6) 0.6300(5) 0.095(4) Uani 1 1 d . . .
H38A H 0.5951 0.7632 0.6084 0.114 Uiso 1 1 calc R U .
H38B H 0.5798 0.8198 0.6346 0.114 Uiso 1 1 calc R U .
C5 C 0.5503(7) 0.8789(5) 0.3590(7) 0.108(5) Uani 1 1 d . . .
C35 C 0.6149(4) 0.5973(5) 0.5553(5) 0.080(3) Uani 1 1 d . . .
H35A H 0.6281 0.6325 0.5600 0.096 Uiso 1 1 calc R U .
H35B H 0.6402 0.5741 0.5376 0.096 Uiso 1 1 calc R U .
O01C O 0.3620(5) 0.8645(5) 0.5478(7) 0.136(4) Uani 1 1 d . . .
C3 C 0.4988(5) 0.8419(4) 0.4587(6) 0.086(3) Uani 1 1 d . . .
C36 C 0.5986(5) 0.5798(6) 0.6367(6) 0.095(4) Uani 1 1 d . . .
H36A H 0.5845 0.5450 0.6320 0.114 Uiso 1 1 calc R U .
H36B H 0.5742 0.6038 0.6556 0.114 Uiso 1 1 calc R U .
C11S C 0.4783(5) 0.4285(4) 0.1918(6) 0.087(3) Uani 1 1 d . . .
H11S H 0.4623 0.4467 0.1507 0.104 Uiso 1 1 calc R U .
N2 N 0.4105(6) 0.9426(5) 0.4436(8) 0.131(5) Uani 1 1 d D . .
C4 C 0.5056(6) 0.8738(5) 0.3887(6) 0.096(4) Uani 1 1 d . . .
H4 H 0.4799 0.8908 0.3638 0.116 Uiso 1 1 calc R U .
C32 C 0.7274(4) 0.6815(7) 0.3597(6) 0.105(5) Uani 1 1 d . . .
H32A H 0.7399 0.6466 0.3716 0.126 Uiso 1 1 calc R U .
H32B H 0.7123 0.6946 0.4083 0.126 Uiso 1 1 calc R U .
N1 N 0.3230(8) 0.8760(9) 0.5252(10) 0.170(8) Uani 1 1 d . . .
C7 C 0.6360(5) 0.8616(5) 0.3597(7) 0.104(4) Uani 1 1 d . . .
H7 H 0.6358 0.8950 0.3297 0.125 Uiso 1 1 calc R U .
C16S C 0.2623(5) 0.6906(6) 0.6682(8) 0.107(4) Uani 1 1 d D . .
H16S H 0.2399 0.6848 0.7086 0.129 Uiso 1 1 calc R U .
O01M O 0.2881(7) 0.8782(10) 0.5798(10) 0.230(10) Uani 1 1 d . . .
O01N O 0.3173(5) 0.8941(6) 0.4564(8) 0.158(5) Uani 1 1 d . . .
C12S C 0.4786(9) 0.3744(7) 0.1901(9) 0.158(9) Uani 1 1 d . . .
H12S H 0.4641 0.3560 0.1476 0.190 Uiso 1 1 calc R U .
C37 C 0.6390(7) 0.5781(11) 0.6984(8) 0.176(10) Uani 1 1 d . . .
H37A H 0.6270 0.5667 0.7499 0.264 Uiso 1 1 calc R U .
H37B H 0.6630 0.5539 0.6804 0.264 Uiso 1 1 calc R U .
H37C H 0.6527 0.6127 0.7040 0.264 Uiso 1 1 calc R U .
C8S C 0.6923(6) 0.5116(8) -0.0813(12) 0.145(7) Uani 1 1 d . . .
H8S H 0.7134 0.4956 -0.1168 0.174 Uiso 1 1 calc R U .
C21S C 0.5330(7) 0.7033(7) 0.3012(12) 0.143(6) Uiso 1 1 d D . .
C33 C 0.7683(5) 0.7176(11) 0.3378(9) 0.161(9) Uani 1 1 d . . .
H33A H 0.7866 0.7011 0.2950 0.193 Uiso 1 1 calc R U .
H33B H 0.7553 0.7502 0.3163 0.193 Uiso 1 1 calc R U .
C13S C 0.5000 0.3492(12) 0.2500 0.21(2) Uani 1 2 d S T P
H13S H 0.5000 0.3125 0.2500 0.250 Uiso 1 2 calc R U P
C20S C 0.5489(6) 0.7463(7) 0.2744(10) 0.064(4) Uiso 0.5 1 d D . P
C6S C 0.6771(5) 0.5540(11) 0.0406(16) 0.200(14) Uani 1 1 d . . .
H6S H 0.6886 0.5697 0.0881 0.240 Uiso 1 1 calc R U .
C7S C 0.7082(6) 0.5364(12) -0.0138(15) 0.220(16) Uani 1 1 d . . .
H7S H 0.7408 0.5411 -0.0053 0.264 Uiso 1 1 calc R U .
C18S C 0.3027(6) 0.7490(7) 0.5819(9) 0.130(6) Uani 1 1 d D . .
H18S H 0.3076 0.7835 0.5643 0.156 Uiso 1 1 calc R U .
C39 C 0.5604(8) 0.7661(10) 0.7043(8) 0.157(8) Uani 1 1 d . . .
H39A H 0.5528 0.7288 0.7006 0.189 Uiso 1 1 calc R U .
H39B H 0.5322 0.7839 0.7241 0.189 Uiso 1 1 calc R U .
C14S C 0.3241(5) 0.6626(8) 0.5825(10) 0.175(10) Uani 1 1 d D . .
H14S H 0.3432 0.6352 0.5640 0.210 Uiso 1 1 calc R U .
C5S C 0.4326(10) 0.9599(8) 0.5114(11) 0.188(12) Uani 1 1 d D . .
H5S H 0.4420 0.9354 0.5504 0.225 Uiso 1 1 calc R U .
C3S C 0.4328(10) 1.0488(8) 0.4673(12) 0.184(11) Uani 1 1 d D . .
H3S H 0.4379 1.0847 0.4759 0.221 Uiso 1 1 calc R U .
C17S C 0.2691(7) 0.7390(9) 0.6337(13) 0.215(14) Uani 1 1 d D . .
H17S H 0.2487 0.7663 0.6480 0.258 Uiso 1 1 calc R U .
C15S C 0.2890(6) 0.6534(8) 0.6407(12) 0.184(11) Uani 1 1 d D . .
H15S H 0.2849 0.6193 0.6602 0.221 Uiso 1 1 calc R U .
C34 C 0.8002(6) 0.7299(11) 0.4055(11) 0.179(12) Uani 1 1 d . . .
H34A H 0.8251 0.7529 0.3872 0.268 Uiso 1 1 calc R U .
H34B H 0.7826 0.7471 0.4476 0.268 Uiso 1 1 calc R U .
H34C H 0.8139 0.6979 0.4263 0.268 Uiso 1 1 calc R U .
C40 C 0.5999(9) 0.7728(15) 0.7673(12) 0.229(16) Uani 1 1 d . . .
H40A H 0.5897 0.7587 0.8184 0.343 Uiso 1 1 calc R U .
H40B H 0.6279 0.7543 0.7499 0.343 Uiso 1 1 calc R U .
H40C H 0.6072 0.8096 0.7735 0.343 Uiso 1 1 calc R U .
C1S C 0.4033(10) 0.9776(8) 0.3846(13) 0.29(2) Uani 1 1 d D . .
H1S H 0.3898 0.9668 0.3356 0.348 Uiso 1 1 calc R U .
C30 C 0.7139(13) 0.8846(17) 0.395(2) 0.250 Uiso 1 1 d . U .
H30A H 0.7081 0.9183 0.3687 0.300 Uiso 1 1 calc R U .
H30B H 0.7278 0.8604 0.3561 0.300 Uiso 1 1 calc R U .
C29 C 0.6757(6) 0.8657(7) 0.4256(8) 0.127(6) Uani 1 1 d . . .
H29A H 0.6651 0.8884 0.4693 0.152 Uiso 1 1 calc R U .
H29B H 0.6822 0.8311 0.4480 0.152 Uiso 1 1 calc R U .
C4S C 0.4415(12) 1.0116(9) 0.525(2) 0.258(19) Uani 1 1 d D . .
H4S H 0.4540 1.0219 0.5751 0.309 Uiso 1 1 calc R U .
C2S C 0.4156(11) 1.0287(10) 0.3950(18) 0.250 Uiso 1 1 d D U .
H2S H 0.4123 1.0515 0.3510 0.300 Uiso 1 1 calc R U .
C22S C 0.4902(7) 0.6802(9) 0.2864(13) 0.156(7) Uiso 1 1 d D . .
C19S C 0.5246(11) 0.7767(12) 0.2201(18) 0.216(13) Uiso 1 1 d D . .
C31 C 0.7479(12) 0.8911(16) 0.476(2) 0.250 Uiso 1 1 d . U .
H31A H 0.7783 0.9052 0.4613 0.375 Uiso 1 1 calc R U .
H31B H 0.7328 0.9146 0.5141 0.375 Uiso 1 1 calc R U .
H31C H 0.7523 0.8573 0.5016 0.375 Uiso 1 1 calc R U .
C41 C 0.5186(7) 0.7504(9) 0.3085(12) 0.074(5) Uiso 0.5 1 d . . P
loop_
_atom_site_aniso_label
_atom_site_aniso_U_11
_atom_site_aniso_U_22
_atom_site_aniso_U_33
_atom_site_aniso_U_23
_atom_site_aniso_U_13
_atom_site_aniso_U_12
Zn3 0.0664(10) 0.0667(10) 0.0512(8) 0.000 0.0156(7) 0.000
Zn2 0.0566(7) 0.0841(9) 0.0497(6) 0.0088(5) 0.0143(5) 0.0096(5)
Zn4 0.0746(9) 0.0954(10) 0.0430(6) -0.0102(5) 0.0175(5) 0.0076(6)
Zn1 0.1559(18) 0.0921(13) 0.0796(11) -0.0126(8) -0.0073(10) 0.0200(10)
O9 0.060(3) 0.074(4) 0.046(3) -0.004(3) 0.016(2) -0.005(3)
O7 0.063(3) 0.079(4) 0.047(3) 0.006(3) 0.017(2) -0.002(3)
O10 0.053(3) 0.084(4) 0.053(3) -0.017(3) 0.015(2) -0.007(3)
O8 0.066(3) 0.070(4) 0.051(3) 0.003(3) 0.011(2) 0.004(3)
O6 0.066(4) 0.109(5) 0.045(3) 0.014(3) 0.013(2) 0.006(3)
O11 0.094(4) 0.080(4) 0.045(3) -0.014(3) 0.016(3) 0.002(3)
O5 0.070(4) 0.111(5) 0.047(3) 0.014(3) 0.018(3) -0.005(4)
O4 0.114(6) 0.106(6) 0.045(3) 0.002(3) 0.008(3) -0.012(4)
O1 0.125(7) 0.079(5) 0.062(4) -0.012(3) 0.011(4) -0.006(4)
N5 0.068(4) 0.099(6) 0.038(3) -0.007(3) 0.014(3) 0.017(4)
N4 0.107(9) 0.063(6) 0.049(5) 0.000 0.038(5) 0.000
O3 0.202(10) 0.077(5) 0.058(4) 0.013(4) 0.020(5) -0.040(6)
C24 0.066(5) 0.073(5) 0.034(3) 0.005(3) 0.014(3) -0.007(4)
C25 0.057(5) 0.085(6) 0.037(3) -0.009(4) 0.014(3) -0.014(4)
C19 0.046(4) 0.070(5) 0.061(4) 0.025(4) 0.017(3) 0.006(3)
C22 0.059(5) 0.098(7) 0.038(3) 0.011(4) 0.007(3) -0.010(5)
C28 0.086(6) 0.088(7) 0.051(4) -0.009(4) 0.008(4) -0.018(5)
O2 0.301(17) 0.090(6) 0.065(4) -0.001(4) 0.059(7) -0.034(8)
N3 0.058(5) 0.116(7) 0.072(5) -0.004(5) 0.013(4) 0.014(4)
C27 0.076(6) 0.100(7) 0.031(3) -0.006(4) 0.012(3) -0.024(5)
C20 0.047(4) 0.087(6) 0.046(4) 0.016(4) 0.009(3) 0.003(4)
C23 0.057(4) 0.082(6) 0.035(3) 0.008(3) 0.012(3) -0.005(4)
C26 0.071(5) 0.086(6) 0.032(3) -0.002(4) 0.013(3) -0.002(5)
C18 0.053(5) 0.089(6) 0.048(4) 0.014(4) 0.012(3) 0.023(4)
C16 0.044(4) 0.111(8) 0.051(4) 0.026(5) 0.010(3) -0.001(4)
C2 0.115(9) 0.081(7) 0.051(4) -0.020(5) 0.012(5) -0.031(6)
C14 0.048(5) 0.158(12) 0.059(5) 0.021(6) 0.012(4) -0.019(6)
C13 0.064(5) 0.118(8) 0.041(4) 0.009(5) 0.010(4) -0.032(5)
C21 0.058(5) 0.091(7) 0.049(4) 0.013(4) 0.008(4) -0.004(4)
C12 0.066(5) 0.114(9) 0.046(4) 0.009(5) 0.011(4) -0.025(5)
C17 0.045(4) 0.101(7) 0.051(4) 0.024(4) 0.013(3) 0.005(4)
C8 0.079(7) 0.154(12) 0.045(4) 0.002(6) 0.010(4) -0.046(7)
C15 0.058(5) 0.107(7) 0.039(4) 0.020(4) -0.005(3) -0.012(4)
C10 0.118(9) 0.134(11) 0.036(4) 0.003(6) 0.018(5) -0.058(8)
C1 0.116(8) 0.081(7) 0.049(4) -0.005(4) 0.013(5) -0.043(6)
C6 0.145(11) 0.095(8) 0.048(5) -0.018(5) 0.031(6) -0.043(8)
C9 0.114(9) 0.109(9) 0.042(4) 0.004(5) 0.010(5) -0.037(7)
C11 0.095(7) 0.111(9) 0.043(4) 0.020(5) 0.014(4) -0.031(6)
C9S 0.113(9) 0.099(8) 0.064(5) -0.016(5) 0.024(6) -0.033(7)
C10S 0.097(8) 0.086(7) 0.076(6) 0.000(5) 0.019(6) -0.022(6)
C38 0.110(8) 0.134(10) 0.043(4) -0.026(5) 0.014(5) -0.044(7)
C5 0.206(17) 0.056(6) 0.061(6) -0.007(5) 0.005(9) -0.004(8)
C35 0.066(6) 0.123(9) 0.050(4) 0.020(5) 0.006(4) -0.007(5)
O01C 0.149(10) 0.150(10) 0.109(7) -0.043(7) 0.007(7) 0.055(8)
C3 0.145(11) 0.061(6) 0.052(5) -0.012(4) -0.004(6) 0.001(6)
C36 0.099(8) 0.137(11) 0.049(5) 0.023(6) 0.018(5) 0.012(7)
C11S 0.123(9) 0.076(7) 0.063(5) -0.018(5) 0.043(6) -0.032(6)
N2 0.201(14) 0.076(7) 0.114(9) -0.014(7) -0.008(9) 0.037(8)
C4 0.147(11) 0.087(8) 0.056(5) -0.016(5) 0.031(6) -0.019(7)
C32 0.082(7) 0.178(14) 0.056(5) 0.021(7) 0.002(5) -0.040(8)
N1 0.181(17) 0.22(2) 0.110(11) -0.013(12) -0.006(11) 0.085(15)
C7 0.142(11) 0.104(9) 0.067(6) 0.000(6) 0.030(6) -0.057(8)
C16S 0.114(10) 0.124(11) 0.085(7) 0.006(7) 0.054(7) 0.014(8)
O01M 0.200(16) 0.33(3) 0.160(13) -0.055(15) 0.068(12) 0.090(16)
O01N 0.164(11) 0.193(13) 0.119(9) -0.015(9) 0.010(8) 0.064(10)
C12S 0.27(3) 0.119(12) 0.086(9) -0.034(9) 0.108(13) -0.051(14)
C37 0.158(16) 0.31(3) 0.059(7) 0.062(12) -0.014(8) -0.020(17)
C8S 0.097(10) 0.159(15) 0.180(16) -0.079(13) 0.076(10) -0.029(10)
C33 0.066(7) 0.33(3) 0.082(8) 0.008(12) 0.013(6) -0.050(12)
C13S 0.38(5) 0.123(19) 0.12(2) 0.000 0.18(3) 0.000
C6S 0.060(8) 0.29(3) 0.25(2) -0.20(2) -0.014(11) 0.024(11)
C7S 0.078(10) 0.35(4) 0.23(2) -0.21(3) 0.000(12) 0.048(14)
C18S 0.138(13) 0.145(14) 0.107(10) -0.013(9) 0.047(9) 0.046(11)
C39 0.183(18) 0.24(2) 0.050(6) 0.012(9) -0.008(8) -0.050(16)
C14S 0.100(11) 0.24(3) 0.184(19) 0.050(19) 0.070(12) 0.074(14)
C5S 0.33(4) 0.117(15) 0.113(12) -0.018(11) -0.062(18) -0.037(18)
C3S 0.31(3) 0.128(16) 0.118(13) -0.035(13) 0.025(17) -0.032(19)
C17S 0.146(17) 0.31(3) 0.19(2) 0.08(2) 0.123(17) 0.14(2)
C15S 0.105(12) 0.21(2) 0.24(3) 0.08(2) 0.061(15) 0.052(14)
C34 0.098(11) 0.33(3) 0.106(11) 0.074(16) -0.026(9) -0.064(15)
C40 0.18(2) 0.42(5) 0.091(11) 0.019(19) -0.009(13) -0.08(3)
C1S 0.54(7) 0.15(2) 0.18(2) -0.11(2) -0.12(3) 0.14(3)
C29 0.140(12) 0.169(15) 0.072(7) -0.033(8) 0.025(7) -0.088(11)
C4S 0.30(4) 0.14(2) 0.33(5) 0.05(3) -0.06(4) -0.05(2)
loop_
_atom_type_symbol
_atom_type_description
_atom_type_scat_dispersion_real
_atom_type_scat_dispersion_imag
_atom_type_scat_source
C C 0.0181 0.0091 'International Tables Vol C Tables 4.2.6.8 and 6.1.1.4'
H H 0.0000 0.0000 'International Tables Vol C Tables 4.2.6.8 and 6.1.1.4'
N N 0.0311 0.0180 'International Tables Vol C Tables 4.2.6.8 and 6.1.1.4'
O O 0.0492 0.0322 'International Tables Vol C Tables 4.2.6.8 and 6.1.1.4'
Zn Zn -1.5491 0.6778 'International Tables Vol C Tables 4.2.6.8 and 6.1.1.4'
loop_
_geom_angle_atom_site_label_1
_geom_angle_atom_site_label_2
_geom_angle_atom_site_label_3
_geom_angle
_geom_angle_site_symmetry_1
_geom_angle_site_symmetry_3
N4 Zn3 O7 111.36(19) . 2_655
N4 Zn3 O7 111.36(19) . .
O7 Zn3 O7 137.3(4) 2_655 .
N4 Zn3 O8 99.46(18) . .
O7 Zn3 O8 91.1(2) 2_655 .
O7 Zn3 O8 82.0(2) . .
N4 Zn3 O8 99.46(18) . 2_655
O7 Zn3 O8 82.0(2) 2_655 2_655
O7 Zn3 O8 91.1(2) . 2_655
O8 Zn3 O8 161.1(4) . 2_655
O7 Zn2 O6 82.0(2) . .
O7 Zn2 N3 124.0(3) . .
O6 Zn2 N3 95.3(3) . .
O7 Zn2 O10 136.5(2) . 2_655
O6 Zn2 O10 91.2(3) . 2_655
N3 Zn2 O10 99.3(3) . 2_655
O7 Zn2 O9 91.5(2) . 2_655
O6 Zn2 O9 160.3(3) . 2_655
N3 Zn2 O9 103.8(3) . 2_655
O10 Zn2 O9 80.7(2) 2_655 2_655
O4 Zn4 O10 138.0(3) 2_655 .
O4 Zn4 N5 115.0(3) 2_655 .
O10 Zn4 N5 106.9(3) . .
O4 Zn4 O11 88.8(3) 2_655 .
O10 Zn4 O11 81.6(3) . .
N5 Zn4 O11 104.7(3) . .
O4 Zn4 O5 80.4(3) 2_655 2_655
O10 Zn4 O5 92.3(3) . 2_655
N5 Zn4 O5 99.2(3) . 2_655
O11 Zn4 O5 156.1(2) . 2_655
O1 Zn1 O4 92.7(3) . 2_655
O1 Zn1 N2 97.0(5) . .
O4 Zn1 N2 170.3(5) 2_655 .
O1 Zn1 O3 123.9(4) . 2_655
O4 Zn1 O3 81.6(3) 2_655 2_655
N2 Zn1 O3 93.0(5) . 2_655
O1 Zn1 O01C 89.4(4) . .
O4 Zn1 O01C 88.9(4) 2_655 .
N2 Zn1 O01C 91.0(5) . .
O3 Zn1 O01C 145.6(5) 2_655 .
O1 Zn1 O01N 144.3(4) . .
O4 Zn1 O01N 89.7(5) 2_655 .
N2 Zn1 O01N 82.4(6) . .
O3 Zn1 O01N 91.7(4) 2_655 .
O01C Zn1 O01N 55.0(5) . .
C24 O9 Zn2 110.8(5) . 2_655
C18 O7 Zn2 108.9(5) . .
C18 O7 Zn3 109.2(5) . .
Zn2 O7 Zn3 137.8(3) . .
C25 O10 Zn4 110.3(5) . .
C25 O10 Zn2 110.8(5) . 2_655
Zn4 O10 Zn2 136.8(3) . 2_655
C19 O8 Zn3 110.3(5) . .
C17 O6 Zn2 111.6(5) . .
C26 O11 Zn4 110.3(5) . .
C12 O5 Zn4 106.1(6) . 2_655
C11 O4 Zn4 111.0(7) . 2_655
C11 O4 Zn1 110.2(7) . 2_655
Zn4 O4 Zn1 136.2(4) 2_655 2_655
C3 O1 Zn1 127.4(7) . .
C18S N5 C14S 119.5(11) . .
C18S N5 Zn4 121.7(9) . .
C14S N5 Zn4 118.8(8) . .
C11S N4 C11S 117.3(14) . 2_655
C11S N4 Zn3 121.3(7) . .
C11S N4 Zn3 121.3(7) 2_655 .
C10 O3 Zn1 110.0(7) . 2_655
O9 C24 C25 116.8(7) . .
O9 C24 C23 123.3(8) . .
C25 C24 C23 119.8(8) . .
C26 C25 O10 120.3(8) . .
C26 C25 C24 121.4(8) . .
O10 C25 C24 118.4(8) . .
C20 C19 O8 122.8(7) . .
C20 C19 C18 121.5(8) . .
O8 C19 C18 115.7(8) . .
C23 C22 C27 127.0(8) . .
C23 C22 H22 116.5 . .
C27 C22 H22 116.5 . .
C27 C28 C38 110.8(10) . .
C27 C28 C2 111.0(7) . .
C38 C28 C2 115.3(9) . .
C27 C28 H28 106.4 . .
C38 C28 H28 106.4 . .
C2 C28 H28 106.4 . .
C10S N3 C6S 115.7(11) . .
C10S N3 Zn2 123.6(8) . .
C6S N3 Zn2 118.7(9) . .
C22 C27 C26 114.6(9) . .
C22 C27 C28 127.4(9) . .
C26 C27 C28 117.8(9) . .
C19 C20 C15 117.0(7) . .
C19 C20 C21 121.0(7) . .
C15 C20 C21 122.0(8) . .
C22 C23 C24 116.2(8) . .
C22 C23 C21 123.2(8) . .
C24 C23 C21 120.4(8) . .
C25 C26 O11 116.8(8) . .
C25 C26 C27 120.7(9) . .
O11 C26 C27 122.4(9) . .
O7 C18 C17 122.1(7) . .
O7 C18 C19 120.2(8) . .
C17 C18 C19 117.7(8) . .
C17 C16 C15 116.9(8) . .
C17 C16 C14 122.3(8) . .
C15 C16 C14 120.6(9) . .
C3 C2 C1 120.2(11) . .
C3 C2 C28 121.2(11) . .
C1 C2 C28 118.6(11) . .
C32 C14 C13 112.2(12) . .
C32 C14 C16 114.0(8) . .
C13 C14 C16 109.3(8) . .
C32 C14 H14 107.0 . .
C13 C14 H14 107.0 . .
C16 C14 H14 107.0 . .
C8 C13 C12 115.9(11) . .
C8 C13 C14 124.9(9) . .
C12 C13 C14 119.2(10) . .
C35 C21 C20 114.1(7) . .
C35 C21 C23 114.8(9) . .
C20 C21 C23 107.4(7) . .
C35 C21 H21 106.7 . .
C20 C21 H21 106.7 . .
C23 C21 H21 106.7 . .
C11 C12 O5 120.6(8) . .
C11 C12 C13 119.9(10) . .
O5 C12 C13 119.6(11) . .
C16 C17 O6 122.4(8) . .
C16 C17 C18 124.0(7) . .
O6 C17 C18 113.6(8) . .
C13 C8 C9 124.6(9) . .
C13 C8 H8 117.7 . .
C9 C8 H8 117.7 . .
C16 C15 C20 122.9(8) . .
C16 C15 H15 118.5 . .
C20 C15 H15 118.5 . .
O3 C10 C9 123.3(12) . .
O3 C10 C11 118.4(9) . .
C9 C10 C11 118.0(14) . .
C2 C1 C6 121.5(13) . .
C2 C1 H1 119.2 . .
C6 C1 H1 119.2 . .
C5 C6 C1 117.1(13) . .
C5 C6 C7 120.7(12) . .
C1 C6 C7 122.2(14) . .
C10 C9 C8 117.6(12) . .
C10 C9 C7 119.4(13) . .
C8 C9 C7 123.0(10) . .
C12 C11 O4 116.5(11) . .
C12 C11 C10 124.0(10) . .
O4 C11 C10 119.4(12) . .
C8S C9S C10S 120.0(12) . .
C8S C9S H9S 120.0 . .
C10S C9S H9S 120.0 . .
N3 C10S C9S 123.9(12) . .
N3 C10S H10S 118.1 . .
C9S C10S H10S 118.1 . .
C39 C38 C28 118.4(12) . .
C39 C38 H38A 107.7 . .
C28 C38 H38A 107.7 . .
C39 C38 H38B 107.7 . .
C28 C38 H38B 107.7 . .
H38A C38 H38B 107.1 . .
O2 C5 C6 118.9(17) . .
O2 C5 C4 118.6(16) . .
C6 C5 C4 122.3(12) . .
C21 C35 C36 113.5(9) . .
C21 C35 H35A 108.9 . .
C36 C35 H35A 108.9 . .
C21 C35 H35B 108.9 . .
C36 C35 H35B 108.9 . .
H35A C35 H35B 107.7 . .
N1 O01C Zn1 98.1(11) . .
O1 C3 C2 122.8(10) . .
O1 C3 C4 116.8(12) . .
C2 C3 C4 120.3(14) . .
C35 C36 C37 112.2(11) . .
C35 C36 H36A 109.2 . .
C37 C36 H36A 109.2 . .
C35 C36 H36B 109.2 . .
C37 C36 H36B 109.2 . .
H36A C36 H36B 107.9 . .
N4 C11S C12S 122.1(15) . .
N4 C11S H11S 118.9 . .
C12S C11S H11S 118.9 . .
C1S N2 C5S 117.0(15) . .
C1S N2 Zn1 123.9(11) . .
C5S N2 Zn1 118.8(12) . .
C5 C4 C3 118.6(14) . .
C5 C4 H4 120.7 . .
C3 C4 H4 120.7 . .
C14 C32 C33 112.4(10) . .
C14 C32 H32A 109.1 . .
C33 C32 H32A 109.1 . .
C14 C32 H32B 109.1 . .
C33 C32 H32B 109.1 . .
H32A C32 H32B 107.8 . .
O01C N1 O01N 119(2) . .
O01C N1 O01M 118.5(18) . .
O01N N1 O01M 120.9(18) . .
C6 C7 C9 109.0(9) . .
C6 C7 C29 113.8(10) . .
C9 C7 C29 112.3(14) . .
C6 C7 H7 107.1 . .
C9 C7 H7 107.1 . .
C29 C7 H7 107.1 . .
C15S C16S C17S 115.2(13) . .
C15S C16S H16S 122.4 . .
C17S C16S H16S 122.4 . .
N1 O01N Zn1 85.5(11) . .
C13S C12S C11S 118.3(19) . .
C13S C12S H12S 120.9 . .
C11S C12S H12S 120.9 . .
C36 C37 H37A 109.5 . .
C36 C37 H37B 109.5 . .
H37A C37 H37B 109.5 . .
C36 C37 H37C 109.5 . .
H37A C37 H37C 109.5 . .
H37B C37 H37C 109.5 . .
C9S C8S C7S 118.4(13) . .
C9S C8S H8S 120.8 . .
C7S C8S H8S 120.8 . .
C20S C21S C41 48.1(13) . .
C20S C21S C22S 129(2) . .
C41 C21S C22S 98.0(18) . .
C20S C21S C22S 97.9(16) . 2_655
C41 C21S C22S 106.7(18) . 2_655
C22S C21S C22S 50.2(17) . 2_655
C34 C33 C32 114.1(13) . .
C34 C33 H33A 108.7 . .
C32 C33 H33A 108.7 . .
C34 C33 H33B 108.7 . .
C32 C33 H33B 108.7 . .
H33A C33 H33B 107.6 . .
C12S C13S C12S 122(3) . 2_655
C12S C13S H13S 119.1 . .
C12S C13S H13S 119.1 2_655 .
C41 C20S C21S 66.3(16) . .
C41 C20S C19S 83.6(19) . .
C21S C20S C19S 123(2) . .
C7S C6S N3 121.9(15) . .
C7S C6S H6S 119.0 . .
N3 C6S H6S 119.0 . .
C6S C7S C8S 119.7(16) . .
C6S C7S H7S 120.1 . .
C8S C7S H7S 120.1 . .
C17S C18S N5 120.5(16) . .
C17S C18S H18S 119.7 . .
N5 C18S H18S 119.7 . .
C38 C39 C40 117.1(17) . .
C38 C39 H39A 108.0 . .
C40 C39 H39A 108.0 . .
C38 C39 H39B 108.0 . .
C40 C39 H39B 108.0 . .
H39A C39 H39B 107.3 . .
N5 C14S C15S 118.8(15) . .
N5 C14S H14S 120.6 . .
C15S C14S H14S 120.6 . .
N2 C5S C4S 122(2) . .
N2 C5S H5S 118.8 . .
C4S C5S H5S 118.8 . .
C4S C3S C2S 114(2) . .
C4S C3S H3S 123.1 . .
C2S C3S H3S 123.1 . .
C18S C17S C16S 123.5(14) . .
C18S C17S H17S 118.3 . .
C16S C17S H17S 118.3 . .
C16S C15S C14S 122.2(18) . .
C16S C15S H15S 118.9 . .
C14S C15S H15S 118.9 . .
C33 C34 H34A 109.5 . .
C33 C34 H34B 109.5 . .
H34A C34 H34B 109.5 . .
C33 C34 H34C 109.5 . .
H34A C34 H34C 109.5 . .
H34B C34 H34C 109.5 . .
C39 C40 H40A 109.5 . .
C39 C40 H40B 109.5 . .
H40A C40 H40B 109.5 . .
C39 C40 H40C 109.5 . .
H40A C40 H40C 109.5 . .
H40B C40 H40C 109.5 . .
N2 C1S C2S 121(2) . .
N2 C1S H1S 119.6 . .
C2S C1S H1S 119.6 . .
C29 C30 C31 101(3) . .
C29 C30 H30A 111.5 . .
C31 C30 H30A 111.5 . .
C29 C30 H30B 111.5 . .
C31 C30 H30B 111.5 . .
H30A C30 H30B 109.3 . .
C30 C29 C7 110(2) . .
C30 C29 H29A 109.6 . .
C7 C29 H29A 109.6 . .
C30 C29 H29B 109.6 . .
C7 C29 H29B 109.6 . .
H29A C29 H29B 108.1 . .
C5S C4S C3S 122(2) . .
C5S C4S H4S 119.2 . .
C3S C4S H4S 119.2 . .
C1S C2S C3S 123(2) . .
C1S C2S H2S 118.3 . .
C3S C2S H2S 118.3 . .
C22S C22S C21S 77.8(18) 2_655 .
C22S C22S C21S 52.0(14) 2_655 2_655
C21S C22S C21S 109.9(19) . 2_655
C22S C22S C41 89.8(12) 2_655 .
C21S C22S C41 39.3(11) . .
C21S C22S C41 89.8(14) 2_655 .
C20S C19S C41 111(2) . 2_655
C20S C19S C41 39.4(11) . .
C41 C19S C41 90(2) 2_655 .
C20S C19S C19S 91(2) . 2_655
C41 C19S C19S 60.8(18) 2_655 2_655
C41 C19S C19S 52.0(17) . 2_655
C30 C31 H31A 109.5 . .
C30 C31 H31B 109.5 . .
H31A C31 H31B 109.5 . .
C30 C31 H31C 109.5 . .
H31A C31 H31C 109.5 . .
H31B C31 H31C 109.5 . .
C20S C41 C21S 65.6(16) . .
C20S C41 C19S 124(2) . 2_655
C21S C41 C19S 132(2) . 2_655
C20S C41 C19S 57.0(15) . .
C21S C41 C19S 105.6(19) . .
C19S C41 C19S 67(2) 2_655 .
C20S C41 C22S 98.3(18) . .
C21S C41 C22S 42.7(11) . .
C19S C41 C22S 91.3(16) 2_655 .
C19S C41 C22S 104.6(18) . .
loop_
_geom_bond_atom_site_label_1
_geom_bond_atom_site_label_2
_geom_bond_distance
_geom_bond_site_symmetry_2
Zn3 N4 2.047(11) .
Zn3 O7 2.052(6) 2_655
Zn3 O7 2.052(6) .
Zn3 O8 2.056(6) .
Zn3 O8 2.056(6) 2_655
Zn2 O7 2.039(5) .
Zn2 O6 2.048(7) .
Zn2 N3 2.052(9) .
Zn2 O10 2.053(6) 2_655
Zn2 O9 2.065(6) 2_655
Zn4 O4 1.997(8) 2_655
Zn4 O10 2.007(7) .
Zn4 N5 2.027(7) .
Zn4 O11 2.052(7) .
Zn4 O5 2.092(6) 2_655
Zn1 O1 2.044(9) .
Zn1 O4 2.051(9) 2_655
Zn1 N2 2.057(13) .
Zn1 O3 2.114(8) 2_655
Zn1 O01C 2.178(12) .
Zn1 O01N 2.418(13) .
O9 C24 1.366(11) .
O9 Zn2 2.065(6) 2_655
O7 C18 1.358(11) .
O10 C25 1.363(10) .
O10 Zn2 2.054(6) 2_655
O8 C19 1.384(11) .
O6 C17 1.393(10) .
O11 C26 1.366(12) .
O5 C12 1.378(13) .
O5 Zn4 2.092(6) 2_655
O4 C11 1.381(12) .
O4 Zn4 1.998(8) 2_655
O4 Zn1 2.051(9) 2_655
O1 C3 1.315(16) .
N5 C18S 1.335(14) .
N5 C14S 1.349(19) .
N4 C11S 1.351(12) .
N4 C11S 1.351(12) 2_655
O3 C10 1.344(18) .
O3 Zn1 2.114(8) 2_655
C24 C25 1.403(13) .
C24 C23 1.404(12) .
C25 C26 1.349(13) .
C19 C20 1.372(13) .
C19 C18 1.409(11) .
C22 C23 1.369(14) .
C22 C27 1.371(15) .
C22 H22 0.9500 .
C28 C27 1.522(15) .
C28 C38 1.538(16) .
C28 C2 1.567(15) .
C28 H28 1.0000 .
O2 C5 1.347(15) .
N3 C10S 1.277(14) .
N3 C6S 1.367(17) .
C27 C26 1.444(13) .
C20 C15 1.417(12) .
C20 C21 1.520(11) .
C23 C21 1.529(13) .
C18 C17 1.399(13) .
C16 C17 1.333(14) .
C16 C15 1.406(11) .
C16 C14 1.566(14) .
C2 C3 1.353(18) .
C2 C1 1.375(17) .
C14 C32 1.520(14) .
C14 C13 1.541(18) .
C14 H14 1.0000 .
C13 C8 1.366(18) .
C13 C12 1.458(12) .
C21 C35 1.487(13) .
C21 H21 1.0000 .
C12 C11 1.321(17) .
C8 C9 1.407(19) .
C8 H8 0.9500 .
C15 H15 0.9500 .
C10 C9 1.403(14) .
C10 C11 1.404(18) .
C1 C6 1.456(15) .
C1 H1 0.9500 .
C6 C5 1.37(2) .
C6 C7 1.497(19) .
C9 C7 1.519(18) .
C9S C8S 1.27(2) .
C9S C10S 1.419(17) .
C9S H9S 0.9500 .
C10S H10S 0.9500 .
C38 C39 1.352(17) .
C38 H38A 0.9900 .
C38 H38B 0.9900 .
C5 C4 1.39(2) .
C35 C36 1.518(12) .
C35 H35A 0.9900 .
C35 H35B 0.9900 .
O01C N1 1.21(2) .
C3 C4 1.451(16) .
C36 C37 1.548(19) .
C36 H36A 0.9900 .
C36 H36B 0.9900 .
C11S C12S 1.40(2) .
C11S H11S 0.9500 .
N2 C1S 1.36(2) .
N2 C5S 1.372(17) .
C4 H4 0.9500 .
C32 C33 1.55(2) .
C32 H32A 0.9900 .
C32 H32B 0.9900 .
N1 O01N 1.26(2) .
N1 O01M 1.36(2) .
C7 C29 1.58(2) .
C7 H7 1.0000 .
C16S C15S 1.317(19) .
C16S C17S 1.40(2) .
C16S H16S 0.9500 .
C12S C13S 1.34(3) .
C12S H12S 0.9500 .
C37 H37A 0.9800 .
C37 H37B 0.9800 .
C37 H37C 0.9800 .
C8S C7S 1.38(2) .
C8S H8S 0.9500 .
C21S C20S 1.29(2) .
C21S C41 1.29(3) .
C21S C22S 1.38(2) .
C21S C22S 1.72(3) 2_655
C33 C34 1.49(2) .
C33 H33A 0.9900 .
C33 H33B 0.9900 .
C13S C12S 1.34(3) 2_655
C13S H13S 0.9500 .
C20S C41 1.05(2) .
C20S C19S 1.39(2) .
C6S C7S 1.36(2) .
C6S H6S 0.9500 .
C7S H7S 0.9500 .
C18S C17S 1.331(18) .
C18S H18S 0.9500 .
C39 C40 1.55(3) .
C39 H39A 0.9900 .
C39 H39B 0.9900 .
C14S C15S 1.428(19) .
C14S H14S 0.9500 .
C5S C4S 1.38(2) .
C5S H5S 0.9500 .
C3S C4S 1.39(2) .
C3S C2S 1.41(2) .
C3S H3S 0.9500 .
C17S H17S 0.9500 .
C15S H15S 0.9500 .
C34 H34A 0.9800 .
C34 H34B 0.9800 .
C34 H34C 0.9800 .
C40 H40A 0.9800 .
C40 H40B 0.9800 .
C40 H40C 0.9800 .
C1S C2S 1.38(2) .
C1S H1S 0.9500 .
C30 C29 1.31(4) .
C30 C31 1.68(4) .
C30 H30A 0.9900 .
C30 H30B 0.9900 .
C29 H29A 0.9900 .
C29 H29B 0.9900 .
C4S H4S 0.9500 .
C2S H2S 0.9500 .
C22S C22S 1.35(4) 2_655
C22S C21S 1.72(3) 2_655
C22S C41 2.02(3) .
C19S C41 1.49(4) 2_655
C19S C41 1.65(3) .
C19S C19S 1.74(6) 2_655
C31 H31A 0.9800 .
C31 H31B 0.9800 .
C31 H31C 0.9800 .
C41 C19S 1.49(4) 2_655
loop_
_geom_torsion_atom_site_label_1
_geom_torsion_atom_site_label_2
_geom_torsion_atom_site_label_3
_geom_torsion_atom_site_label_4
_geom_torsion
_geom_torsion_site_symmetry_1
_geom_torsion_site_symmetry_4
Zn2 O9 C24 C25 13.3(7) 2_655 .
Zn2 O9 C24 C23 -164.0(5) 2_655 .
Zn4 O10 C25 C26 3.5(8) . .
Zn2 O10 C25 C26 169.9(6) 2_655 .
Zn4 O10 C25 C24 -175.5(5) . .
Zn2 O10 C25 C24 -9.1(8) 2_655 .
O9 C24 C25 C26 178.0(6) . .
C23 C24 C25 C26 -4.6(11) . .
O9 C24 C25 O10 -3.0(10) . .
C23 C24 C25 O10 174.4(6) . .
Zn3 O8 C19 C20 166.2(7) . .
Zn3 O8 C19 C18 -13.3(9) . .
C23 C22 C27 C26 -1.9(12) . .
C23 C22 C27 C28 -176.1(8) . .
C38 C28 C27 C22 -36.7(12) . .
C2 C28 C27 C22 92.8(11) . .
C38 C28 C27 C26 149.2(8) . .
C2 C28 C27 C26 -81.3(10) . .
O8 C19 C20 C15 179.8(8) . .
C18 C19 C20 C15 -0.7(13) . .
O8 C19 C20 C21 -2.7(13) . .
C18 C19 C20 C21 176.7(8) . .
C27 C22 C23 C24 2.9(11) . .
C27 C22 C23 C21 178.5(7) . .
O9 C24 C23 C22 177.6(6) . .
C25 C24 C23 C22 0.4(10) . .
O9 C24 C23 C21 1.9(10) . .
C25 C24 C23 C21 -175.4(7) . .
O10 C25 C26 O11 3.3(10) . .
C24 C25 C26 O11 -177.7(7) . .
O10 C25 C26 C27 -173.3(7) . .
C24 C25 C26 C27 5.7(11) . .
Zn4 O11 C26 C25 -8.2(8) . .
Zn4 O11 C26 C27 168.4(6) . .
C22 C27 C26 C25 -2.5(11) . .
C28 C27 C26 C25 172.3(7) . .
C22 C27 C26 O11 -179.0(7) . .
C28 C27 C26 O11 -4.1(11) . .
Zn2 O7 C18 C17 -9.2(10) . .
Zn3 O7 C18 C17 -170.7(7) . .
Zn2 O7 C18 C19 170.9(7) . .
Zn3 O7 C18 C19 9.5(10) . .
C20 C19 C18 O7 -176.9(8) . .
O8 C19 C18 O7 2.6(12) . .
C20 C19 C18 C17 3.2(13) . .
O8 C19 C18 C17 -177.3(8) . .
C27 C28 C2 C3 87.4(12) . .
C38 C28 C2 C3 -145.5(10) . .
C27 C28 C2 C1 -90.0(11) . .
C38 C28 C2 C1 37.1(14) . .
C17 C16 C14 C32 -152.4(12) . .
C15 C16 C14 C32 33.5(16) . .
C17 C16 C14 C13 81.2(13) . .
C15 C16 C14 C13 -92.9(10) . .
C32 C14 C13 C8 -34.3(13) . .
C16 C14 C13 C8 93.2(11) . .
C32 C14 C13 C12 145.6(9) . .
C16 C14 C13 C12 -86.9(10) . .
C19 C20 C21 C35 146.9(10) . .
C15 C20 C21 C35 -35.8(14) . .
C19 C20 C21 C23 -84.6(11) . .
C15 C20 C21 C23 92.7(10) . .
C22 C23 C21 C35 37.9(11) . .
C24 C23 C21 C35 -146.7(8) . .
C22 C23 C21 C20 -90.1(9) . .
C24 C23 C21 C20 85.3(9) . .
Zn4 O5 C12 C11 -17.1(10) 2_655 .
Zn4 O5 C12 C13 162.9(7) 2_655 .
C8 C13 C12 C11 0.2(13) . .
C14 C13 C12 C11 -179.7(9) . .
C8 C13 C12 O5 -179.7(8) . .
C14 C13 C12 O5 0.3(12) . .
C15 C16 C17 O6 179.0(9) . .
C14 C16 C17 O6 4.7(16) . .
C15 C16 C17 C18 2.3(15) . .
C14 C16 C17 C18 -172.0(10) . .
Zn2 O6 C17 C16 -166.2(8) . .
Zn2 O6 C17 C18 10.8(10) . .
O7 C18 C17 C16 176.0(9) . .
C19 C18 C17 C16 -4.2(14) . .
O7 C18 C17 O6 -1.0(13) . .
C19 C18 C17 O6 178.9(8) . .
C12 C13 C8 C9 -0.5(15) . .
C14 C13 C8 C9 179.5(9) . .
C17 C16 C15 C20 0.4(15) . .
C14 C16 C15 C20 174.9(10) . .
C19 C20 C15 C16 -1.2(15) . .
C21 C20 C15 C16 -178.6(9) . .
Zn1 O3 C10 C9 179.5(9) 2_655 .
Zn1 O3 C10 C11 -6.3(12) 2_655 .
C3 C2 C1 C6 0.3(15) . .
C28 C2 C1 C6 177.7(9) . .
C2 C1 C6 C5 0.9(15) . .
C2 C1 C6 C7 178.5(10) . .
O3 C10 C9 C8 175.5(10) . .
C11 C10 C9 C8 1.3(16) . .
O3 C10 C9 C7 -2.3(18) . .
C11 C10 C9 C7 -176.5(10) . .
C13 C8 C9 C10 -0.3(17) . .
C13 C8 C9 C7 177.4(10) . .
O5 C12 C11 O4 1.3(14) . .
C13 C12 C11 O4 -178.6(8) . .
O5 C12 C11 C10 -179.2(9) . .
C13 C12 C11 C10 0.8(16) . .
Zn4 O4 C11 C12 16.5(12) 2_655 .
Zn1 O4 C11 C12 -178.9(7) 2_655 .
Zn4 O4 C11 C10 -163.0(8) 2_655 .
Zn1 O4 C11 C10 1.7(12) 2_655 .
O3 C10 C11 C12 -176.1(10) . .
C9 C10 C11 C12 -1.6(17) . .
O3 C10 C11 O4 3.3(15) . .
C9 C10 C11 O4 177.8(10) . .
C6S N3 C10S C9S 4(2) . .
Zn2 N3 C10S C9S 167.7(9) . .
C8S C9S C10S N3 0(2) . .
C27 C28 C38 C39 -71.4(18) . .
C2 C28 C38 C39 161.5(16) . .
C1 C6 C5 O2 -176.1(10) . .
C7 C6 C5 O2 6.3(16) . .
C1 C6 C5 C4 -1.5(16) . .
C7 C6 C5 C4 -179.1(11) . .
C20 C21 C35 C36 -166.4(10) . .
C23 C21 C35 C36 69.0(13) . .
Zn1 O1 C3 C2 -172.3(7) . .
Zn1 O1 C3 C4 9.4(13) . .
C1 C2 C3 O1 -179.3(9) . .
C28 C2 C3 O1 3.4(15) . .
C1 C2 C3 C4 -1.0(15) . .
C28 C2 C3 C4 -178.3(9) . .
C21 C35 C36 C37 178.0(15) . .
C11S N4 C11S C12S -1.1(10) 2_655 .
Zn3 N4 C11S C12S 178.9(10) . .
O2 C5 C4 C3 175.5(10) . .
C6 C5 C4 C3 0.8(17) . .
O1 C3 C4 C5 178.8(9) . .
C2 C3 C4 C5 0.5(15) . .
C13 C14 C32 C33 -57.5(17) . .
C16 C14 C32 C33 177.6(14) . .
Zn1 O01C N1 O01N -15(2) . .
Zn1 O01C N1 O01M 177(2) . .
C5 C6 C7 C9 -92.9(14) . .
C1 C6 C7 C9 89.7(13) . .
C5 C6 C7 C29 140.9(13) . .
C1 C6 C7 C29 -36.6(17) . .
C10 C9 C7 C6 91.0(13) . .
C8 C9 C7 C6 -86.7(16) . .
C10 C9 C7 C29 -142.0(11) . .
C8 C9 C7 C29 40.4(15) . .
O01C N1 O01N Zn1 13(2) . .
O01M N1 O01N Zn1 -179(2) . .
N4 C11S C12S C13S 2(2) . .
C10S C9S C8S C7S -6(3) . .
C14 C32 C33 C34 169.9(19) . .
C11S C12S C13S C12S -1.1(9) . 2_655
C22S C21S C20S C41 61(2) . .
C22S C21S C20S C41 105(2) 2_655 .
C41 C21S C20S C19S -65(2) . .
C22S C21S C20S C19S -3(3) . .
C22S C21S C20S C19S 41(2) 2_655 .
C10S N3 C6S C7S -3(4) . .
Zn2 N3 C6S C7S -167(3) . .
N3 C6S C7S C8S -3(5) . .
C9S C8S C7S C6S 7(5) . .
C14S N5 C18S C17S -3(3) . .
Zn4 N5 C18S C17S 173.8(16) . .
C28 C38 C39 C40 -174(2) . .
C18S N5 C14S C15S 0.7(15) . .
Zn4 N5 C14S C15S -176.5(9) . .
C1S N2 C5S C4S 9(4) . .
Zn1 N2 C5S C4S -177(2) . .
N5 C18S C17S C16S 6(4) . .
C15S C16S C17S C18S -6(3) . .
C17S C16S C15S C14S 3(3) . .
N5 C14S C15S C16S -0.6(19) . .
C5S N2 C1S C2S -3.5(19) . .
Zn1 N2 C1S C2S -177.2(14) . .
C31 C30 C29 C7 174(2) . .
C6 C7 C29 C30 -164(2) . .
C9 C7 C29 C30 71(3) . .
N2 C5S C4S C3S -6(5) . .
C2S C3S C4S C5S -2(5) . .
N2 C1S C2S C3S -5(2) . .
C4S C3S C2S C1S 7(4) . .
C20S C21S C22S C22S 63.8(19) . 2_655
C41 C21S C22S C22S 105.0(16) . 2_655
C20S C21S C22S C21S 22(3) . 2_655
C41 C21S C22S C21S 63.4(17) . 2_655
C22S C21S C22S C21S -41.6(15) 2_655 2_655
C20S C21S C22S C41 -41.2(17) . .
C22S C21S C22S C41 -105.0(16) 2_655 .
C41 C20S C19S C41 -62(2) . 2_655
C21S C20S C19S C41 -6(3) . 2_655
C21S C20S C19S C41 56.3(19) . .
C41 C20S C19S C19S -3.5(18) . 2_655
C21S C20S C19S C19S 53(2) . 2_655
C19S C20S C41 C21S 130.3(19) . .
C21S C20S C41 C19S -125(3) . 2_655
C19S C20S C41 C19S 5(3) . 2_655
C21S C20S C41 C19S -130.3(19) . .
C21S C20S C41 C22S -28.2(13) . .
C19S C20S C41 C22S 102.1(19) . .
C22S C21S C41 C20S -136.4(19) . .
C22S C21S C41 C20S -85.6(19) 2_655 .
C20S C21S C41 C19S 115(3) . 2_655
C22S C21S C41 C19S -22(3) . 2_655
C22S C21S C41 C19S 29(3) 2_655 2_655
C20S C21S C41 C19S 41.6(17) . .
C22S C21S C41 C19S -95(2) . .
C22S C21S C41 C19S -44(2) 2_655 .
C20S C21S C41 C22S 136.4(19) . .
C22S C21S C41 C22S 50.8(18) 2_655 .
C41 C19S C41 C20S 124(2) 2_655 .
C19S C19S C41 C20S 176(2) 2_655 .
C20S C19S C41 C21S -46.2(19) . .
C41 C19S C41 C21S 78.1(18) 2_655 .
C19S C19S C41 C21S 129(2) 2_655 .
C20S C19S C41 C19S -176(2) . 2_655
C41 C19S C41 C19S -51(2) 2_655 2_655
C20S C19S C41 C22S -90(2) . .
C41 C19S C41 C22S 33.8(19) 2_655 .
C19S C19S C41 C22S 85.1(15) 2_655 .
