#------------------------------------------------------------------------------
#$Date: 2017-10-25 04:13:42 +0300 (Wed, 25 Oct 2017) $
#$Revision: 202287 $
#$URL: file:///home/coder/svn-repositories/cod/cif/7/12/08/7120815.cif $
#------------------------------------------------------------------------------
#
# This file is available in the Crystallography Open Database (COD),
# http://www.crystallography.net/
#
# All data on this site have been placed in the public domain by the
# contributors.
#
data_7120815
loop_
_publ_author_name
'Li, Zijian'
'Liu, Yan'
'Xia, Qingchun'
'Cui, Yong'
_publ_section_title
;
 Chiral binary metal-organic frameworks for asymmetric sequential
 reactions
;
_journal_name_full               'Chem. Commun.'
_journal_paper_doi               10.1039/C7CC06979K
_journal_year                    2017
_chemical_absolute_configuration rmad
_chemical_formula_moiety         'C136 H150 Cd2 Fe2 N12 O18.48 V2'
_chemical_formula_sum            'C136 H150 Cd2 Fe2 N12 O18.48 V2'
_chemical_formula_weight         2686.77
_space_group_crystal_system      orthorhombic
_space_group_IT_number           17
_space_group_name_Hall           'P 2c 2'
_space_group_name_H-M_alt        'P 2 2 21'
_symmetry_space_group_name_Hall  'P 2c 2'
_symmetry_space_group_name_H-M   'P 2 2 21'
_atom_sites_solution_hydrogens   geom
_audit_block_doi                 10.5517/ccdc.csd.cc1p8k0j
_audit_creation_date             2016-09-21
_audit_creation_method
;
Olex2 1.2
(compiled 2016.09.09 svn.r3337 for OlexSys, GUI svn.r5227)
;
_audit_update_record
;
2017-06-20 deposited with the CCDC.
2017-10-23 downloaded from the CCDC.
;
_cell_angle_alpha                90
_cell_angle_beta                 90
_cell_angle_gamma                90
_cell_formula_units_Z            4
_cell_length_a                   24.1093(6)
_cell_length_b                   34.2098(8)
_cell_length_c                   23.7848(7)
_cell_measurement_reflns_used    2584
_cell_measurement_temperature    110(2)
_cell_measurement_theta_max      37.71
_cell_measurement_theta_min      2.57
_cell_volume                     19617.1(9)
_computing_cell_refinement       'Bruker Apex2'
_computing_data_collection       'Bruker SAINT'
_computing_data_reduction        'Bruker SAINT'
_computing_molecular_graphics    'Olex2 (Dolomanov et al., 2009)'
_computing_publication_material  'Olex2 (Dolomanov et al., 2009)'
_computing_structure_refinement  'ShelXL (Sheldrick, 2015)'
_diffrn_ambient_temperature      109.96
_diffrn_measured_fraction_theta_full 0.991
_diffrn_measured_fraction_theta_max 0.991
_diffrn_measurement_device_type  'CCD area detector'
_diffrn_measurement_method       'phi and omega scans'
_diffrn_radiation_type           CuK\a
_diffrn_radiation_wavelength     1.54178
_diffrn_reflns_av_R_equivalents  0.0684
_diffrn_reflns_av_unetI/netI     0.0731
_diffrn_reflns_Laue_measured_fraction_full 0.991
_diffrn_reflns_Laue_measured_fraction_max 0.991
_diffrn_reflns_limit_h_max       24
_diffrn_reflns_limit_h_min       -24
_diffrn_reflns_limit_k_max       34
_diffrn_reflns_limit_k_min       -34
_diffrn_reflns_limit_l_max       23
_diffrn_reflns_limit_l_min       -23
_diffrn_reflns_number            72080
_diffrn_reflns_point_group_measured_fraction_full 0.983
_diffrn_reflns_point_group_measured_fraction_max 0.983
_diffrn_reflns_theta_full        50.742
_diffrn_reflns_theta_max         50.742
_diffrn_reflns_theta_min         2.242
_exptl_absorpt_coefficient_mu    3.997
_exptl_crystal_colour            red
_exptl_crystal_density_diffrn    0.910
_exptl_crystal_description       block
_exptl_crystal_F_000             5567
_exptl_crystal_size_max          0.08
_exptl_crystal_size_mid          0.06
_exptl_crystal_size_min          0.05
_refine_diff_density_max         1.255
_refine_diff_density_min         -0.888
_refine_diff_density_rms         0.084
_refine_ls_abs_structure_details
;
 Flack x determined using 5444 quotients [(I+)-(I-)]/[(I+)+(I-)]
 (Parsons, Flack and Wagner, Acta Cryst. B69 (2013) 249-259).
;
_refine_ls_abs_structure_Flack   0.158(5)
_refine_ls_extinction_method     none
_refine_ls_goodness_of_fit_ref   1.004
_refine_ls_hydrogen_treatment    constr
_refine_ls_matrix_type           full
_refine_ls_number_parameters     1456
_refine_ls_number_reflns         20489
_refine_ls_number_restraints     2950
_refine_ls_restrained_S_all      0.979
_refine_ls_R_factor_all          0.1103
_refine_ls_R_factor_gt           0.0794
_refine_ls_shift/su_max          0.001
_refine_ls_shift/su_mean         0.000
_refine_ls_structure_factor_coef Fsqd
_refine_ls_weighting_details
'w=1/[\s^2^(Fo^2^)+(0.1508P)^2^+37.8803P] where P=(Fo^2^+2Fc^2^)/3'
_refine_ls_weighting_scheme      calc
_refine_ls_wR_factor_gt          0.2150
_refine_ls_wR_factor_ref         0.2432
_reflns_Friedel_coverage         0.832
_reflns_Friedel_fraction_full    0.974
_reflns_Friedel_fraction_max     0.974
_reflns_number_gt                14960
_reflns_number_total             20489
_reflns_threshold_expression     'I > 2\s(I)'
_iucr_refine_instructions_details
;

    a_sq.res created by SHELXL-2014/7

TITL b_a.res in P222(1)
REM Old TITL b in P222(1)
REM SHELXT solution in P222(1)
REM R1 0.450, Rweak 0.034, Alpha 0.031, Orientation a'=b, b'=c, c'=a
REM Flack x = 0.456 ( 0.005 ) from Parsons' quotients
REM Formula found by SHELXT: C119 N31 O28 V4 Cd2
CELL 1.54178 24.1093 34.2098 23.7848 90 90 90
ZERR 4 0.0006 0.0008 0.0007 0 0 0
LATT -1
SYMM -X,-Y,0.5+Z
SYMM -X,+Y,0.5-Z
SYMM +X,-Y,-Z
SFAC C H Cd Fe N O V
UNIT 544 600 8 8 48 73.93 8
DFIX 1.53 C90 C92 C90 C93 C90 C91 C102 C105 C102 C103 C102 C104
DFIX 1.53 C70 C68 C71 C68 C69 C68
DFIX 1.51 C30 C26 C14 C10
DFIX 1.53 C33 C30 C32 C30 C31 C30
DFIX 1.53 C15 C14 C16 C14 C17 C14
DFIX 1.53 C134 C132 C133 C132 C135 C132
DFIX 1.53 C93 C90 C92 C90 C91 C90
DFIX 1.53 C103 C102 C104 C102 C105 C102
DFIX 1.524 C6 C5
DFIX 1.524 C5 C4
DFIX 1.45 N2 C2
DFIX 1.51 C30 C26
DFIX 1.524 C110 C109 C111 C110
DFIX 1.53 C121 C120 C123 C120 C122 C120
DFIX 1.524 C82 C77
DFIX 1.45 N10 C78
DFIX 1.524 C44 C43 C44 C39
DFIX 1.524 C42 C41 C41 C40 C43 C42
DFIX 1.51 C98 C102 C90 C86
DFIX 1.51 C98 C102 C90 C86 C132 C130 C120 C116
DFIX 1.45 C96 C95
DFIX 1.51 C52 C48 C68 C64
DFIX 1.48 C56 C50
DFIX 2.1 H51 H60
DFIX 2.1 H49 H57
DFIX 1.53 C55 C52 C54 C52 C53 C52
DFIX 2.5 C55 C53
SIMU 0.02 0.04 2
RIGU 0.002 0.002
ISOR 0.01 0.2 N4
ISOR 0.001 0.002 O16
 
L.S. 10 0 577
PLAN  20
SIZE 0.08 0.06 0.05
TEMP -163.19
BOND $H
MORE -1
CONF
ABIN
fmap 2
acta
OMIT 6 4 0
OMIT 2 2 0
OMIT 3 0 2
OMIT 5 0 2
OMIT 0 4 4
OMIT 1 4 0
OMIT 0 8 2
OMIT -1 3 1
OMIT -2 2 3
REM <olex2.extras>
REM <HklSrc "%.\\a_sq.hkl">
REM </olex2.extras>
 
WGHT    0.150800   37.880302
FVAR       0.10632   0.51693
CD1   3    0.390491    0.534709    0.433769    11.00000    0.03445    0.03332 =
         0.08779   -0.00792   -0.00205   -0.00188
CD2   3    0.408527    0.966094    0.933063    11.00000    0.07336    0.02621 =
         0.10867   -0.00671    0.00923   -0.00302
FE1   4    0.890163    0.518778    0.432012    11.00000    0.01696    0.11011 =
         0.16218   -0.04418    0.00057    0.00414
FE2   4    0.910537    0.984318    0.930072    11.00000    0.06889    0.11797 =
         0.14213    0.04074   -0.00444   -0.00036
PART 1
V2    7    0.432191    0.720574    0.744038    21.00000    0.07420    0.03171 =
         0.07699   -0.00728   -0.01107    0.00148
V1    7    0.452534    0.786089    1.250712    21.00000    0.37162    0.04193 =
         0.09302   -0.00127    0.03602   -0.00316
PART 0
O18   6    0.387602    0.521039    0.616176    11.00000    0.02842    0.04130 =
         0.10449   -0.01472    0.00928    0.00151
C94   1    0.407404    0.949552    1.076398    11.00000    0.08450    0.03873 =
         0.10937    0.00535    0.00700    0.00269
O11   6    0.405213    0.977415    1.111734    11.00000    0.11852    0.04227 =
         0.11430    0.00099   -0.00819    0.01647
C108  1    0.403589    0.689446    0.864957    11.00000    0.07069    0.04388 =
         0.07734   -0.00127   -0.00081    0.00433
AFIX  13
H108  2    0.365615    0.677689    0.865153    11.00000   -1.20000
AFIX   0
O20   6    0.404089    0.898300    0.918443    11.00000    0.08671    0.03723 =
         0.12357   -0.01145   -0.00140    0.00285
O15   6    0.393650    0.768154    0.731877    11.00000    0.08159    0.03477 =
         0.08688   -0.00265   -0.01419    0.00183
O17   6    0.388688    0.544060    0.529177    11.00000    0.05951    0.06689 =
         0.09246   -0.02452    0.00410   -0.00324
O3    6    0.881521    0.500000    0.500000    10.50000    0.04052    0.09499 =
         0.16102   -0.05444    0.00000    0.00000
N12   5    0.402592    0.726398    0.829445    11.00000    0.08384    0.03831 =
         0.07715   -0.00745   -0.00715    0.00332
AFIX  66
C114  1    0.408335    0.631848    0.684439    11.00000    0.05182    0.03499 =
         0.07393   -0.00188   -0.00312   -0.00012
C119  1    0.405481    0.594766    0.660724    11.00000    0.04344    0.03551 =
         0.07313   -0.00307   -0.00540    0.00152
AFIX  43
H119  2    0.413709    0.572393    0.682865    11.00000   -1.20000
AFIX  65
C118  1    0.390587    0.590421    0.604615    11.00000    0.05310    0.04042 =
         0.07414   -0.00758   -0.00744    0.00465
C117  1    0.378547    0.623156    0.572219    11.00000    0.07672    0.04644 =
         0.06490   -0.00796   -0.00673    0.01332
AFIX  43
H117  2    0.368368    0.620185    0.533870    11.00000   -1.20000
AFIX  65
C116  1    0.381401    0.660238    0.595933    11.00000    0.07970    0.04692 =
         0.07547   -0.00925   -0.01130    0.01509
C115  1    0.396295    0.664584    0.652042    11.00000    0.05423    0.03412 =
         0.07217   -0.00391   -0.00170    0.00191
AFIX   0
O4    6    0.849327    0.950088    0.922666    11.00000    0.05664    0.13254 =
         0.13843    0.04836   -0.01720   -0.01509
AFIX  66
C29   1    1.086056    0.514221    0.425619    11.00000    0.02678    0.08677 =
         0.11946   -0.00285    0.01419    0.00548
AFIX  43
H29   2    1.103959    0.490080    0.417855    11.00000   -1.20000
AFIX  65
C28   1    1.117184    0.546581    0.441541    11.00000    0.02832    0.09017 =
         0.13846   -0.00134    0.00487    0.00152
C27   1    1.090988    0.581904    0.452901    11.00000    0.03709    0.08980 =
         0.16525   -0.00792    0.00644    0.00314
AFIX  43
H27   2    1.112262    0.604020    0.463782    11.00000   -1.20000
AFIX  65
C26   1    1.033664    0.584867    0.448340    11.00000    0.03787    0.09927 =
         0.20801   -0.03092   -0.00151    0.00931
C25   1    1.002535    0.552508    0.432419    11.00000    0.02544    0.09661 =
         0.18609   -0.03036    0.00636    0.01469
C24   1    1.028730    0.517185    0.421058    11.00000    0.02647    0.09520 =
         0.15699   -0.02830    0.00958    0.01066
AFIX   0
O19   6    0.405742    0.934573    0.844518    11.00000    0.13350    0.03557 =
         0.11893   -0.01167   -0.00623   -0.00166
O1    6    0.832423    0.556601    0.425540    11.00000    0.02805    0.11160 =
         0.19361   -0.03758   -0.00262    0.00037
O5    6    0.966686    0.943570    0.922288    11.00000    0.05711    0.11971 =
         0.17509    0.03242   -0.01141    0.00250
O2    6    0.948156    0.557867    0.428321    11.00000    0.02111    0.10669 =
         0.20442   -0.03787    0.00310    0.01144
AFIX  66
C85   1    0.398076    0.835972    1.152597    11.00000    0.34736    0.03971 =
         0.09557    0.00395    0.03457   -0.00930
C84   1    0.402287    0.869174    1.186012    11.00000    0.32644    0.04023 =
         0.09840    0.00133    0.03242   -0.00245
C89   1    0.406080    0.905865    1.161205    11.00000    0.26651    0.04138 =
         0.09608    0.00115    0.02231    0.00008
AFIX  43
H89   2    0.408958    0.928557    1.184043    11.00000   -1.20000
AFIX  65
C88   1    0.405663    0.909355    1.102982    11.00000    0.16867    0.03792 =
         0.09844    0.00341    0.02098    0.00394
C87   1    0.401452    0.876154    1.069566    11.00000    0.24702    0.04302 =
         0.09378    0.00331    0.03042   -0.00861
AFIX  43
H87   2    0.401167    0.878539    1.029773    11.00000   -1.20000
AFIX  65
C86   1    0.397658    0.839462    1.094373    11.00000    0.34971    0.04438 =
         0.09577    0.00614    0.03137   -0.01614
AFIX   0
C113  1    0.424088    0.632703    0.740887    11.00000    0.06300    0.03236 =
         0.07452    0.00135   -0.00322   -0.00259
AFIX  43
H113  2    0.434338    0.608325    0.756948    11.00000   -1.20000
AFIX  66
C50   1    0.679193    0.962311    0.930947    11.00000    0.06092    0.14019 =
         0.10234    0.01984    0.00167   -0.01469
C51   1    0.712563    0.993607    0.915292    11.00000    0.06357    0.14123 =
         0.11630    0.02550    0.00152   -0.01454
AFIX  43
H51   2    0.696189    1.017901    0.905351    11.00000   -1.20000
AFIX  65
C46   1    0.769889    0.989355    0.914181    11.00000    0.06817    0.13918 =
         0.12702    0.03241    0.00180   -0.01123
C47   1    0.793847    0.953808    0.928726    11.00000    0.04853    0.13273 =
         0.12960    0.02247   -0.01933   -0.02314
C48   1    0.760479    0.922513    0.944381    11.00000    0.06037    0.13827 =
         0.18956    0.03996   -0.01664   -0.02309
C49   1    0.703152    0.926764    0.945492    11.00000    0.05811    0.13477 =
         0.14001    0.02211   -0.01933   -0.02289
AFIX  43
H49   2    0.680345    0.905375    0.956191    11.00000   -1.20000
AFIX  66
C126  1    0.396202    0.796279    0.821411    11.00000    0.08844    0.03583 =
         0.09585   -0.00669   -0.00621    0.00291
C127  1    0.397988    0.829915    0.854145    11.00000    0.08873    0.03660 =
         0.10384   -0.01244   -0.00398    0.00115
AFIX  43
H127  2    0.396434    0.827999    0.893960    11.00000   -1.20000
AFIX  65
C128  1    0.402049    0.866355    0.828623    11.00000    0.08944    0.03566 =
         0.11812   -0.00689   -0.00524    0.00382
C129  1    0.404323    0.869159    0.770367    11.00000    0.12006    0.04211 =
         0.11848   -0.00424   -0.00223    0.00033
AFIX  43
H129  2    0.407098    0.894064    0.752924    11.00000   -1.20000
AFIX  65
C130  1    0.402537    0.835523    0.737633    11.00000    0.12535    0.04123 =
         0.11694   -0.00021   -0.00164   -0.00270
C131  1    0.398477    0.799083    0.763155    11.00000    0.09159    0.03420 =
         0.09580   -0.00812   -0.00823   -0.00110
AFIX   0
N2    5    0.947041    0.479338    0.398203    11.00000    0.02900    0.11234 =
         0.16856   -0.04505    0.00547    0.00806
N1    5    0.840662    0.484867    0.377879    11.00000    0.02666    0.11857 =
         0.16561   -0.05141   -0.00035    0.00376
N5    5    0.858246    1.024601    0.895326    11.00000    0.06590    0.13291 =
         0.14319    0.05103    0.00761    0.00225
AFIX  66
C12   1    0.665402    0.539541    0.434087    11.00000    0.02051    0.07711 =
         0.10904    0.00534   -0.00284    0.00159
C11   1    0.688793    0.573061    0.457080    11.00000    0.02577    0.08482 =
         0.14893   -0.01106   -0.00601   -0.00071
AFIX  43
H11   2    0.665821    0.592015    0.474686    11.00000   -1.20000
AFIX  65
C10   1    0.745793    0.578850    0.454313    11.00000    0.02853    0.09981 =
         0.19691   -0.03403   -0.00173   -0.00147
C9    1    0.779404    0.551118    0.428553    11.00000    0.02543    0.10703 =
         0.18029   -0.03110   -0.00596    0.00275
C8    1    0.756014    0.517597    0.405560    11.00000    0.01860    0.09575 =
         0.14045   -0.01543   -0.00177    0.00322
C13   1    0.699014    0.511808    0.408326    11.00000    0.01889    0.08801 =
         0.12026   -0.00358   -0.00667    0.00517
AFIX  43
H13   2    0.683028    0.488898    0.392612    11.00000   -1.20000
AFIX   0
O6    6    0.917871    1.000000    1.000000    10.50000    0.07251    0.11074 =
         0.14585    0.04090    0.00000    0.00000
AFIX  66
C62   1    1.045710    0.983311    0.906993    11.00000    0.07064    0.10485 =
         0.16613    0.02762   -0.00235    0.00432
C63   1    1.021637    0.948911    0.926273    11.00000    0.06162    0.10609 =
         0.17962    0.03378   -0.00846    0.00393
C64   1    1.054678    0.919553    0.948867    11.00000    0.07460    0.11358 =
         0.22791    0.04610   -0.02104    0.00438
C65   1    1.111793    0.924595    0.952181    11.00000    0.07848    0.09805 =
         0.18398    0.03029   -0.01628    0.00784
AFIX  43
H65   2    1.134376    0.904529    0.967623    11.00000   -1.20000
AFIX  65
C66   1    1.135867    0.958995    0.932900    11.00000    0.07857    0.08916 =
         0.15727    0.01328   -0.00750    0.01068
C67   1    1.102826    0.988353    0.910306    11.00000    0.06853    0.09234 =
         0.16177    0.02651    0.00054    0.00604
AFIX  43
H67   2    1.119279    1.011865    0.897129    11.00000   -1.20000
AFIX   0
O10   6    0.410775    0.952548    1.026735    11.00000    0.08914    0.05424 =
         0.11293    0.00715    0.00795   -0.00466
C125  1    0.399171    0.759222    0.850070    11.00000    0.08055    0.03604 =
         0.08740   -0.01087   -0.00675   -0.00044
AFIX  43
H125  2    0.398382    0.760323    0.889972    11.00000   -1.20000
AFIX  66
C59   1    0.534201    0.995517    0.902915    11.00000    0.07407    0.10296 =
         0.16449    0.03309   -0.00580   -0.02094
AFIX  43
H59   2    0.515274    1.014531    0.881021    11.00000   -1.20000
AFIX  65
N7    5    0.504286    0.969257    0.935616    11.00000    0.08096    0.05303 =
         0.11795   -0.02021    0.01127   -0.00993
C58   1    0.531979    0.941437    0.967650    11.00000    0.07020    0.11948 =
         0.18805    0.05183    0.02436   -0.00352
AFIX  43
H58   2    0.511533    0.923490    0.989999    11.00000   -1.20000
AFIX  65
C57   1    0.589586    0.939875    0.966984    11.00000    0.07220    0.15078 =
         0.18345    0.06411    0.02721   -0.00249
AFIX  43
H57   2    0.608512    0.920861    0.988878    11.00000   -1.20000
AFIX  65
C56   1    0.619502    0.966134    0.934284    11.00000    0.05768    0.12816 =
         0.10963    0.02183    0.00285   -0.01527
C60   1    0.591810    0.993955    0.902250    11.00000    0.07374    0.13279 =
         0.14556    0.03961   -0.00641   -0.01976
AFIX  43
H60   2    0.612256    1.011902    0.879901    11.00000   -1.20000
AFIX   0
N6    5    0.962634    1.017534    0.883095    11.00000    0.07162    0.12308 =
         0.15068    0.04017    0.00349    0.00435
C45   1    0.800398    1.021601    0.896498    11.00000    0.06308    0.13347 =
         0.13617    0.03073    0.00912    0.00027
AFIX  43
H45   2    0.779983    1.043712    0.884017    11.00000   -1.20000
AFIX   0
C2    1    0.918917    0.444501    0.372446    11.00000    0.03314    0.12430 =
         0.19057   -0.06655    0.00530    0.00878
AFIX  13
H2    2    0.905280    0.427763    0.404022    11.00000   -1.20000
AFIX   0
C61   1    1.018288    1.014331    0.880320    11.00000    0.07179    0.11481 =
         0.17516    0.04015    0.00380    0.00481
AFIX  43
H61   2    1.039117    1.033259    0.860111    11.00000   -1.20000
AFIX   0
C44   1    0.851243    1.091055    0.845880    11.00000    0.08192    0.15330 =
         0.18372    0.07686    0.02639    0.02147
AFIX  23
H44A  2    0.819746    1.101935    0.867520    11.00000   -1.20000
H44B  2    0.836610    1.077460    0.812262    11.00000   -1.20000
AFIX   0
C7    1    0.788444    0.486902    0.377303    11.00000    0.02698    0.10618 =
         0.14787   -0.02599   -0.00060    0.00298
AFIX  43
H7    2    0.768714    0.467303    0.357285    11.00000   -1.20000
AFIX   0
C33   1    0.970499    0.619967    0.513213    11.00000    0.04747    0.10794 =
         0.24694   -0.04658    0.00588    0.00681
AFIX  33
H33A  2    0.954797    0.645395    0.523542    11.00000   -1.50000
H33B  2    0.940493    0.602057    0.502771    11.00000   -1.50000
H33C  2    0.990950    0.609187    0.545269    11.00000   -1.50000
AFIX   0
C122  1    0.414489    0.721217    0.550601    11.00000    0.11824    0.07822 =
         0.10544    0.01127   -0.00073    0.02187
AFIX 137
H12A  2    0.424265    0.734186    0.585978    11.00000   -1.50000
H12B  2    0.406420    0.740975    0.521911    11.00000   -1.50000
H12C  2    0.445579    0.704926    0.538132    11.00000   -1.50000
AFIX   0
C40   1    0.935851    1.047210    0.841435    11.00000    0.07246    0.14964 =
         0.16999    0.06691    0.02213    0.01683
AFIX  13
H40   2    0.921205    1.033863    0.807102    11.00000   -1.20000
AFIX   0
C14   1    0.768739    0.615146    0.483858    11.00000    0.04034    0.11083 =
         0.23357   -0.05118   -0.00694   -0.00439
C17   1    0.725945    0.641104    0.511796    11.00000    0.04136    0.11410 =
         0.24100   -0.05845   -0.00694   -0.00388
AFIX 137
H17A  2    0.700842    0.651713    0.483206    11.00000   -1.50000
H17B  2    0.744692    0.662643    0.531210    11.00000   -1.50000
H17C  2    0.704615    0.625751    0.539046    11.00000   -1.50000
AFIX   0
C15   1    0.799313    0.640061    0.439260    11.00000    0.05983    0.11913 =
         0.24889   -0.04375    0.00276   -0.01074
AFIX 137
H15A  2    0.824914    0.623416    0.418019    11.00000   -1.50000
H15B  2    0.820208    0.660889    0.458012    11.00000   -1.50000
H15C  2    0.772180    0.651654    0.413508    11.00000   -1.50000
AFIX   0
C134  1    0.459586    0.814306    0.652272    11.00000    0.15710    0.06721 =
         0.13281    0.00200    0.01477   -0.01639
AFIX 137
H13A  2    0.494101    0.820389    0.672200    11.00000   -1.50000
H13B  2    0.464876    0.818436    0.611854    11.00000   -1.50000
H13C  2    0.449472    0.786973    0.659134    11.00000   -1.50000
AFIX   0
C71   1    0.992954    0.859314    0.920219    11.00000    0.09927    0.13261 =
         0.28529    0.04519   -0.03827   -0.00218
AFIX  33
H71A  2    0.964098    0.877341    0.907187    11.00000   -1.50000
H71B  2    1.016695    0.851931    0.888504    11.00000   -1.50000
H71C  2    0.975591    0.835852    0.936005    11.00000   -1.50000
AFIX   0
C70   1    0.990768    0.888052    1.016611    11.00000    0.08732    0.13902 =
         0.26474    0.06055   -0.02902   -0.00158
AFIX 137
H70A  2    1.013442    0.897738    1.047842    11.00000   -1.50000
H70B  2    0.971755    0.864023    1.028091    11.00000   -1.50000
H70C  2    0.963240    0.907875    1.006308    11.00000   -1.50000
AFIX   0
C68   1    1.028259    0.879444    0.965706    11.00000    0.08692    0.12023 =
         0.26539    0.05969   -0.02801   -0.00456
C69   1    1.071731    0.849198    0.983177    11.00000    0.08599    0.11974 =
         0.29626    0.06186   -0.03186   -0.00864
AFIX  33
H69A  2    1.095727    0.860342    1.012316    11.00000   -1.50000
H69B  2    1.053100    0.825902    0.997952    11.00000   -1.50000
H69C  2    1.094205    0.841981    0.950451    11.00000   -1.50000
AFIX   0
C30   1    1.009629    0.625018    0.463724    11.00000    0.04544    0.10468 =
         0.24745   -0.03714    0.00253    0.01086
O14   6    0.401020    0.699879    0.672821    11.00000    0.07714    0.03567 =
         0.07991   -0.00471   -0.01064    0.00388
C124  1    0.387754    0.549794    0.579617    11.00000    0.03265    0.04603 =
         0.09122   -0.01708    0.00253   -0.00036
C136  1    0.402738    0.902633    0.865014    11.00000    0.07708    0.03579 =
         0.11983   -0.00956   -0.00198    0.00202
N11   5    0.426401    0.662305    0.773610    11.00000    0.07146    0.03513 =
         0.07769   -0.00181   -0.00538   -0.00156
C112  1    0.447174    0.622307    0.860266    11.00000    0.06159    0.04575 =
         0.08620    0.00387    0.00318    0.00485
AFIX  23
H11A  2    0.410368    0.609508    0.858957    11.00000   -1.20000
H11B  2    0.473955    0.605297    0.840342    11.00000   -1.20000
AFIX   0
C107  1    0.444047    0.661479    0.830958    11.00000    0.06134    0.04240 =
         0.07662   -0.00184   -0.00239    0.00040
AFIX  13
H107  2    0.481919    0.673354    0.832462    11.00000   -1.20000
AFIX   0
C132  1    0.413375    0.840951    0.673483    11.00000    0.15462    0.06225 =
         0.11919    0.00218    0.00488   -0.01327
C120  1    0.363661    0.695744    0.559563    11.00000    0.10831    0.05774 =
         0.08197    0.00009   -0.00428    0.03054
C23   1    0.999058    0.482030    0.402591    11.00000    0.02846    0.09729 =
         0.16785   -0.03264    0.00608    0.01171
AFIX  43
H23   2    1.020548    0.459676    0.393261    11.00000   -1.20000
AFIX  66
C20   1    0.514261    0.556010    0.470589    11.00000    0.02610    0.12508 =
         0.16125   -0.07386   -0.00161   -0.00968
AFIX  43
H20   2    0.493533    0.572871    0.494374    11.00000   -1.20000
AFIX  65
C19   1    0.571829    0.558173    0.469896    11.00000    0.02837    0.13991 =
         0.16900   -0.07285    0.00192   -0.00940
AFIX  43
H19   2    0.590447    0.576511    0.493208    11.00000   -1.20000
AFIX  65
C18   1    0.602158    0.533503    0.435094    11.00000    0.01919    0.06971 =
         0.08869    0.00461   -0.00337   -0.00115
C22   1    0.574918    0.506670    0.400985    11.00000    0.02484    0.10833 =
         0.14690   -0.04275    0.00410   -0.00770
AFIX  43
H22   2    0.595646    0.489809    0.377200    11.00000   -1.20000
AFIX  65
C21   1    0.517350    0.504507    0.401677    11.00000    0.02821    0.10010 =
         0.14883   -0.05193    0.00492   -0.00824
AFIX  43
H21   2    0.498733    0.486168    0.378365    11.00000   -1.20000
AFIX  65
N3    5    0.487021    0.529177    0.436479    11.00000    0.01366    0.06345 =
         0.08602   -0.00643   -0.00475   -0.00492
AFIX   0
C43   1    0.892415    1.123895    0.828699    11.00000    0.09325    0.16268 =
         0.22001    0.09212    0.03225    0.01623
AFIX  23
H43A  2    0.871066    1.144749    0.809606    11.00000   -1.20000
H43B  2    0.908069    1.135333    0.863485    11.00000   -1.20000
AFIX   0
C4    1    0.924146    0.381947    0.313995    11.00000    0.07617    0.15210 =
         0.21495   -0.09199   -0.01642    0.02487
AFIX  43
H4    2    0.933945    0.355375    0.319989    11.00000   -1.20000
AFIX   0
C1    1    0.870861    0.456308    0.340017    11.00000    0.03519    0.13725 =
         0.18633   -0.06968    0.00279    0.00913
AFIX  13
H1    2    0.884961    0.471617    0.307176    11.00000   -1.20000
AFIX   0
C3    1    0.958606    0.418950    0.336210    11.00000    0.05115    0.15324 =
         0.20338   -0.08807   -0.00063    0.02644
AFIX  23
H3A   2    0.990535    0.410149    0.359118    11.00000   -1.20000
H3B   2    0.972888    0.434299    0.304030    11.00000   -1.20000
AFIX   0
C16   1    0.810186    0.603678    0.529593    11.00000    0.04500    0.11907 =
         0.23470   -0.05781   -0.01131    0.00348
AFIX  33
H16A  2    0.838855    0.586766    0.513421    11.00000   -1.50000
H16B  2    0.827479    0.627277    0.545028    11.00000   -1.50000
H16C  2    0.790802    0.589637    0.559655    11.00000   -1.50000
AFIX   0
C42   1    0.940299    1.112398    0.790753    11.00000    0.09726    0.17468 =
         0.22611    0.09722    0.03669    0.02502
AFIX  23
H42A  2    0.963381    1.135393    0.781206    11.00000   -1.20000
H42B  2    0.926641    1.100297    0.755569    11.00000   -1.20000
AFIX   0
C135  1    0.418713    0.884388    0.652249    11.00000    0.18822    0.06827 =
         0.14097    0.00789    0.00152   -0.01678
AFIX 137
H13D  2    0.383849    0.898289    0.659248    11.00000   -1.50000
H13E  2    0.426684    0.884473    0.611846    11.00000   -1.50000
H13F  2    0.448928    0.897433    0.672437    11.00000   -1.50000
AFIX   0
C31   1    1.052640    0.656866    0.481115    11.00000    0.05354    0.11198 =
         0.26075   -0.04126    0.00342    0.00366
AFIX  33
H31A  2    1.078873    0.661093    0.450234    11.00000   -1.50000
H31B  2    1.033229    0.681362    0.489435    11.00000   -1.50000
H31C  2    1.072839    0.648151    0.514601    11.00000   -1.50000
AFIX   0
C39   1    0.885205    1.063331    0.881933    11.00000    0.06674    0.13147 =
         0.16864    0.05665    0.01852    0.00671
AFIX  13
H39   2    0.899694    1.076479    0.916492    11.00000   -1.20000
AFIX   0
C5    1    0.874206    0.395717    0.282387    11.00000    0.07259    0.15717 =
         0.20480   -0.08406   -0.01060    0.01921
AFIX  43
H5    2    0.866125    0.388135    0.244847    11.00000   -1.20000
AFIX   0
C6    1    0.837481    0.423266    0.316741    11.00000    0.06060    0.14030 =
         0.20363   -0.07599   -0.01058    0.00721
AFIX  23
H6A   2    0.807560    0.433739    0.292539    11.00000   -1.20000
H6B   2    0.820051    0.408597    0.347969    11.00000   -1.20000
AFIX   0
C32   1    0.974350    0.639680    0.413769    11.00000    0.06034    0.12556 =
         0.25988   -0.02308   -0.00575    0.01009
AFIX  33
H32A  2    0.998200    0.643326    0.380819    11.00000   -1.50000
H32B  2    0.945541    0.620391    0.405103    11.00000   -1.50000
H32C  2    0.956932    0.664626    0.423698    11.00000   -1.50000
AFIX   0
C121  1    0.318235    0.720571    0.588763    11.00000    0.11394    0.06792 =
         0.09598   -0.00861   -0.00484    0.03008
AFIX 137
H12D  2    0.283132    0.706127    0.588714    11.00000   -1.50000
H12E  2    0.313499    0.745259    0.568423    11.00000   -1.50000
H12F  2    0.329357    0.726022    0.627610    11.00000   -1.50000
AFIX   0
PART 1
O16   6    0.500000    0.729356    0.750000    20.50000    0.05494    0.05220 =
         0.05354    0.00000   -0.00068    0.00000
O9    6    0.500000    0.787194    1.250000    20.50000    0.36893    0.04784 =
         0.08604    0.00000    0.03637    0.00000
PART 0
O7    6    0.399917    0.799616    1.177159    11.00000    0.36742    0.04179 =
         0.09751    0.00576    0.03859   -0.00820
C109  1    0.422514    0.695225    0.925399    11.00000    0.08063    0.05864 =
         0.07450   -0.00018   -0.00225    0.01160
AFIX  23
H10A  2    0.458023    0.709754    0.925917    11.00000   -1.20000
H10B  2    0.394587    0.710800    0.946118    11.00000   -1.20000
AFIX   0
O8    6    0.405305    0.733156    1.231449    11.00000    0.37141    0.04818 =
         0.09557    0.00645    0.03283   -0.00146
C111  1    0.464963    0.627000    0.920508    11.00000    0.05970    0.05966 =
         0.08766    0.00260    0.00076    0.00580
AFIX  23
H11C  2    0.504104    0.635733    0.921268    11.00000   -1.20000
H11D  2    0.463142    0.601197    0.939262    11.00000   -1.20000
AFIX  66
C101  1    0.403621    0.670471    1.357468    11.00000    0.23529    0.04511 =
         0.09678    0.00923    0.01725   -0.00914
AFIX  43
H101  2    0.405343    0.672723    1.397240    11.00000   -1.20000
AFIX  65
C96   1    0.407857    0.703668    1.324046    11.00000    0.30661    0.04646 =
         0.09306    0.00752    0.03010   -0.00717
C97   1    0.405338    0.700372    1.265854    11.00000    0.34265    0.04883 =
         0.09581    0.00773    0.02447   -0.00812
C98   1    0.398582    0.663880    1.241084    11.00000    0.31790    0.04717 =
         0.09717    0.00792    0.01275   -0.00193
C99   1    0.394346    0.630683    1.274506    11.00000    0.23540    0.04309 =
         0.09719    0.00643    0.00649   -0.00260
AFIX  43
H99   2    0.389728    0.605742    1.257577    11.00000   -1.20000
AFIX  65
C100  1    0.396865    0.633978    1.332698    11.00000    0.18907    0.04364 =
         0.09598    0.00918    0.00888   -0.00545
AFIX   0
N9    5    0.417805    0.839930    1.281076    11.00000    0.35802    0.05228 =
         0.09956    0.00036    0.03183   -0.00081
C110  1    0.430016    0.655975    0.953812    11.00000    0.08818    0.06472 =
         0.08244    0.00883    0.00694    0.01521
AFIX  23
H11E  2    0.392999    0.644340    0.960486    11.00000   -1.20000
H11F  2    0.447653    0.660175    0.990912    11.00000   -1.20000
AFIX   0
C123  1    0.339359    0.683286    0.501823    11.00000    0.12330    0.08786 =
         0.09438   -0.00907   -0.01527    0.04255
AFIX 137
H12G  2    0.368243    0.670367    0.479570    11.00000   -1.50000
H12H  2    0.326071    0.706462    0.481696    11.00000   -1.50000
H12I  2    0.308424    0.665167    0.507760    11.00000   -1.50000
AFIX   0
C83   1    0.413397    0.868928    1.246017    11.00000    0.34484    0.04580 =
         0.09971   -0.00191    0.02911   -0.00076
AFIX  43
H83   2    0.418235    0.894050    1.262316    11.00000   -1.20000
AFIX   0
N10   5    0.422762    0.774741    1.332941    11.00000    0.36955    0.05349 =
         0.09571    0.00345    0.03555   -0.00814
C78   1    0.435810    0.809320    1.368072    11.00000    0.36401    0.05937 =
         0.10112   -0.00372    0.03245   -0.00670
AFIX  13
H78   2    0.476744    0.813029    1.363884    11.00000   -1.20000
AFIX   0
C77   1    0.410923    0.843441    1.339477    11.00000    0.35287    0.06079 =
         0.10153   -0.00400    0.02925   -0.01028
AFIX  13
H77   2    0.370148    0.842587    1.347086    11.00000   -1.20000
AFIX   0
C102  1    0.397970    0.660645    1.177575    11.00000    0.35172    0.05558 =
         0.09751    0.00628    0.00828   -0.00197
C82   1    0.433396    0.881804    1.366291    11.00000    0.33410    0.06581 =
         0.11818   -0.01455    0.02561   -0.00178
AFIX  23
H82A  2    0.473711    0.883948    1.359010    11.00000   -1.20000
H82B  2    0.414916    0.904552    1.348654    11.00000   -1.20000
AFIX   0
C79   1    0.426278    0.810155    1.427328    11.00000    0.36056    0.06559 =
         0.10015   -0.00759    0.03065   -0.01105
AFIX  23
H79A  2    0.447293    0.788324    1.444440    11.00000   -1.20000
H79B  2    0.386410    0.804940    1.433893    11.00000   -1.20000
AFIX   0
C105  1    0.393793    0.618202    1.159467    11.00000    0.36910    0.06032 =
         0.11846   -0.00076   -0.00338   -0.00415
AFIX  33
H10C  2    0.393456    0.616722    1.118320    11.00000   -1.50000
H10D  2    0.425726    0.603655    1.174033    11.00000   -1.50000
H10E  2    0.359501    0.606825    1.174355    11.00000   -1.50000
AFIX   0
C95   1    0.416964    0.740264    1.356396    11.00000    0.35127    0.05018 =
         0.10294    0.00499    0.02988   -0.01085
AFIX  43
H95   2    0.418682    0.738613    1.396229    11.00000   -1.20000
AFIX   0
C93   1    0.323547    0.787852    1.075597    11.00000    0.39966    0.09613 =
         0.14815   -0.01247    0.03349   -0.04584
AFIX 137
H93A  2    0.296346    0.809102    1.073768    11.00000   -1.50000
H93B  2    0.324948    0.777467    1.113970    11.00000   -1.50000
H93C  2    0.312693    0.766997    1.049580    11.00000   -1.50000
AFIX   0
C91   1    0.378975    0.812109    0.996010    11.00000    0.41001    0.07322 =
         0.12204   -0.00752    0.02550   -0.02486
AFIX  33
H91A  2    0.351713    0.832776    0.988907    11.00000   -1.50000
H91B  2    0.415533    0.820632    0.982812    11.00000   -1.50000
H91C  2    0.367998    0.788339    0.975887    11.00000   -1.50000
AFIX   0
C81   1    0.423149    0.882450    1.428720    11.00000    0.33734    0.06766 =
         0.11770   -0.01489    0.02641   -0.01479
AFIX  23
H81A  2    0.442001    0.905615    1.444758    11.00000   -1.20000
H81B  2    0.382852    0.885704    1.435210    11.00000   -1.20000
AFIX   0
C80   1    0.441729    0.848006    1.459047    11.00000    0.36500    0.07342 =
         0.11668   -0.01372    0.02382   -0.00778
AFIX  23
H80A  2    0.424504    0.847641    1.496828    11.00000   -1.20000
H80B  2    0.482467    0.849193    1.463987    11.00000   -1.20000
AFIX   0
C133  1    0.361677    0.829047    0.641571    11.00000    0.16080    0.07319 =
         0.13741   -0.00053   -0.00434   -0.01184
AFIX  33
H13G  2    0.330422    0.845338    0.653609    11.00000   -1.50000
H13H  2    0.367849    0.832571    0.601162    11.00000   -1.50000
H13I  2    0.353320    0.801532    0.649299    11.00000   -1.50000
AFIX   0
C104  1    0.452620    0.674529    1.152143    11.00000    0.35614    0.05555 =
         0.09809   -0.00484    0.01358   -0.00401
AFIX 137
H10F  2    0.483280    0.659277    1.167975    11.00000   -1.50000
H10G  2    0.458063    0.702265    1.160846    11.00000   -1.50000
H10H  2    0.451623    0.670962    1.111274    11.00000   -1.50000
AFIX   0
C106  1    0.393916    0.599084    1.368952    11.00000    0.10861    0.04154 =
         0.09105    0.00644    0.00349   -0.00233
O12   6    0.394504    0.602041    1.419924    11.00000    0.06889    0.03779 =
         0.09098    0.00885    0.00630   -0.00314
O13   6    0.387173    0.566279    1.344789    11.00000    0.10279    0.04252 =
         0.08262    0.00737    0.00404   -0.00467
C103  1    0.348771    0.682891    1.151164    11.00000    0.36048    0.07388 =
         0.11367    0.00750   -0.00167    0.00218
AFIX 137
H10I  2    0.341232    0.672407    1.113589    11.00000   -1.50000
H10J  2    0.357995    0.710717    1.148262    11.00000   -1.50000
H10K  2    0.315837    0.679678    1.174868    11.00000   -1.50000
AFIX  66
C35   1    1.212564    0.569810    0.468512    11.00000    0.03452    0.11966 =
         0.22179   -0.06096   -0.00421    0.00428
AFIX  43
H35   2    1.194882    0.590828    0.487492    11.00000   -1.20000
AFIX  65
C36   1    1.270111    0.567432    0.467553    11.00000    0.03507    0.10752 =
         0.20200   -0.05210   -0.00216    0.00267
AFIX  43
H36   2    1.291761    0.586824    0.485878    11.00000   -1.20000
AFIX  65
N4    5    1.295982    0.536680    0.439781    11.00000    0.02043    0.06312 =
         0.10884    0.00400   -0.00800   -0.00461
C37   1    1.264306    0.508307    0.412968    11.00000    0.01564    0.10351 =
         0.18048   -0.04738   -0.00677   -0.00685
AFIX  43
H37   2    1.281988    0.487289    0.393988    11.00000   -1.20000
AFIX  65
C38   1    1.206759    0.510685    0.413927    11.00000    0.01296    0.11103 =
         0.18320   -0.04456   -0.01007   -0.00522
AFIX  43
H38   2    1.185110    0.491293    0.395602    11.00000   -1.20000
AFIX  65
C34   1    1.180887    0.541436    0.441698    11.00000    0.03492    0.09146 =
         0.14197   -0.01025    0.00274   -0.00114
AFIX  66
C76   1    1.225961    0.988058    0.899680    11.00000    0.08805    0.08592 =
         0.17864    0.02546   -0.00426    0.00829
AFIX  43
H76   2    1.205727    1.002913    0.872882    11.00000   -1.20000
AFIX  65
C75   1    1.283498    0.990400    0.901279    11.00000    0.08434    0.06153 =
         0.17972    0.02115   -0.00403    0.01016
AFIX  43
H75   2    1.302587    1.006856    0.875574    11.00000   -1.20000
AFIX  65
N8    5    1.313104    0.968666    0.940488    11.00000    0.11241    0.03203 =
         0.16512   -0.00280   -0.01514    0.00525
C74   1    1.285175    0.944589    0.978099    11.00000    0.10161    0.08332 =
         0.20362    0.04154   -0.01784    0.00245
AFIX  43
H74   2    1.305410    0.929734    1.004897    11.00000   -1.20000
AFIX  65
C73   1    1.227638    0.942246    0.976500    11.00000    0.09883    0.10391 =
         0.20179    0.04616   -0.01954    0.00228
AFIX  43
H73   2    1.208550    0.925790    1.002205    11.00000   -1.20000
AFIX  65
C72   1    1.198031    0.963981    0.937291    11.00000    0.08215    0.08198 =
         0.17147    0.02065   -0.00619    0.00936
AFIX   0
C54   1    0.827922    0.884847    1.004587    11.00000    0.09604    0.15865 =
         0.24440    0.04715   -0.04917   -0.02695
AFIX  33
H54A  2    0.808947    0.895983    1.037316    11.00000   -1.50000
H54B  2    0.841929    0.858763    1.014001    11.00000   -1.50000
H54C  2    0.858993    0.901757    0.993903    11.00000   -1.50000
AFIX   0
C52   1    0.786948    0.881765    0.955207    11.00000    0.08114    0.14064 =
         0.23612    0.03995   -0.03687   -0.01772
C53   1    0.813971    0.864562    0.902650    11.00000    0.10241    0.13728 =
         0.24454    0.04086   -0.03015   -0.00874
AFIX  33
H53A  2    0.786516    0.863124    0.872336    11.00000   -1.50000
H53B  2    0.844899    0.881260    0.890899    11.00000   -1.50000
H53C  2    0.827835    0.838266    0.910997    11.00000   -1.50000
AFIX   0
C55   1    0.742562    0.852850    0.977015    11.00000    0.09208    0.14637 =
         0.24659    0.04805   -0.03860   -0.02344
AFIX  33
H55A  2    0.724969    0.863636    1.010764    11.00000   -1.50000
H55B  2    0.714415    0.848756    0.947879    11.00000   -1.50000
H55C  2    0.760182    0.827841    0.986219    11.00000   -1.50000
AFIX   0
C41   1    0.973192    1.082865    0.825956    11.00000    0.08243    0.15848 =
         0.21422    0.08315    0.03056    0.01135
AFIX  23
H41A  2    0.986623    1.095607    0.860759    11.00000   -1.20000
H41B  2    1.005860    1.073772    0.804394    11.00000   -1.20000
AFIX   0
C90   1    0.381592    0.803675    1.058924    11.00000    0.39311    0.05930 =
         0.11790   -0.00628    0.02911   -0.03147
C92   1    0.424861    0.771797    1.061276    11.00000    0.39987    0.06350 =
         0.11655   -0.00336    0.03720   -0.02455
AFIX 137
H92A  2    0.461423    0.782929    1.053042    11.00000   -1.50000
H92B  2    0.416046    0.751637    1.033402    11.00000   -1.50000
H92C  2    0.425193    0.760140    1.098912    11.00000   -1.50000
AFIX   0
PART 2
V2A   7    0.379864    0.713918    0.749508   -21.00000    0.07711    0.02933 =
         0.07524   -0.00683   -0.00831   -0.00265
V1A   7    0.379363    0.783579    1.249131   -21.00000    0.36706    0.04767 =
         0.09425    0.00898    0.04070   -0.00165
O16A  6    0.314768    0.704666    0.751007   -21.00000    0.08064    0.03592 =
         0.08081   -0.01136   -0.00915   -0.00219
O9A   6    0.321550    0.782464    1.249108   -21.00000    0.36569    0.04335 =
         0.09248    0.03431    0.03245   -0.00510
HKLF 4
 
REM  b_a.res in P222(1)
REM R1 =  0.0794 for   14960 Fo > 4sig(Fo)  and  0.1103 for all   20489 data
REM   1456 parameters refined using   2950 restraints
 
END  
     
WGHT      0.1441     36.5216 

REM Highest difference peak  1.255,  deepest hole -0.888,  1-sigma level  0.084
Q1    1   0.4318  0.5331  0.4328  11.00000  0.05    1.25
Q2    1   0.3510  0.5325  0.4332  11.00000  0.05    0.95
Q3    1   0.4491  0.9657  0.9378  11.00000  0.05    0.87
Q4    1   1.3422  0.9679  0.9355  11.00000  0.05    0.81
Q5    1   1.2833  0.9886  0.9426  11.00000  0.05    0.65
Q6    1   0.7829  0.9632  0.9274  11.00000  0.05    0.64
Q7    1   0.3367  0.7753  1.2360  11.00000  0.05    0.61
Q8    1   0.4118  0.9702  0.8774  11.00000  0.05    0.54
Q9    1   0.8408  0.9683  0.9341  11.00000  0.05    0.52
Q10   1   0.3902  0.7842  1.2588  11.00000  0.05    0.47
Q11   1   0.3901  0.5010  0.5307  11.00000  0.05    0.46
Q12   1   0.3589  0.7708  1.3109  11.00000  0.05    0.46
Q13   1   0.4049  0.9136  1.1170  11.00000  0.05    0.46
Q14   1   1.2812  0.9319  0.9320  11.00000  0.05    0.45
Q15   1   0.3909  0.5998  1.3030  11.00000  0.05    0.44
Q16   1   0.3917  0.5695  1.4058  11.00000  0.05    0.44
Q17   1   0.4003  0.9272  0.9649  11.00000  0.05    0.43
Q18   1   0.5298  0.9628  0.9749  11.00000  0.05    0.43
Q19   1   0.5220  0.5366  0.4765  11.00000  0.05    0.42
Q20   1   1.0527  0.5907  0.4502  11.00000  0.05    0.41

  REM The information below was added by Olex2.
  REM
  REM R1 = 0.0794 for 14960 Fo > 4sig(Fo) and 0.1103 for all 72122 data
  REM n/a parameters refined using n/a restraints
  REM Highest difference peak 1.25, deepest hole -0.89
  REM Mean Shift 0, Max Shift 0.001.
  
  REM +++ Tabular Listing of Refinement Information +++
  REM R1_all = 0.1103
  REM R1_gt = 0.0794
  REM wR_ref = 0.2432
  REM GOOF = 1.004
  REM Shift_max = 0.001
  REM Shift_mean = 0
  REM Reflections_all = 72122
  REM Reflections_gt = 14960
  REM Parameters = n/a
  REM Hole = -0.89
  REM Peak = 1.25
  REM Flack = 0.158(5)
  
  
;
_cod_data_source_file            c7cc06979k2.cif
_cod_data_source_block           a_sq
_cod_database_code               7120815
_shelx_space_group_comment
;
The symmetry employed for this shelxl refinement is uniquely defined
by the following loop, which should always be used as a source of
symmetry information in preference to the above space-group names.
They are only intended as comments.
;
_shelx_estimated_absorpt_t_max   0.825
_shelx_estimated_absorpt_t_min   0.740
_olex2_refinement_description
;
1. Fixed Uiso
 At 1.2 times of:
  All C(H) groups, All C(H,H) groups
 At 1.5 times of:
  All C(H,H,H) groups
2. Restrained distances
 C90-C92 = C90-C93 = C90-C91 = C102-C105 = C102-C103 = C102-C104
 1.53 with sigma of 0.02
 C70-C68 = C71-C68 = C69-C68
 1.53 with sigma of 0.02
 C30-C26 = C14-C10
 1.51 with sigma of 0.02
 C33-C30 = C32-C30 = C31-C30
 1.53 with sigma of 0.02
 C15-C14 = C16-C14 = C17-C14
 1.53 with sigma of 0.02
 C134-C132 = C133-C132 = C135-C132
 1.53 with sigma of 0.02
 C93-C90 = C92-C90 = C91-C90
 1.53 with sigma of 0.02
 C103-C102 = C104-C102 = C105-C102
 1.53 with sigma of 0.02
 C6-C5
 1.524 with sigma of 0.02
 C5-C4
 1.524 with sigma of 0.02
 N2-C2
 1.45 with sigma of 0.02
 C30-C26
 1.51 with sigma of 0.02
 C110-C109 = C111-C110
 1.524 with sigma of 0.02
 C121-C120 = C123-C120 = C122-C120
 1.53 with sigma of 0.02
 C82-C77
 1.524 with sigma of 0.02
 N10-C78
 1.45 with sigma of 0.02
 C44-C43 = C44-C39
 1.524 with sigma of 0.02
 C42-C41 = C41-C40 = C43-C42
 1.524 with sigma of 0.02
 C98-C102 = C90-C86
 1.51 with sigma of 0.02
 C98-C102 = C90-C86 = C132-C130 = C120-C116
 1.51 with sigma of 0.02
 C96-C95
 1.45 with sigma of 0.02
 C52-C48 = C68-C64
 1.51 with sigma of 0.02
 C56-C50
 1.48 with sigma of 0.02
 H51-H60
 2.1 with sigma of 0.02
 H49-H57
 2.1 with sigma of 0.02
 C55-C52 = C54-C52 = C53-C52
 1.53 with sigma of 0.02
 C55-C53
 2.5 with sigma of 0.02
3. Uiso/Uaniso restraints and constraints
All non-hydrogen atoms have similar U: within 2A with sigma of 0.02 and sigma
for terminal atoms of 0.04
Uanis(N4) \\sim Ueq: with sigma of 0.01 and sigma for terminal atoms of 0.2
Uanis(O16) \\sim Ueq: with sigma of 0.001 and sigma for terminal atoms of 0.002
4. Rigid body (RIGU) restrains
 All non-hydrogen atoms
 with sigma for 1-2 distances of 0.002 and sigma for 1-3 distances of 0.002
5. Others
 Sof(V2A)=Sof(V1A)=Sof(O16A)=Sof(O9A)=1-FVAR(1)
 Sof(O16)=Sof(O9)=0.5*FVAR(2)
 Sof(V2)=Sof(V1)=FVAR(1)
6.a Ternary CH refined with riding coordinates:
 C108(H108), C2(H2), C40(H40), C107(H107), C1(H1), C39(H39), C78(H78), C77(H77)
6.b Secondary CH2 refined with riding coordinates:
 C44(H44A,H44B), C112(H11A,H11B), C43(H43A,H43B), C3(H3A,H3B), C42(H42A,H42B),
 C6(H6A,H6B), C109(H10A,H10B), C111(H11C,H11D), C110(H11E,H11F), C82(H82A,H82B),
  C79(H79A,H79B), C81(H81A,H81B), C80(H80A,H80B), C41(H41A,H41B)
6.c Me refined with riding coordinates:
 C33(H33A,H33B,H33C), C71(H71A,H71B,H71C), C69(H69A,H69B,H69C), C16(H16A,H16B,
 H16C), C31(H31A,H31B,H31C), C32(H32A,H32B,H32C), C105(H10C,H10D,H10E),
 C91(H91A,H91B,H91C), C133(H13G,H13H,H13I), C54(H54A,H54B,H54C), C53(H53A,H53B,
 H53C), C55(H55A,H55B,H55C)
6.d Aromatic/amide H refined with riding coordinates:
 C119(H119), C117(H117), C29(H29), C27(H27), C89(H89), C87(H87), C113(H113),
 C51(H51), C49(H49), C127(H127), C129(H129), C11(H11), C13(H13), C65(H65),
 C67(H67), C125(H125), C59(H59), C58(H58), C57(H57), C60(H60), C45(H45),
 C61(H61), C7(H7), C23(H23), C20(H20), C19(H19), C22(H22), C21(H21), C4(H4),
 C5(H5), C101(H101), C99(H99), C83(H83), C95(H95), C35(H35), C36(H36), C37(H37),
  C38(H38), C76(H76), C75(H75), C74(H74), C73(H73)
6.e Fitted hexagon refined as free rotating group:
 C114(C119,C118,C117,C116,C115), C29(C28,C27,C26,C25,C24), C85(C84,C89,C88,C87,
 C86), C50(C51,C46,C47,C48,C49), C126(C127,C128,C129,C130,C131), C12(C11,C10,C9,
 C8,C13), C62(C63,C64,C65,C66,C67), C59(N7,C58,C57,C56,C60), C20(C19,C18,C22,
 C21,N3), C101(C96,C97,C98,C99,C100), C35(C36,N4,C37,C38,C34), C76(C75,N8,C74,
 C73,C72)
6.f Idealised Me refined as rotating group:
 C122(H12A,H12B,H12C), C17(H17A,H17B,H17C), C15(H15A,H15B,H15C), C134(H13A,
 H13B,H13C), C70(H70A,H70B,H70C), C135(H13D,H13E,H13F), C121(H12D,H12E,H12F),
 C123(H12G,H12H,H12I), C93(H93A,H93B,H93C), C104(H10F,H10G,H10H), C103(H10I,
 H10J,H10K), C92(H92A,H92B,H92C)
;
_shelx_fab_checksum              991
_shelx_fab_file
;
    0    0    2   -983.27     -6.34
    0    0    4    186.74      5.69
    0    0    8     74.30     -0.21
    0    0   10    -66.66      3.18
    0    0   12     42.07     -3.05
    0    0   14    -27.72      0.34
    0    0   16     16.59      0.73
    0    0   18    -20.61      0.34
    0    0   20     21.13      0.03
    0    0   22     -6.91     -0.28
    1    0    2    -96.87      6.27
    1    0    3     -2.70     -1.90
    1    0    4    -97.00     -4.04
    1    0    5      4.19    -17.00
    1    0    6     71.33      1.92
    1    0    7     -4.48     25.98
    1    0    8    -25.88     -1.06
    1    0    9      0.03     -4.94
    1    0   10     14.78      0.72
    1    0   11      3.29     17.72
    1    0   12    -30.95     -0.91
    1    0   13     -7.06    -16.71
    1    0   14     18.35      0.76
    1    0   15      8.44     20.57
    1    0   16     -9.77      0.05
    1    0   17     -2.60     -5.69
    1    0   18      1.00      0.46
    1    0   19      0.15     -1.66
    1    0   20      3.42     -0.04
    1    0   21      0.24      1.62
    1    0   22      0.62     -0.11
    1    0   23     -0.11      4.59
    2    0    0   -595.40     -0.74
    2    0    1     11.91    -24.47
    2    0    2    210.07     -4.04
    2    0    3    -15.14     -6.84
    2    0    4     80.39      1.03
    2    0    5     13.11     25.88
    2    0    6    -35.34     -0.71
    2    0    7     -8.29      2.80
    2    0    8     24.01      0.85
    2    0    9      2.96      7.91
    2    0   10     -8.75     -3.05
    2    0   11     -0.92     -7.31
    2    0   12     -9.83      1.81
    2    0   13      0.23     15.57
    2    0   14     -6.61      0.68
    2    0   15      1.05     -0.85
    2    0   16     10.29     -0.38
    2    0   17      0.14      1.65
    2    0   18     -5.24     -0.35
    2    0   19      0.03     -3.42
    2    0   20      1.24      0.59
    2    0   21     -0.04      5.03
    2    0   22     -3.68      0.21
    2    0   23      0.30      2.12
    3    0    0   -261.98     -1.29
    3    0    1     -5.59    -42.15
    3    0    2     12.15    -17.55
    3    0    3      3.81     -5.26
    3    0    4     51.22      6.14
    3    0    5     -2.40     42.95
    3    0    6      6.52      2.63
    3    0    7      0.76    -13.59
    3    0    8    -18.37     -0.92
    3    0    9      1.18     -0.30
    3    0   10      6.04     -1.09
    3    0   11     -1.73     -3.86
    3    0   12      1.88      1.14
    3    0   13      4.46     11.37
    3    0   14     -1.10      0.51
    3    0   15     -4.46    -11.62
    3    0   16     -2.25     -1.05
    3    0   17      1.78      5.82
    3    0   18      1.40     -0.91
    3    0   19      0.02      0.96
    3    0   20      1.31      1.73
    3    0   21     -0.51     -2.86
    3    0   22     -3.19     -0.25
    3    0   23      0.69      1.42
    4    0    1    -25.00     -0.05
    4    0    2   -160.45     27.38
    4    0    3     25.26      8.58
    4    0    4     49.42     -9.93
    4    0    5    -19.57     -7.77
    4    0    6    -53.28     -1.89
    4    0    7      9.23    -13.35
    4    0    8     42.26      3.17
    4    0    9     -2.53      0.72
    4    0   10    -32.94     -0.22
    4    0   11      2.02     10.18
    4    0   12     28.00     -1.34
    4    0   13     -1.53    -12.65
    4    0   14     -8.29      1.23
    4    0   15      2.04     -1.19
    4    0   16      2.85     -0.21
    4    0   17     -1.16      4.59
    4    0   18      1.40     -1.84
    4    0   19     -0.29     -5.53
    4    0   20      1.25      1.74
    4    0   21      0.22     -1.08
    4    0   22     -0.53     -0.29
    4    0   23     -0.22     -5.90
    5    0    1     -2.79     23.25
    5    0    2     73.53     84.10
    5    0    3      3.54     28.07
    5    0    4    -50.69    -47.10
    5    0    5     -2.71    -58.06
    5    0    6     20.71     11.49
    5    0    7     -0.88      3.83
    5    0    8     -7.02     -0.39
    5    0    9      0.99      9.66
    5    0   10     -2.87     -2.79
    5    0   11      1.58      2.77
    5    0   12      6.24      0.46
    5    0   13     -4.85     -3.86
    5    0   14      1.41      0.93
    5    0   15      6.97      1.56
    5    0   16      4.52     -1.32
    5    0   17     -4.62     -6.29
    5    0   18     -0.83      0.57
    5    0   19      1.29     -0.62
    5    0   20      1.53     -0.38
    5    0   21     -0.38     -4.67
    5    0   22     -2.16      0.01
    5    0   23     -0.40     -1.24
    6    0    1     15.35     -6.19
    6    0    2     20.99     27.45
    6    0    3    -16.10     22.27
    6    0    4     -1.28    -11.12
    6    0    5     13.20    -38.92
    6    0    6     13.47     -0.60
    6    0    7     -9.13     26.40
    6    0    8    -11.80      3.61
    6    0    9      5.09     -3.24
    6    0   10    -13.69     -2.24
    6    0   11     -2.02      9.35
    6    0   12     16.64     -1.13
    6    0   13     -0.08     -6.28
    6    0   14     -5.47      0.54
    6    0   15      0.63     -3.33
    6    0   16     -4.42     -0.57
    6    0   17     -1.62     -4.71
    6    0   18      9.31     -0.17
    6    0   19      1.15      3.16
    6    0   20     -8.48     -0.01
    6    0   21     -0.39     -5.12
    6    0   22      6.31      0.42
    6    0   23     -0.27      4.17
    7    0    0     36.43     -0.05
    7    0    1     -2.41     -3.22
    7    0    2     15.82    -24.69
    7    0    3     -0.32    -24.25
    7    0    4    -33.46      9.46
    7    0    5      0.53     24.67
    7    0    6      5.94      1.11
    7    0    7      1.92     -6.12
    7    0    8    -10.94     -1.28
    7    0    9     -1.46      9.62
    7    0   10     12.73      1.07
    7    0   11     -0.79      5.41
    7    0   12     -8.90      0.32
    7    0   13      2.52    -14.26
    7    0   14     -0.82     -1.67
    7    0   15     -3.99     -0.25
    7    0   16     -3.30      0.54
    7    0   17      1.56      0.77
    7    0   18      3.93     -0.37
    7    0   19     -0.07      1.91
    7    0   20     -2.34      0.14
    7    0   21      0.57     -3.06
    7    0   22      2.82      0.27
    8    0    0     47.91      0.18
    8    0    1     -8.16     18.45
    8    0    2    -42.09     -9.54
    8    0    3      6.75     -3.60
    8    0    4     -0.78     -0.80
    8    0    5     -8.58    -16.54
    8    0    6    -21.40      2.97
    8    0    7     12.71      0.13
    8    0    8     17.53     -2.24
    8    0    9    -10.93      5.52
    8    0   10     14.02      0.25
    8    0   11      4.16     -3.40
    8    0   12     -8.50      0.93
    8    0   13     -1.20     -1.96
    8    0   14     -3.49     -0.13
    8    0   15     -0.55      4.43
    8    0   16      6.48      0.37
    8    0   17      0.81      0.58
    8    0   18     -6.10     -0.64
    8    0   19     -0.73     -0.35
    8    0   20      5.35      0.74
    8    0   21      1.51     -2.75
    8    0   22     -5.89     -0.04
    9    0    0    -35.98      0.30
    9    0    1      0.39     23.94
    9    0    2     18.91      8.78
    9    0    3     -1.17     -1.99
    9    0    4    -46.84     -6.64
    9    0    5     -0.85    -18.77
    9    0    6     32.98      3.70
    9    0    7      3.95      1.73
    9    0    8     -4.62     -2.00
    9    0    9     -4.14      1.44
    9    0   10      4.77     -0.75
    9    0   11      1.62     -7.14
    9    0   12      4.93      0.15
    9    0   13     -2.60      3.24
    9    0   14      1.22      1.02
    9    0   15      2.62      3.72
    9    0   16     -2.00     -0.05
    9    0   17     -0.87      2.76
    9    0   18      0.49     -0.34
    9    0   19     -0.19     -3.83
    9    0   20     -2.39      0.84
    9    0   21      0.72      1.57
    9    0   22      2.30     -0.23
   10    0    0     21.96      0.57
   10    0    1      3.46      4.01
   10    0    2    -11.97     -1.40
   10    0    3     -2.24    -12.19
   10    0    4     32.11      3.18
   10    0    5      2.69     18.91
   10    0    6    -27.77     -0.04
   10    0    7     -3.78     -5.54
   10    0    8     15.16      0.20
   10    0    9      3.10      0.10
   10    0   10    -12.28     -0.01
   10    0   11     -1.54     -3.74
   10    0   12      3.67     -0.57
   10    0   13      1.08     -5.44
   10    0   14     -0.06      0.11
   10    0   15      0.03      1.94
   10    0   16      2.24      0.00
   10    0   17      0.04      0.89
   10    0   18     -4.05      0.41
   10    0   19     -0.07      1.19
   10    0   20      2.51     -0.53
   10    0   21     -0.49      0.47
   11    0    0    -28.83      0.00
   11    0    1      0.58     -3.46
   11    0    2     41.56     -0.26
   11    0    3      2.41     -5.49
   11    0    4      5.75     -0.09
   11    0    5     -1.75     16.59
   11    0    6     -6.45      0.26
   11    0    7     -0.87    -11.73
   11    0    8     -8.64      1.49
   11    0    9      1.60      4.02
   11    0   10      6.68     -0.49
   11    0   11     -2.09     -2.88
   11    0   12    -10.77      0.18
   11    0   13      5.20     -0.12
   11    0   14      2.48      0.17
   11    0   15     -3.35     -1.47
   11    0   16      2.66     -0.60
   11    0   17      1.03     -1.85
   11    0   18      0.78      0.23
   11    0   19      0.34      4.86
   11    0   20     -1.33     -0.06
   11    0   21     -1.18     -4.40
   12    0    0     24.04     -0.71
   12    0    1     -1.88     -0.30
   12    0    2    -16.37      3.10
   12    0    3      0.91     -2.38
   12    0    4      7.64     -2.33
   12    0    5     -1.43     -6.99
   12    0    6      2.99     -0.72
   12    0    7      0.97     -1.51
   12    0    8      3.61      0.37
   12    0    9     -0.84     -1.45
   12    0   10     -6.04      0.14
   12    0   11      1.53      5.46
   12    0   12      8.59      0.40
   12    0   13     -0.87      1.29
   12    0   14     -3.37      0.31
   12    0   15      0.37      2.31
   12    0   16      1.84     -0.60
   12    0   17     -0.08     -1.34
   12    0   18      0.14     -0.10
   12    0   19     -0.01     -1.61
   12    0   20      2.21      0.49
   13    0    0    -20.71      2.22
   13    0    1     -2.14     -0.45
   13    0    2     11.77     -1.38
   13    0    3     -3.01    -10.23
   13    0    4    -23.03     -0.33
   13    0    5      3.47      4.66
   13    0    6     21.39     -0.74
   13    0    7     -2.31      2.88
   13    0    8    -14.47     -1.19
   13    0    9      1.43     -4.49
   13    0   10      7.15      0.84
   13    0   11      1.86      1.87
   13    0   12      3.40      0.72
   13    0   13     -5.63      3.18
   13    0   14      1.43     -0.36
   13    0   15      3.75      3.41
   13    0   16     -3.79     -0.37
   13    0   17     -1.22     -3.27
   13    0   18      0.94      0.24
   13    0   19      0.12      1.47
   13    0   20      4.15      0.24
   14    0    0     -5.94     -2.69
   14    0    1     -1.02     -4.75
   14    0    2     -8.42      0.76
   14    0    3     -0.39      8.29
   14    0    4     20.25      0.07
   14    0    5      2.17     10.38
   14    0    6    -22.41     -0.25
   14    0    7     -1.61     -0.41
   14    0    8      5.18      0.30
   14    0    9      0.66     -5.06
   14    0   10     -5.27     -0.20
   14    0   11     -0.28     -1.19
   14    0   12      3.75      0.30
   14    0   13     -1.09      1.82
   14    0   14     -0.70      0.29
   14    0   15      0.81      1.77
   14    0   16      0.42     -0.69
   14    0   17      0.40     -1.24
   14    0   18     -0.64      0.34
   14    0   19     -0.41      2.46
   15    0    0      5.95     -7.50
   15    0    1     -4.53      3.50
   15    0    2     -7.12      2.60
   15    0    3      6.50      9.48
   15    0    4      2.30      2.19
   15    0    5     -3.58      5.54
   15    0    6      6.35      0.39
   15    0    7      0.24     -6.05
   15    0    8     -4.25      0.44
   15    0    9      0.15      2.33
   15    0   10     -0.52     -1.19
   15    0   11     -1.32      0.49
   15    0   12     -4.84      0.52
   15    0   13      2.54     -1.09
   15    0   14      6.06     -0.15
   15    0   15     -1.16      0.17
   15    0   16      0.46     -0.23
   15    0   17      0.87      3.33
   15    0   18     -1.80      0.16
   16    0    0     -0.82      7.68
   16    0    1     -1.32      9.42
   16    0    2      0.88     -4.72
   16    0    3      1.10     -5.18
   16    0    4     -9.41      2.18
   16    0    5     -2.06     -9.44
   16    0    6     22.20      1.65
   16    0    7      0.49      6.44
   16    0    8     -2.12     -1.20
   16    0    9      0.15     -0.51
   16    0   10     -6.11     -0.74
   16    0   11      1.13      6.11
   16    0   12      3.36      0.50
   16    0   13     -0.54     -1.79
   16    0   14     -3.27     -0.56
   16    0   15      0.25      1.82
   16    0   16      2.84     -0.05
   16    0   17      0.03     -0.23
   17    0    0      9.93     26.16
   17    0    1      8.77     12.78
   17    0    2    -15.24    -10.41
   17    0    3    -10.97    -19.32
   17    0    4     18.41     -2.40
   17    0    5      5.06     -4.61
   17    0    6     -5.08      1.72
   17    0    7      0.24     -5.03
   17    0    8      2.85      0.30
   17    0    9     -0.93      7.78
   17    0   10     -4.80     -1.24
   17    0   11      1.50     -5.38
   17    0   12      2.78      0.42
   17    0   13     -1.19     12.66
   17    0   14     -7.27     -0.11
   17    0   15      0.30     -6.48
   17    0   16      0.24     -0.25
   18    0    0     13.17      7.35
   18    0    1      7.70     14.50
   18    0    2    -18.49      2.85
   18    0    3     -9.61    -21.59
   18    0    4     13.40    -10.52
   18    0    5      6.22     -1.77
   18    0    6    -11.75      4.66
   18    0    7      0.10     -6.67
   18    0    8      4.10      0.65
   18    0    9     -2.85     -4.44
   18    0   10     -2.55     -1.76
   18    0   11      1.00      6.93
   18    0   12     -0.26      0.94
   18    0   13      0.02     -3.88
   18    0   14     -2.23     -0.12
   18    0   15     -0.07      2.07
   19    0    0      6.55     -8.46
   19    0    1     -2.38      6.59
   19    0    2    -10.24      2.96
   19    0    3      1.86     -8.04
   19    0    4     -2.77     -0.48
   19    0    5     -0.19     -6.20
   19    0    6     -7.08     -0.05
   19    0    7      1.04     -0.95
   19    0    8      2.35      0.49
   19    0    9     -2.98      0.77
   19    0   10      3.27     -0.01
   19    0   11      0.66     -3.77
   19    0   12     -0.78     -0.11
   19    0   13      0.53     -3.26
   19    0   14      2.39     -0.06
   20    0    0    -11.51     -3.05
   20    0    1     -3.03     -2.99
   20    0    2     13.75      5.04
   20    0    3      3.50      5.24
   20    0    4     -3.75     -1.46
   20    0    5     -1.42     -0.82
   20    0    6    -16.23      1.64
   20    0    7     -0.29      0.90
   20    0    8      3.78     -1.14
   20    0    9     -0.18      4.13
   20    0   10      2.68      0.88
   20    0   11      0.05     -5.79
   20    0   12      5.09     -0.47
   20    0   13      0.17     -2.17
   21    0    0     -4.92      3.87
   21    0    1      3.61     -1.58
   21    0    2     11.28      3.28
   21    0    3     -2.75      4.50
   21    0    4      5.82     -2.14
   21    0    5      1.83      5.38
   21    0    6    -10.43      0.72
   21    0    7     -1.60      0.11
   21    0    8      4.53      0.44
   21    0    9      1.18     -0.29
   21    0   10     -0.65     -0.02
   21    0   11     -0.03      0.18
   22    0    1      6.41      5.83
   22    0    2    -23.30     -7.53
   22    0    3     -5.36      0.57
   22    0    4     20.33      5.75
   22    0    5      2.29     -1.67
   22    0    6      4.99     -3.19
   22    0    7     -0.57      1.47
   22    0    8      7.82      1.05
   22    0    9      0.07     -2.74
   23    0    0     24.45      0.14
   23    0    1     -1.16     11.05
   23    0    2    -35.88    -17.04
   23    0    3      0.62     -8.42
   23    0    4     24.43     12.35
   23    0    5     -1.06      6.41
   23    0    6      3.30     -6.18
   23    0    7      0.63     -8.61
   24    0    0     -0.65      0.68
   24    0    1     -1.11      4.84
   24    0    2     -6.85     -5.87
    0    1    1     37.38     -1.16
    0    1    2      2.55     -1.71
    0    1    3     12.10      1.89
    0    1    4     16.06      4.20
    0    1    5    -30.15      0.49
    0    1    6     -5.91     -4.23
    0    1    7     13.68     -3.33
    0    1    8     11.74      5.59
    0    1    9     11.10      1.05
    0    1   10    -26.24     -4.47
    0    1   11    -15.62      1.11
    0    1   12     22.83      2.63
    0    1   13      2.66     -0.22
    0    1   14     -2.01     -0.47
    0    1   15      1.28     -0.79
    0    1   16     -0.32     -1.39
    0    1   17     -1.33      0.07
    0    1   18      0.53     -0.06
    0    1   20     -5.62      0.31
    0    1   21     -1.86     -0.40
    0    1   22      8.59      0.37
    0    1   23     -5.88      0.01
    1    1    0     -8.10     -2.40
    1    1    1     28.42    117.18
    1    1    2    -18.19     11.02
    1    1    3     -9.30    -61.83
    1    1    4     22.54    -18.22
    1    1    5     -3.97    -43.09
    1    1    6      9.25      9.22
    1    1    7      2.60      8.82
    1    1    8    -11.71     -1.80
    1    1    9     -5.99     12.58
    1    1   10      3.10      4.99
    1    1   11      1.68     -1.24
    1    1   12      5.26     -9.01
    1    1   13     -0.15    -15.18
    1    1   14     -0.50     -7.02
    1    1   15      1.89     11.41
    1    1   16     -1.21      5.55
    1    1   17     -0.81      1.79
    1    1   18     -0.59     -2.23
    1    1   19      0.17     -5.70
    1    1   20      1.94      1.63
    1    1   21     -1.58      2.91
    1    1   22     -2.56     -0.41
    1    1   23     -3.43     -2.86
    2    1    0    -30.30     -0.07
    2    1    2     -6.97    140.70
    2    1    4     14.55    -63.83
    2    1    5     16.22     -0.68
    2    1    6     -2.58      0.36
    2    1    7    -12.70     -0.51
    2    1    8     -5.64     -3.22
    2    1    9    -19.91     13.88
    2    1   10      8.81      2.15
    2    1   11     21.29    -16.24
    2    1   12     -6.13     -7.28
    2    1   13     -7.47      6.90
    2    1   14      1.61      2.00
    2    1   15      2.97     -6.79
    2    1   16     -3.56      3.56
    2    1   17      1.55      4.36
    2    1   18      0.95     -5.95
    2    1   19     -1.81     -2.40
    2    1   20      3.48     -1.38
    2    1   21      0.20      2.23
    2    1   22     -5.60      1.08
    2    1   23      1.67     -1.18
    3    1    0    -17.89      1.29
    3    1    1     50.60    -44.08
    3    1    2     53.19    116.77
    3    1    3      6.00     23.77
    3    1    4    -37.25    -33.04
    3    1    5     -2.94      1.26
    3    1    6    -18.52    -23.80
    3    1    7     -9.36     -3.14
    3    1    8     23.94      4.40
    3    1    9     -1.19     13.81
    3    1   10    -20.56      2.64
    3    1   11      7.69    -12.82
    3    1   12      4.77      5.82
    3    1   13     -3.15     -0.08
    3    1   14     -1.42      2.27
    3    1   15     -7.62     -0.97
    3    1   16     -2.01     -1.94
    3    1   17      6.62     -4.53
    3    1   18      1.43     -4.11
    3    1   19     -2.29      4.13
    3    1   20     -0.51     -1.25
    3    1   21     -1.11     -1.12
    3    1   22      0.62      1.02
    3    1   23      7.96      1.81
    4    1    0     36.17      0.07
    4    1    1     98.12    -67.25
    4    1    2     22.79    -43.28
    4    1    3     -2.09     45.54
    4    1    4    -33.01     22.25
    4    1    5    -28.90      6.57
    4    1    6     -0.74    -15.04
    4    1    7      9.45    -16.55
    4    1    8      5.12      8.64
    4    1    9      5.08     25.26
    4    1   10      1.92      9.08
    4    1   11      3.80    -14.69
    4    1   12     -7.04      4.00
    4    1   13     -4.74      2.38
    4    1   14      0.68     -4.34
    4    1   15     -9.59     -4.01
    4    1   16      3.03     -1.39
    4    1   17      4.76      5.55
    4    1   18     -3.86      2.21
    4    1   19      0.11     -3.12
    4    1   20      2.72      0.66
    4    1   21     -1.92     -2.34
    4    1   22     -1.26      0.06
    4    1   23      6.74      2.85
    5    1    0     19.43     -0.91
    5    1    1     62.50     18.92
    5    1    2    -20.49    -63.13
    5    1    3     -2.65    -36.43
    5    1    4      0.67      2.27
    5    1    5    -19.74     15.52
    5    1    6      8.44     13.68
    5    1    7     -0.33      4.87
    5    1    8      6.44      8.32
    5    1    9      5.25    -10.68
    5    1   10      2.86     -0.81
    5    1   11      6.37      6.91
    5    1   12      3.13     -4.71
    5    1   13     -7.06      3.96
    5    1   14     -6.64     -3.38
    5    1   15      2.82     -0.46
    5    1   16      3.31      3.70
    5    1   17     -0.04      2.34
    5    1   18     -0.88      3.72
    5    1   19      1.04     -0.10
    5    1   20      0.56     -0.81
    5    1   21     -4.21     -1.38
    5    1   22     -0.96      2.77
    5    1   23      2.07     -1.57
    6    1    0    -25.01      0.05
    6    1    1    -28.13     20.76
    6    1    2     12.71     -2.12
    6    1    3     30.71    -19.78
    6    1    4    -24.64    -20.49
    6    1    5    -17.84     14.45
    6    1    6     21.32     14.08
    6    1    7     -7.75     -0.64
    6    1    8      1.63     -2.65
    6    1    9     10.25    -12.84
    6    1   10      1.39     -5.18
    6    1   11      2.83      2.26
    6    1   12     -2.19     -5.74
    6    1   13     -3.67     12.31
    6    1   14      2.80      3.09
    6    1   15      8.97     -4.41
    6    1   16     -4.38      3.70
    6    1   17     -1.05      1.30
    6    1   18      2.45     -1.02
    6    1   19     -1.08      1.85
    6    1   20      1.56      3.17
    6    1   21     -3.31      0.87
    6    1   22     -2.65      3.11
    6    1   23     -0.10     -0.61
    7    1    0     16.11      0.46
    7    1    1    -28.58    -29.16
    7    1    2      1.14      1.38
    7    1    3     11.13     45.68
    7    1    4    -14.97     -2.54
    7    1    5     -8.46      6.89
    7    1    6      7.13      1.10
    7    1    7     -6.94    -16.46
    7    1    8      0.94    -16.55
    7    1    9     18.34      1.44
    7    1   10     -9.88      5.88
    7    1   11     -2.92     -3.33
    7    1   12      4.41     -4.49
    7    1   13      1.51      6.28
    7    1   14     -3.44      8.88
    7    1   15     -1.00     -6.74
    7    1   16      4.05     -2.54
    7    1   17      1.87      8.13
    7    1   18     -0.25     -0.64
    7    1   19     -1.31     -5.83
    7    1   20     -0.52      6.15
    7    1   21      1.11      4.26
    7    1   22      0.72     -0.50
    8    1    0     15.55      0.33
    8    1    1     19.36    -14.49
    8    1    2    -11.23      0.62
    8    1    3    -15.04     23.19
    8    1    4      5.93      4.12
    8    1    5     -5.92     -2.93
    8    1    6      3.51      0.11
    8    1    7      4.40     -5.88
    8    1    8    -10.93     -4.63
    8    1    9      2.02      1.01
    8    1   10      1.39     -6.55
    8    1   11      0.45     -0.94
    8    1   12     -3.82      8.25
    8    1   13     -2.80      0.14
    8    1   14      7.37      0.25
    8    1   15     -1.14     -1.32
    8    1   16     -2.10     -0.82
    8    1   17      2.29      0.48
    8    1   18      2.75     -0.24
    8    1   19      1.19      0.85
    8    1   20     -4.24      2.63
    8    1   21      1.39     -3.01
    8    1   22      4.13     -2.83
    9    1    0      4.61      0.73
    9    1    1     22.80     15.40
    9    1    2    -15.65      6.16
    9    1    3     -7.44    -23.12
    9    1    4     20.24      1.30
    9    1    5     -1.91     -3.47
    9    1    6     -7.95      6.01
    9    1    7      3.70      0.30
    9    1    8      1.98      0.95
    9    1    9    -10.19      4.64
    9    1   10     -5.17     -8.65
    9    1   11     -3.60      1.64
    9    1   12      2.49      7.52
    9    1   13     -2.22     -2.86
    9    1   14      3.08     -3.54
    9    1   15      4.62     -0.02
    9    1   16      0.31     -2.72
    9    1   17      2.66      0.07
    9    1   18     -4.52      1.47
    9    1   19      0.23     -2.76
    9    1   20      3.69     -3.15
    9    1   21     -0.16      1.05
    9    1   22      0.06     -1.70
   10    1    1    -22.01      0.10
   10    1    2      5.20     -3.61
   10    1    3      9.29      0.48
   10    1    4     -3.07      7.33
   10    1    5     -3.14    -14.90
   10    1    6     10.75      0.26
   10    1    7      9.33      8.37
   10    1    8     -8.12     -6.46
   10    1    9    -12.10      3.27
   10    1   10      0.85      6.56
   10    1   11     -0.31      0.93
   10    1   12     -0.51     -0.91
   10    1   13     -4.04     -2.10
   10    1   14      0.01     -2.19
   10    1   15      6.67     -0.43
   10    1   16     -4.46     -2.25
   10    1   17      0.97     -0.16
   10    1   18      4.40      0.76
   10    1   19     -1.70     -2.76
   10    1   20     -3.14     -4.20
   10    1   21      0.89      1.34
   11    1    0     -3.76     -0.48
   11    1    1    -29.99     -7.04
   11    1    2     -2.26      0.70
   11    1    3      3.69     17.07
   11    1    4      6.81      0.92
   11    1    5      3.57     -8.57
   11    1    6     -3.64     -3.42
   11    1    7      3.75      2.51
   11    1    8      3.36     -6.02
   11    1    9     -0.35      1.39
   11    1   10     -4.60     10.80
   11    1   11      0.86     -0.16
   11    1   12      5.88     -4.04
   11    1   13     -5.49     -2.55
   11    1   14     -5.04      3.92
   11    1   15      7.90      4.10
   11    1   16      0.64     -2.67
   11    1   17     -0.39     -2.32
   11    1   18      0.47      1.26
   11    1   19     -2.37     -0.82
   11    1   20     -1.56     -2.78
   11    1   21      1.48     -0.09
   12    1    0     -4.83     -0.24
   12    1    1     -8.99     10.69
   12    1    2     -3.16      8.50
   12    1    3      6.06    -11.08
   12    1    4     10.03     -5.15
   12    1    5     -2.21     13.65
   12    1    6    -16.75      0.26
   12    1    7     -0.52     -8.81
   12    1    8     13.05      1.89
   12    1    9      0.12      3.20
   12    1   10     -3.38      2.46
   12    1   11      2.73     -1.56
   12    1   12      3.48      0.35
   12    1   13     -6.47      0.68
   12    1   14      0.95      4.97
   12    1   15     12.14     -0.12
   12    1   16      0.18     -3.51
   12    1   17     -1.27      2.08
   12    1   18     -2.47      0.86
   12    1   19     -1.43     -0.94
   12    1   20      1.10     -0.45
   13    1    0     14.96      0.59
   13    1    1     13.73      2.84
   13    1    2     -6.78      5.29
   13    1    3     -2.64     -1.65
   13    1    4      2.24      7.43
   13    1    5     -8.88     -3.75
   13    1    6     -3.89     -2.59
   13    1    7      8.30      8.07
   13    1    8      4.02      4.40
   13    1    9     -7.86     -3.24
   13    1   10     -1.84      0.25
   13    1   11      3.77      2.26
   13    1   12      0.98      0.35
   13    1   13     -3.16     -2.70
   13    1   14     -2.07      1.21
   13    1   15      4.37      2.25
   13    1   16      2.21     -0.60
   13    1   17      2.58     -3.97
   13    1   18      0.28      0.01
   13    1   19     -1.55      4.44
   13    1   20     -1.60     -0.65
   14    1    0      0.55      0.86
   14    1    1     12.36    -13.35
   14    1    2      6.78      0.80
   14    1    3     -3.67     18.32
   14    1    4     -7.13     15.01
   14    1    5    -12.72    -11.15
   14    1    6      7.86     -2.58
   14    1    7     17.96      1.92
   14    1    8     -4.18      4.93
   14    1    9    -10.01      3.70
   14    1   10     -1.79      0.23
   14    1   11      2.09     -2.16
   14    1   12     -1.49     -4.79
   14    1   13     -3.04      1.70
   14    1   14     -0.25     -0.05
   14    1   15     -1.47     -4.49
   14    1   16      1.61      2.62
   14    1   17      2.05      4.47
   14    1   18     -1.01      0.20
   14    1   19      0.59     -3.63
   15    1    0     16.80     -0.34
   15    1    1     19.48     -7.83
   15    1    2    -15.73     -1.93
   15    1    3     -3.04      7.21
   15    1    4      9.42     -1.99
   15    1    5      2.07      3.75
   15    1    6     -6.12     16.74
   15    1    7     -6.18    -14.68
   15    1    8     -2.40      2.49
   15    1    9      2.77      6.59
   15    1   10      8.54     -3.01
   15    1   11     -2.89     -1.74
   15    1   12     -6.82     -5.30
   15    1   13      2.05     -2.04
   15    1   14      6.74      1.40
   15    1   15     -4.00      1.79
   15    1   16     -0.96     -0.82
   15    1   17      1.93      3.16
   15    1   18     -2.51      1.43
   16    1    0      2.79     -0.68
   16    1    1      6.23      4.56
   16    1    2      1.04     -2.48
   16    1    3      9.69     -8.57
   16    1    4     -9.62     -9.67
   16    1    5      0.00      7.14
   16    1    6      1.31     17.70
   16    1    7    -16.80     -5.17
   16    1    8     -0.31      0.38
   16    1    9      6.28     -1.29
   16    1   10      5.60     -4.18
   16    1   11     -1.51     -2.12
   16    1   12      0.09      0.55
   16    1   13      6.95      0.49
   16    1   14     -0.47      0.96
   16    1   15     -4.23      2.37
   16    1   16      0.56     -2.95
   16    1   17      2.24      1.21
   17    1    0      5.16     -0.46
   17    1    1     -6.37      3.15
   17    1    2     -0.39     -4.10
   17    1    3      6.31     -2.18
   17    1    4      0.50      6.04
   17    1    5     -1.39      2.24
   17    1    6     -0.79    -11.86
   17    1    7     -1.78      2.08
   17    1    8      1.53      3.74
   17    1    9      2.92     -0.49
   17    1   10     -1.27      2.55
   17    1   11     -1.38     -0.20
   17    1   12      0.16      0.87
   17    1   13      1.48      0.06
   17    1   14     -4.91      2.51
   17    1   15      4.10      1.35
   17    1   16      4.02     -1.90
   18    1    0     -1.13     -0.98
   18    1    1    -11.11     -4.73
   18    1    2     -1.82     -7.47
   18    1    3      5.16     11.18
   18    1    4      9.81      8.26
   18    1    5     -3.51     -7.11
   18    1    6      0.03    -16.16
   18    1    7     14.01      4.26
   18    1    8     -5.42      5.09
   18    1    9     -5.30      3.70
   18    1   10      4.10      4.57
   18    1   11      2.34     -1.37
   18    1   12     -5.63     -0.06
   18    1   13     -5.00      0.48
   18    1   14      0.97      0.97
   18    1   15      8.10     -1.11
   19    1    0      4.81     -1.51
   19    1    1      0.36     -1.13
   19    1    2     -9.84     11.06
   19    1    3     -6.79      3.18
   19    1    4      9.36    -16.73
   19    1    5      8.50     -8.17
   19    1    6     -4.53     21.03
   19    1    7     -8.66      7.69
   19    1    8      4.80     -6.40
   19    1    9      0.43     -0.75
   19    1   10     -2.67     -3.93
   19    1   11      7.53     -1.75
   19    1   12      2.74      0.98
   19    1   13     -4.71      0.40
   19    1   14     -1.95     -0.19
   20    1    0    -49.35      0.37
   20    1    2     38.81     37.88
   20    1    3    -15.12     -4.87
   20    1    4    -25.11    -33.36
   20    1    5     13.99      2.08
   20    1    6      4.57     44.51
   20    1    7    -24.32     -3.74
   20    1    8     11.38    -19.41
   20    1    9      5.45     -1.37
   20    1   10    -13.80     -9.26
   20    1   11      6.90      4.07
   20    1   12     10.12      2.78
   20    1   13     -3.40     -5.01
   21    1    0     -5.12      0.98
   21    1    1     16.41     -1.28
   21    1    2     -0.56     24.44
   21    1    3    -17.48      8.37
   21    1    4      6.57    -10.56
   21    1    5     10.42     -4.98
   21    1    6     -7.19     17.00
   21    1    7     -7.14     -3.60
   21    1    8      0.97    -11.67
   21    1    9     -1.54     -2.64
   21    1   10     -2.15     -1.75
   21    1   11      1.19      4.17
   22    1    0     -3.50      0.45
   22    1    1      3.83      0.41
   22    1    2      3.83     -5.48
   22    1    3      0.72      3.80
   22    1    4     -2.12     15.92
   22    1    5     -3.43     -3.49
   22    1    6      2.69    -14.05
   22    1    7     14.61     -0.06
   22    1    8     -6.13      3.73
   22    1    9     -7.48     -0.02
   23    1    0      8.90     -0.76
   23    1    1     -1.68      3.09
   23    1    2     -3.05     -7.81
   23    1    3      1.20     -4.79
   23    1    4     -0.12     12.59
   23    1    5     -1.62      0.96
   23    1    6     -0.64    -11.08
   23    1    7     11.19      4.04
   24    1    0      6.26      0.04
   24    1    1     -2.81      0.82
   24    1    2     -3.23      0.85
    0    2    1     27.07      5.71
    0    2    3    249.00     -7.91
    0    2    4    282.94      1.86
    0    2    5   -131.14      0.19
    0    2    6   -163.55     -1.79
    0    2    7     -6.91      2.26
    0    2    8     89.09     -0.05
    0    2    9     11.03      0.56
    0    2   10    -53.79     -0.03
    0    2   11      3.13     -2.66
    0    2   12     35.80     -0.21
    0    2   13    -11.01      1.91
    0    2   14    -25.41      0.64
    0    2   15     -4.52      0.13
    0    2   16     14.55      0.41
    0    2   17      5.03     -0.26
    0    2   18     -6.22     -1.36
    0    2   19     -0.02      0.31
    0    2   20      6.74      0.85
    0    2   21     -6.64     -1.46
    0    2   22     -5.91     -0.73
    0    2   23      7.34      2.54
    1    2    0   -430.52      2.03
    1    2    1   -110.43    -21.97
    1    2    2    174.31     57.48
    1    2    3    167.12     22.28
    1    2    4    -57.71    -58.01
    1    2    5    -70.00     -9.24
    1    2    6     19.16      5.93
    1    2    7     -9.54     31.17
    1    2    8    -16.55     15.05
    1    2    9      8.23    -40.62
    1    2   10     21.47    -12.01
    1    2   11     12.02     18.35
    1    2   12    -17.02      9.32
    1    2   13     -8.23     -4.58
    1    2   14     17.45     -4.70
    1    2   15     -6.16      0.71
    1    2   16    -14.17     -2.12
    1    2   17      0.55     -4.92
    1    2   18      8.94      2.45
    1    2   19      4.98      4.08
    1    2   20     -3.06     -0.18
    1    2   21     -6.13     -6.12
    1    2   22      1.25      1.41
    1    2   23      2.91      2.90
    2    2    0     39.54      1.97
    2    2    1   -108.14     -9.85
    2    2    2      3.05    -12.35
    2    2    3    -28.88     18.34
    2    2    4     -2.56    -17.25
    2    2    5     19.08      3.53
    2    2    6    -30.68      6.08
    2    2    7     -6.63    -10.14
    2    2    8     15.86      9.15
    2    2    9     12.66     -3.82
    2    2   10     -1.23     -4.81
    2    2   11      2.45     -5.59
    2    2   12     11.30     -8.88
    2    2   13      1.38      7.93
    2    2   14     -5.87     11.90
    2    2   15     -0.48     -5.76
    2    2   16      3.91     -2.22
    2    2   17     -3.42     -1.51
    2    2   18     -5.33      0.16
    2    2   19      5.47     -0.79
    2    2   20      5.33     -2.13
    2    2   21     -4.17     -0.42
    2    2   22     -6.00     -1.01
    2    2   23     -1.73     -3.09
    3    2    0    194.38     -2.38
    3    2    1     71.32      5.86
    3    2    2    -54.72    -76.79
    3    2    3    -95.26      8.34
    3    2    4      4.27     19.48
    3    2    5    -11.35      2.25
    3    2    6     22.04     16.33
    3    2    7     48.13    -18.62
    3    2    8    -22.26     -4.43
    3    2    9    -16.46      6.63
    3    2   10      5.36     -2.86
    3    2   11     -4.14     -1.65
    3    2   12      8.45     -4.10
    3    2   13      1.64      2.50
    3    2   14     -1.60      9.10
    3    2   15      8.82     -2.02
    3    2   16     -1.24     -0.87
    3    2   17     -3.30      1.12
    3    2   18     -2.01     -0.93
    3    2   19      1.27     -0.53
    3    2   20      4.70      1.40
    3    2   21     -5.64     -1.20
    3    2   22     -5.85     -2.66
    3    2   23      4.63      2.33
    4    2    0     43.75     -1.89
    4    2    1     10.20    -18.44
    4    2    2    -26.80    -55.31
    4    2    3    -30.29     23.61
    4    2    4     68.28     31.49
    4    2    5     -7.93     -3.91
    4    2    6    -34.48      9.86
    4    2    7     31.10     13.37
    4    2    8     24.96    -17.71
    4    2    9    -18.24    -20.17
    4    2   10    -31.20      6.06
    4    2   11     -3.25     14.83
    4    2   12     22.25      5.21
    4    2   13     -1.09     -6.86
    4    2   14     -4.31     -7.50
    4    2   15      1.89      2.81
    4    2   16      0.04      5.82
    4    2   17      1.56      5.22
    4    2   18      1.01     -5.56
    4    2   19      1.24     -1.72
    4    2   20     -3.41      7.52
    4    2   21     -3.67      3.50
    4    2   22      4.62      0.50
    4    2   23      6.81      2.49
    5    2    0   -143.06      4.29
    5    2    1    -71.92    -21.75
    5    2    2     78.66      1.97
    5    2    3      1.01     21.44
    5    2    4    -13.11     13.71
    5    2    5     33.31     -1.07
    5    2    6     11.40     11.61
    5    2    7    -13.78     18.85
    5    2    8    -11.48    -29.18
    5    2    9     -6.15    -23.16
    5    2   10      4.01     14.21
    5    2   11      5.96      3.05
    5    2   12      0.95     -5.09
    5    2   13     -6.48      2.25
    5    2   14      2.02      0.71
    5    2   15     -2.18      2.51
    5    2   16      2.11      2.80
    5    2   17      4.89     -0.06
    5    2   18     -2.42     -4.77
    5    2   19     -0.71      4.33
    5    2   20     -1.14      2.09
    5    2   21      4.12      1.95
    5    2   22      0.97      1.48
    5    2   23     -1.99      1.32
    6    2    0     -4.38      3.32
    6    2    1     35.91     13.05
    6    2    2    -24.93     10.61
    6    2    3      1.09     -8.81
    6    2    4      7.10     -6.03
    6    2    5     22.46      0.14
    6    2    6     -1.39      6.92
    6    2    7    -18.28      5.69
    6    2    8      6.30    -14.34
    6    2    9      0.91    -12.97
    6    2   10     -9.43      9.42
    6    2   11      1.90      1.15
    6    2   12     13.34    -11.25
    6    2   13     -0.85      4.50
    6    2   14     -7.53     13.78
    6    2   15      1.75      0.35
    6    2   16     -1.73     -4.27
    6    2   17      1.98     -1.06
    6    2   18      3.64     -1.29
    6    2   19     -3.34      0.81
    6    2   20     -3.12     -2.70
    6    2   21      2.85      2.39
    6    2   22     -0.71     -2.04
    6    2   23     -1.64     -0.11
    7    2    0    -43.93      3.97
    7    2    1     74.74     19.66
    7    2    2     32.49      3.51
    7    2    3      1.40    -37.56
    7    2    4    -22.12    -19.01
    7    2    5      8.84     32.65
    7    2    6      9.67      4.28
    7    2    7     -5.65    -23.41
    7    2    8      2.82     -0.98
    7    2    9     -6.31     12.60
    7    2   10     -2.55      4.25
    7    2   11      7.59      1.64
    7    2   12     -2.84      1.88
    7    2   13      1.57     -3.49
    7    2   14      1.63      1.15
    7    2   15     -0.10      1.61
    7    2   16     -4.95     -1.77
    7    2   17     -0.97      0.71
    7    2   18     -1.08      1.74
    7    2   19     -1.62     -1.39
    7    2   20      2.61     -1.09
    7    2   21     -1.90      1.13
    7    2   22     -1.41     -0.64
    8    2    0     -1.60     -2.14
    8    2    1    -10.95    -24.85
    8    2    2      9.76      9.14
    8    2    3     -2.50     16.64
    8    2    4     13.33      5.83
    8    2    5     13.21     -4.28
    8    2    6     -6.70    -18.83
    8    2    7    -15.85      6.54
    8    2    8      2.50     11.37
    8    2    9      6.06      4.96
    8    2   10      0.51      1.51
    8    2   11      6.29      1.30
    8    2   12     -8.86      1.98
    8    2   13     -0.15     -8.67
    8    2   14      0.92     -4.17
    8    2   15     -5.55      6.86
    8    2   16      1.60      0.00
    8    2   17      3.43     -3.54
    8    2   18     -5.08      1.64
    8    2   19      0.56      5.86
    8    2   20      2.94      2.26
    8    2   21     -4.82     -3.64
    8    2   22     -2.16      2.81
    9    2    0      1.60     -3.06
    9    2    1    -24.88    -18.70
    9    2    2     24.15     13.78
    9    2    3      9.47     19.37
    9    2    4    -30.24      5.75
    9    2    5    -15.97    -14.74
    9    2    6     27.25    -18.29
    9    2    7    -10.46      6.32
    9    2    8    -14.90     14.18
    9    2    9     10.92      1.34
    9    2   10      4.19     -4.11
    9    2   11      1.04     -1.14
    9    2   12     -2.65     -3.01
    9    2   13     -5.35     -2.29
    9    2   14     -1.78      0.72
    9    2   15      3.78      4.78
    9    2   16      0.67     -1.11
    9    2   17     -0.11     -2.48
    9    2   18      1.92      0.56
    9    2   19      3.15      2.62
    9    2   20     -4.36      1.26
    9    2   21     -5.41     -0.24
    9    2   22      1.38      2.56
   10    2    0     48.43     -0.12
   10    2    1     13.57      2.42
   10    2    2    -39.82     -4.17
   10    2    3      2.81     -6.68
   10    2    4     14.35     -8.45
   10    2    5     -8.21      6.15
   10    2    6    -14.55      3.25
   10    2    7    -10.16    -10.40
   10    2    8     14.34      5.37
   10    2    9      8.36      3.56
   10    2   10     -9.22     -7.52
   10    2   11     -0.91     -0.26
   10    2   12      7.43     -1.01
   10    2   13     -5.85      5.76
   10    2   14     -4.30      1.86
   10    2   15      7.92     -1.51
   10    2   16      3.01     -0.15
   10    2   17     -3.19     -0.43
   10    2   18     -2.16      1.03
   10    2   19      0.05     -1.62
   10    2   20      2.30     -2.06
   10    2   21      0.23      1.30
   11    2    0    -42.79      2.88
   11    2    1      0.80     -7.72
   11    2    2     11.55    -14.17
   11    2    3     -5.05     -0.52
   11    2    4    -10.66      6.54
   11    2    5      6.03     18.46
   11    2    6      8.31      2.70
   11    2    7      3.43     -8.38
   11    2    8     -5.03      4.62
   11    2    9     -2.26      1.38
   11    2   10      3.38     -9.02
   11    2   11      4.23     -2.77
   11    2   12      0.65      1.35
   11    2   13     -6.45      5.14
   11    2   14     -1.11      1.63
   11    2   15      3.10     -1.14
   11    2   16     -0.70      1.01
   11    2   17      0.40     -3.02
   11    2   18      4.93     -0.57
   11    2   19     -4.17      2.52
   11    2   20     -4.65     -0.55
   11    2   21      5.53     -2.53
   12    2    0    -13.75     -0.07
   12    2    1    -11.84     -6.39
   12    2    2     -9.53      6.25
   12    2    3      1.90     10.83
   12    2    4     13.27     10.46
   12    2    5      0.64      5.64
   12    2    6     -9.49     -8.81
   12    2    7      2.12      3.30
   12    2    8      7.55     10.62
   12    2    9      3.74     -5.56
   12    2   10     -4.41     -3.43
   12    2   11     -4.52     -0.82
   12    2   12      1.63     -1.70
   12    2   13      0.21     -3.57
   12    2   14     -3.36      3.89
   12    2   15      0.17      1.86
   12    2   16      1.91     -3.35
   12    2   17      0.16     -1.77
   12    2   18      1.69      1.83
   12    2   19      0.45      0.78
   12    2   20     -3.68     -1.82
   13    2    0     -6.23      0.66
   13    2    1     -8.49     10.64
   13    2    2     14.05      3.48
   13    2    3      9.89     -1.11
   13    2    4    -12.11     -1.71
   13    2    5     -1.72     -2.75
   13    2    6      8.80     -6.06
   13    2    7     -2.61     -0.39
   13    2    8     -6.98      8.15
   13    2    9     -1.22      1.61
   13    2   10      7.85      0.08
   13    2   11     -2.96     -0.56
   13    2   12     -9.89     -0.86
   13    2   13      3.61     -2.83
   13    2   14      4.26      0.64
   13    2   15     -2.79     -3.36
   13    2   16     -2.25      0.50
   13    2   17     -0.41     -0.23
   13    2   18     -0.16     -1.14
   13    2   19      3.16      1.75
   13    2   20     -1.69     -1.18
   14    2    0     23.20      0.76
   14    2    1     -8.02     -2.21
   14    2    2    -12.47    -16.71
   14    2    3     -2.67      3.48
   14    2    4     15.08     -1.04
   14    2    5     11.53    -11.63
   14    2    6     -7.80      6.26
   14    2    7     -1.07      3.88
   14    2    8      6.46     -2.43
   14    2    9     -6.53      1.82
   14    2   10     -9.50     -2.97
   14    2   11      4.03      2.82
   14    2   12      4.82     -0.68
   14    2   13     -0.50     -2.14
   14    2   14     -4.94      1.23
   14    2   15     -5.37     -2.84
   14    2   16      0.00      2.02
   14    2   17      3.66     -1.43
   14    2   18      2.59     -2.58
   14    2   19     -2.75      0.78
   15    2    0     -6.47     -1.01
   15    2    1     -3.90     -7.71
   15    2    2      6.86     -0.87
   15    2    3     -2.14     -3.46
   15    2    4     -1.62     -2.32
   15    2    5     -0.38     -3.67
   15    2    6      1.81      7.31
   15    2    7      5.89      3.04
   15    2    8     -3.97     -2.88
   15    2    9     -2.41     -2.92
   15    2   10     -1.81     -4.53
   15    2   11      3.42      1.24
   15    2   12      3.32      0.97
   15    2   13     -5.16     -0.80
   15    2   14     -2.84     -1.29
   15    2   15      2.21      1.96
   15    2   16     -0.19      0.20
   15    2   17     -0.19     -2.35
   15    2   18      3.59      0.54
   16    2    0     -8.48     -6.96
   16    2    1     13.42      0.31
   16    2    2     15.69     24.33
   16    2    3      1.77     -3.43
   16    2    4    -17.02     -9.91
   16    2    5     -9.85     -4.64
   16    2    6     -2.19     -1.64
   16    2    7     -1.54      5.14
   16    2    8     -1.40     -1.92
   16    2    9      6.40     -4.88
   16    2   10      6.60      6.59
   16    2   11     -3.57     -0.24
   16    2   12      0.85     -5.73
   16    2   13      0.71     -1.81
   16    2   14      2.53      3.37
   16    2   15      3.25      2.30
   16    2   16     -1.09     -2.54
   16    2   17     -1.38     -0.59
   17    2    0     25.90     -2.55
   17    2    1    -11.23     -7.14
   17    2    2    -16.83      0.90
   17    2    3     14.59      9.18
   17    2    4      7.75      8.57
   17    2    5    -12.52      8.25
   17    2    6    -12.26    -11.76
   17    2    7      2.18    -10.14
   17    2    8      4.33     -2.12
   17    2    9      6.62     14.96
   17    2   10      9.63      4.32
   17    2   11     -6.35    -11.12
   17    2   12     -3.58     -2.94
   17    2   13      2.72      3.38
   17    2   14      6.58      4.87
   17    2   15      2.89     -2.64
   17    2   16     -4.25      0.71
   18    2    1    -48.38    -13.34
   18    2    2     -0.46     -5.65
   18    2    3     32.16     11.16
   18    2    4      7.35     13.87
   18    2    5    -23.94     19.34
   18    2    6     -1.70     -8.06
   18    2    7     22.73     -6.21
   18    2    8      3.25      3.00
   18    2    9     -4.94      1.17
   18    2   10     -1.14     -8.66
   18    2   11     -1.97      5.91
   18    2   12      0.94      6.25
   18    2   13     -0.49     -7.57
   18    2   14      0.00     -0.36
   18    2   15      2.93      7.45
   19    2    0     -9.19     -0.30
   19    2    1      0.72      0.38
   19    2    2     12.13      6.34
   19    2    3      5.63     -1.11
   19    2    4     -0.69      4.26
   19    2    5     -8.13     10.96
   19    2    6      5.23     -2.85
   19    2    7     10.45      2.44
   19    2    8      0.70      6.61
   19    2    9     -8.69     -5.24
   19    2   10     -7.39     -2.80
   19    2   11      3.13      2.59
   19    2   12      1.72      0.52
   19    2   13     -2.49      3.20
   19    2   14     -1.17     -1.75
   20    2    0      1.85     -1.06
   20    2    1     40.46      6.91
   20    2    2      0.46      7.21
   20    2    3    -11.60     -6.79
   20    2    4      1.71    -11.59
   20    2    5      6.78     -2.92
   20    2    6      3.24      7.98
   20    2    7     -9.79      6.44
   20    2    8      0.10     -1.88
   20    2    9     -3.52     -2.62
   20    2   10     -4.31      5.23
   20    2   11      1.39     -0.33
   20    2   12     -0.63     -1.67
   20    2   13      0.57      3.35
   21    2    0     -2.00      0.40
   21    2    1     -3.04     -3.87
   21    2    2     -5.10    -12.16
   21    2    3      4.64     -3.97
   21    2    4      2.12     -1.36
   21    2    5      1.65     -2.84
   21    2    6     -2.93      3.56
   21    2    7     -7.67      6.01
   21    2    8     -0.17    -10.78
   21    2    9      4.00     -2.57
   21    2   10      0.80      8.72
   21    2   11     -1.57      1.06
   22    2    0      3.75      0.09
   22    2    1    -52.01     -9.21
   22    2    2     -1.74    -17.64
   22    2    3     21.09      0.11
   22    2    4     -6.70     26.54
   22    2    5    -11.03     -2.31
   22    2    6     -7.02    -21.92
   22    2    7      3.96      6.75
   22    2    8      1.35      5.00
   22    2    9      5.81     -4.64
   23    2    0     18.40     -0.65
   23    2    1    -20.84     -2.84
   23    2    2     -3.19      0.42
   23    2    3      2.35     -2.53
   23    2    4     -9.80     14.37
   23    2    5     -0.37      1.87
   23    2    6     -0.44     -7.46
   23    2    7     -2.87     -2.62
   24    2    0      0.41     -2.44
   24    2    1      3.13     -0.18
    0    3    0      0.58      0.98
    0    3    1     -5.11     -0.78
    0    3    2     -1.32     -4.20
    0    3    3     -5.83      1.21
    0    3    4    -16.60      9.91
    0    3    5      2.34     -1.28
    0    3    6    -21.69    -13.63
    0    3    7      4.64      0.41
    0    3    8     29.42      7.36
    0    3    9      3.18      0.53
    0    3   10    -13.90     -3.70
    0    3   11     -9.67      0.49
    0    3   12      2.30      1.19
    0    3   13     -3.85      0.70
    0    3   14     -0.26     -0.26
    0    3   15      4.75      0.05
    0    3   16     -5.22      0.75
    0    3   17      5.09      0.15
    0    3   18      4.50      0.55
    0    3   19      0.46     -0.37
    0    3   20      1.45     -0.47
    0    3   21     -3.16      0.00
    0    3   22     -3.89      0.07
    0    3   23      6.97     -0.12
    1    3    0     20.27      0.29
    1    3    1    -30.47   -101.54
    1    3    2     -3.92    106.01
    1    3    3    -33.88     37.73
    1    3    4    -13.22     49.15
    1    3    5      5.63     18.76
    1    3    6      5.72    -49.42
    1    3    7     21.30     -6.00
    1    3    8     -4.00     -0.61
    1    3    9     -6.46      6.93
    1    3   10      6.01      7.17
    1    3   11     -4.09      1.58
    1    3   12     -6.64     -2.74
    1    3   13      1.78     -7.60
    1    3   14      3.60     -0.41
    1    3   15      0.73      5.15
    1    3   16     -0.17      2.66
    1    3   17      3.56     -1.68
    1    3   18     -2.30     -0.78
    1    3   19     -0.21     -4.03
    1    3   20      1.80      1.40
    1    3   21     -0.71      6.83
    1    3   22     -1.16     -0.69
    1    3   23      3.36     -1.03
    2    3    0     25.41      0.87
    2    3    1   -115.96    -52.22
    2    3    2    -25.93     92.46
    2    3    4     27.80    -12.71
    2    3    5      6.04     19.52
    2    3    6     11.98    -16.14
    2    3    7     15.75    -14.06
    2    3    8    -14.55     13.46
    2    3    9     -5.80     13.51
    2    3   10      8.82      7.16
    2    3   11      4.18    -13.70
    2    3   12     -0.49     -5.15
    2    3   13     -0.42      4.09
    2    3   14     -4.71     -0.75
    2    3   15      1.71     -7.24
    2    3   16     13.21     -3.52
    2    3   17     -2.20      7.92
    2    3   18     -8.13     -1.32
    2    3   19     -1.32     -3.33
    2    3   20     -2.92     -0.58
    2    3   21      5.22      1.32
    2    3   22      6.25      2.20
    2    3   23     -4.47     -1.08
    3    3    0    -37.32      0.82
    3    3    1    -63.39     55.27
    3    3    2    -13.60    -45.82
    3    3    3     45.15     -1.54
    3    3    4     32.65     -8.83
    3    3    5     31.25     -4.76
    3    3    6      3.06      0.24
    3    3    7    -30.60    -14.98
    3    3    8     -0.59     23.87
    3    3    9      8.46      4.51
    3    3   10      1.05     -9.43
    3    3   11      0.04     -2.90
    3    3   12      6.50     10.73
    3    3   13      3.81      0.68
    3    3   14    -10.23     -8.73
    3    3   15     -5.29      1.28
    3    3   16      9.22     -1.71
    3    3   17     -2.10     -0.09
    3    3   18      0.96     -0.47
    3    3   19      1.46      2.21
    3    3   20     -4.90     -1.10
    3    3   21      0.51     -3.38
    3    3   22      4.02      0.74
    3    3   23     -3.72      0.61
    4    3    0    -49.46      1.12
    4    3    1     31.39     59.20
    4    3    2     12.48    -71.03
    4    3    3     18.47     -2.84
    4    3    4      3.30     16.03
    4    3    5     17.31      0.43
    4    3    6     -1.16      1.00
    4    3    7     -8.46    -21.94
    4    3    8    -12.53     -4.58
    4    3    9    -15.18      5.95
    4    3   10     14.34     -4.29
    4    3   11     10.89     -0.37
    4    3   12     -6.30      7.66
    4    3   13      1.79      7.95
    4    3   14      2.12     -4.22
    4    3   15     -3.07     -2.97
    4    3   16     -5.85      4.79
    4    3   17     -1.47     -1.96
    4    3   18      2.61      0.08
    4    3   19      0.55      1.30
    4    3   20      1.34      1.98
    4    3   21     -1.56      1.16
    4    3   22     -1.31     -4.91
    4    3   23     -2.82      1.23
    5    3    0    -30.93     -0.24
    5    3    1     37.29    -24.34
    5    3    2     38.51     33.64
    5    3    3    -51.26     38.77
    5    3    4    -14.93    -21.38
    5    3    5     15.74     -9.41
    5    3    6     -7.62     -1.33
    5    3    7     -2.31      5.00
    5    3    8    -11.99      2.57
    5    3    9     -2.50     -8.15
    5    3   10      0.16     -9.94
    5    3   11      2.34      5.94
    5    3   12      4.70     -0.61
    5    3   13      1.39     -5.57
    5    3   14     -1.15      1.22
    5    3   15      3.44      2.27
    5    3   16     -5.87      5.52
    5    3   17     -1.75     -5.92
    5    3   18      2.14     -1.56
    5    3   19      0.09      4.83
    5    3   20     -3.98     -1.07
    5    3   21     -1.95      0.93
    5    3   22      3.17     -0.50
    5    3   23     -0.09     -0.36
    6    3    0     -7.09     -0.86
    6    3    1    -36.44    -47.11
    6    3    2     20.13     27.56
    6    3    3      4.73     33.71
    6    3    4     -1.58    -14.85
    6    3    5    -13.10    -21.18
    6    3    6     -1.31     -4.61
    6    3    7     -0.20     10.93
    6    3    8    -17.23     29.01
    6    3    9      4.95      5.36
    6    3   10      7.89    -22.41
    6    3   11     -1.81     -5.95
    6    3   12     -2.51      2.07
    6    3   13     -4.65     -5.31
    6    3   14     -0.05     -0.27
    6    3   15      2.59      2.29
    6    3   16      1.19      0.47
    6    3   17     -0.32     -1.23
    6    3   18      0.31     -5.74
    6    3   19      0.19      0.60
    6    3   20     -1.10     -0.92
    6    3   21      1.74     -1.63
    6    3   22     -1.34      2.34
    6    3   23      0.81      0.50
    7    3    0     29.54     -0.26
    7    3    1     -9.96      2.68
    7    3    2    -29.72    -46.41
    7    3    3     26.90    -33.70
    7    3    4     27.67     25.19
    7    3    5      0.48     -0.67
    7    3    6    -10.00     12.36
    7    3    7     -9.48     -4.60
    7    3    8     -3.98      4.18
    7    3    9      6.51     17.36
    7    3   10      8.46     -1.00
    7    3   11     -9.89     -5.71
    7    3   12      0.75     -6.80
    7    3   13      4.16      2.58
    7    3   14     -8.41      7.05
    7    3   15    -12.19     -1.46
    7    3   16      6.94     -8.75
    7    3   17      5.03      5.17
    7    3   18     -0.65      2.70
    7    3   19     -0.26     -6.72
    7    3   20      4.07     -2.72
    7    3   21      2.82      1.26
    7    3   22     -2.13      0.56
    8    3    0     -4.24      0.38
    8    3    1    -12.03     17.85
    8    3    2     -8.30    -14.08
    8    3    3      2.92    -35.40
    8    3    4      7.34      6.89
    8    3    5      3.39      9.58
    8    3    6     -0.43     13.39
    8    3    7      8.10      2.09
    8    3    8      0.17     -0.81
    8    3    9     -6.25      3.35
    8    3   10      9.10     -7.20
    8    3   11      2.10     -1.08
    8    3   12     -2.85      8.38
    8    3   13     -3.44      2.55
    8    3   14     -3.45     -5.73
    8    3   15     -3.37      1.87
    8    3   16     -0.65      4.89
    8    3   17      0.18     -1.86
    8    3   18      2.71     -0.90
    8    3   19      0.18      2.51
    8    3   20      1.17      0.41
    8    3   21     -1.09     -1.58
    8    3   22      0.58     -0.80
    9    3    0    -31.76     -0.45
    9    3    1     -6.07      2.14
    9    3    2     13.69     40.56
    9    3    3    -27.74     14.32
    9    3    4     -4.92    -29.63
    9    3    5     11.48      1.92
    9    3    6      0.83      2.72
    9    3    7      4.56      8.57
    9    3    8      4.97      5.63
    9    3    9      5.10     -8.05
    9    3   10      0.23     -5.74
    9    3   11     -2.69     -4.02
    9    3   12      0.26      2.84
    9    3   13     -1.66     -0.63
    9    3   14     -1.34      1.67
    9    3   15      3.24      0.58
    9    3   16      3.19      3.15
    9    3   17     -1.88      1.18
    9    3   18     -4.50     -4.16
    9    3   19     -1.65      0.20
    9    3   20      1.87      3.89
    9    3   21     -3.18      0.88
    9    3   22     -1.66     -1.75
   10    3    0    -13.73     -0.15
   10    3    1      9.69     -1.87
   10    3    2     14.18     15.90
   10    3    3      5.75     26.09
   10    3    4     -9.41    -15.16
   10    3    5    -11.22    -14.57
   10    3    6      6.30     -7.44
   10    3    7     18.63     13.94
   10    3    8     -5.77      1.32
   10    3    9     -4.17    -12.23
   10    3   10      0.90      5.30
   10    3   11     -1.03      0.95
   10    3   12      1.37     -4.54
   10    3   13      4.61     -0.51
   10    3   14      1.93      2.44
   10    3   15     -1.77     -3.03
   10    3   16     -0.80      2.39
   10    3   17     -1.57      2.86
   10    3   18      1.13     -2.32
   10    3   19     -2.30     -0.72
   10    3   20     -2.96      2.48
   10    3   21     -0.68     -0.07
   11    3    0      5.94      0.12
   11    3    1     27.61      0.20
   11    3    2      9.64     -3.10
   11    3    3      2.98     -6.59
   11    3    4     -2.94      3.94
   11    3    5     -5.30     -6.00
   11    3    6     -0.91     -4.21
   11    3    7      6.18      3.65
   11    3    8      1.28     -7.62
   11    3    9      0.39     -0.57
   11    3   10     -6.61      8.41
   11    3   11     -2.76      1.49
   11    3   12      4.42     -6.27
   11    3   13     12.52      1.91
   11    3   14     -6.23      0.43
   11    3   15    -10.07     -2.18
   11    3   16      3.74      0.21
   11    3   17      0.47      0.13
   11    3   18     -1.26      6.01
   11    3   19     -1.27      0.49
   11    3   20      2.58     -2.37
   11    3   21      1.12      1.36
   12    3    0    -14.02     -0.28
   12    3    1     -3.37     -2.69
   12    3    2     17.09      9.05
   12    3    3     -4.44    -14.70
   12    3    4     -9.40      0.38
   12    3    5     -2.67      1.46
   12    3    6      3.74     -0.64
   12    3    7     -4.23     -3.47
   12    3    8      3.51     -1.57
   12    3    9     -0.49      4.88
   12    3   10     -1.07     -0.79
   12    3   11      5.56     -3.18
   12    3   12     -5.23     -2.30
   12    3   13      0.07      4.52
   12    3   14     -0.86     -0.05
   12    3   15     -2.02     -2.35
   12    3   16      2.10     -0.24
   12    3   17     -1.74      1.82
   12    3   18     -1.98      1.78
   12    3   19      1.71     -0.76
   12    3   20      3.45      0.25
   13    3    0      4.53     -0.86
   13    3    1     -1.51     -3.89
   13    3    2     -9.65     -1.60
   13    3    3     -6.32      5.54
   13    3    4     -4.47     -8.01
   13    3    5      6.96     -9.09
   13    3    6      5.74      1.52
   13    3    7     -9.57      3.11
   13    3    8     -3.00      0.54
   13    3    9      0.53     -0.86
   13    3   10      7.53     -2.11
   13    3   11     -0.77     -0.31
   13    3   12     -1.90      3.78
   13    3   13      0.18      1.25
   13    3   14      2.43     -3.86
   13    3   15     -4.72      1.47
   13    3   16     -1.44      2.01
   13    3   17      2.13     -1.89
   13    3   18      0.89     -4.49
   13    3   19      1.53      2.93
   13    3   20     -2.09      2.57
   14    3    0      1.84      0.24
   14    3    1    -15.51      4.90
   14    3    2     -4.60    -26.69
   14    3    3     19.14     -3.82
   14    3    4     -5.00      3.71
   14    3    5     -0.69      4.97
   14    3    6     -0.37     -6.46
   14    3    7     -1.18      1.95
   14    3    8      0.78     -3.31
   14    3    9      1.23     -4.25
   14    3   10     -0.28      1.14
   14    3   11     -4.39      7.08
   14    3   12      9.85      3.53
   14    3   13      2.00     -1.82
   14    3   14     -5.75     -1.68
   14    3   15     -1.12     -1.85
   14    3   16      0.29      0.15
   14    3   17     -3.02      2.69
   14    3   18      0.69     -1.32
   14    3   19      3.21     -3.40
   15    3    0     -6.92      0.52
   15    3    1     -8.03      7.83
   15    3    2      7.60     -6.91
   15    3    3     -2.70     -9.65
   15    3    4      1.92      1.66
   15    3    5     15.24     13.88
   15    3    6     -2.41     -6.68
   15    3    7    -16.09      2.12
   15    3    8     -2.21     -3.18
   15    3    9     12.93     -4.99
   15    3   10      2.07      0.21
   15    3   11     -2.34      5.59
   15    3   12     -3.06     -2.66
   15    3   13     -0.85     -3.79
   15    3   14     -2.85      5.70
   15    3   15      5.26     -0.20
   15    3   16      0.00     -4.23
   15    3   17     -5.05     -1.45
   15    3   18      0.63      1.64
   16    3    0    -11.60      0.75
   16    3    1    -23.11      0.82
   16    3    2     11.16     17.01
   16    3    3      7.64      5.28
   16    3    4     -0.09     -3.36
   16    3    5     -4.82     -3.68
   16    3    6      6.43     -8.57
   16    3    7     -1.52      7.02
   16    3    8     -6.83      6.15
   16    3    9      2.21     -3.36
   16    3   10      1.84     -2.31
   16    3   11      2.37     -2.44
   16    3   12     -6.88     -2.83
   16    3   13     -0.77     -0.06
   16    3   14      3.57      1.34
   16    3   15     -1.93     -2.51
   16    3   16     -2.75     -0.98
   16    3   17      2.30     -0.66
   17    3    0     12.94     -0.43
   17    3    1     -3.89      2.08
   17    3    2    -16.70     11.81
   17    3    3      2.15     -8.84
   17    3    4     11.57     -2.72
   17    3    5     -1.12      2.42
   17    3    6     -2.08     -0.84
   17    3    7      0.25     -7.60
   17    3    8      2.23     -2.00
   17    3    9      1.34      5.85
   17    3   10     -5.24      1.83
   17    3   11     -3.19     -2.25
   17    3   12      4.41      0.56
   17    3   13      0.97     -1.04
   17    3   14      1.47     -4.23
   17    3   15     -5.94     -0.18
   17    3   16     -0.43      1.52
   18    3    0      0.25     -0.45
   18    3    1     10.56     -0.38
   18    3    2     -6.25     -4.36
   18    3    3     -2.94    -10.66
   18    3    4      1.21      2.72
   18    3    5     -4.32      2.64
   18    3    6     -1.21      3.00
   18    3    7     10.29     -6.42
   18    3    8     -0.37     -6.53
   18    3    9     -4.49      1.59
   18    3   10     -1.83      2.22
   18    3   11     -0.33      3.29
   18    3   12      3.64      1.85
   18    3   13     -0.97     -0.74
   18    3   14      0.36     -1.47
   18    3   15     -2.03      3.73
   19    3    0     -3.40      0.87
   19    3    1     19.15     -8.05
   19    3    2      4.11    -11.38
   19    3    3    -11.43     10.12
   19    3    4     -4.17      0.62
   19    3    5     -4.73     -5.58
   19    3    6      1.56     -8.31
   19    3    7      8.38      5.55
   19    3    8     -7.79     12.59
   19    3    9      2.69     -5.30
   19    3   10      6.06     -3.90
   19    3   11     -3.23      1.86
   19    3   12     -5.78      1.63
   19    3   13      0.18      1.17
   19    3   14      2.42      3.56
   20    3    0    -28.37      0.97
   20    3    1    -10.06     -2.64
   20    3    2     31.07    -13.85
   20    3    3      9.22     -0.73
   20    3    4    -22.86     -0.11
   20    3    5    -14.76     11.00
   20    3    6     14.28    -15.65
   20    3    7     14.19     -0.59
   20    3    8     -7.27     18.48
   20    3    9     -0.77     -0.73
   20    3   10      5.41     -7.31
   20    3   11     -1.75      1.47
   20    3   12     -4.62      6.08
   20    3   13     -0.78     -7.25
   21    3    0      9.68     -0.18
   21    3    1      0.76      4.78
   21    3    2     -4.06    -11.46
   21    3    3     -3.09    -15.16
   21    3    4      0.99      9.10
   21    3    5      4.76     14.36
   21    3    6      4.55    -11.19
   21    3    7      6.16     -1.71
   21    3    8     -0.94      0.49
   21    3    9     -7.13      2.14
   21    3   10      6.50      1.22
   21    3   11      2.28     -0.66
   22    3    0      3.85      0.93
   22    3    1     -2.84     -2.37
   22    3    2      0.24     -1.04
   22    3    3      5.02      0.04
   22    3    4     -1.37      2.74
   22    3    5      0.25     -1.61
   22    3    6      0.73      1.16
   22    3    7      1.55     -0.30
   22    3    8      2.38     -4.76
   22    3    9     -4.62      3.52
   23    3    0      8.69      0.06
   23    3    1      9.68     -8.53
   23    3    2     -6.73     -0.10
   23    3    3     -0.95     13.34
   23    3    4      3.04     -6.09
   23    3    5     -2.33    -10.00
   23    3    6     -4.20      6.98
   24    3    0      0.52     -0.66
   24    3    1      1.18     -0.17
    0    4    1    -39.84      3.25
    0    4    2    -91.50      0.22
    0    4    4    210.57     -2.35
    0    4    6   -143.21     -0.45
    0    4    7     27.79      1.37
    0    4    8     69.00      1.54
    0    4    9    -13.50      0.28
    0    4   10    -31.38     -1.27
    0    4   11     17.34     -0.30
    0    4   12     26.64     -0.55
    0    4   13     -5.37     -0.79
    0    4   14    -26.27      0.36
    0    4   15      0.95      2.44
    0    4   16     12.96     -0.03
    0    4   17     -5.75     -1.74
    0    4   18     -4.49     -0.48
    0    4   19     -0.27      0.54
    0    4   20     -1.60      0.68
    0    4   21     -1.61     -0.24
    0    4   22     -2.76      0.80
    0    4   23     -3.16      0.03
    1    4    0     10.64     -1.41
    1    4    1   -113.94     -4.03
    1    4    2     95.49    -20.58
    1    4    3     43.26     25.14
    1    4    4    -52.92    -16.44
    1    4    5    -18.21    -50.29
    1    4    6     36.48     23.35
    1    4    7     15.54      1.37
    1    4    8    -20.89      3.00
    1    4    9    -11.48     -2.61
    1    4   10      9.83    -16.60
    1    4   11     11.86     21.10
    1    4   12    -13.27      3.05
    1    4   13     -1.18    -20.77
    1    4   14      8.55      5.48
    1    4   15     -2.47     13.37
    1    4   16     -7.16      5.61
    1    4   17     -3.84     -5.57
    1    4   18      5.03     -0.27
    1    4   19      3.95      4.14
    1    4   20     -5.76      1.11
    1    4   21     -3.19     -0.44
    1    4   22      5.32      1.13
    1    4   23      0.42     -2.08
    2    4    0    253.54     -1.19
    2    4    1    -80.37     22.12
    2    4    2    -61.49    -19.77
    2    4    3    -22.51    -19.52
    2    4    4    -46.28     -4.86
    2    4    5     41.33     -5.81
    2    4    6     26.29     10.67
    2    4    7    -20.96     -9.50
    2    4    8     -4.13     -2.76
    2    4    9      4.81     13.70
    2    4   10    -11.50      1.31
    2    4   11     -2.25     -6.53
    2    4   12      0.85    -11.18
    2    4   13      2.76     -2.45
    2    4   14     -1.60      4.11
    2    4   15     -3.24      3.89
    2    4   16      5.64      6.60
    2    4   17     -0.33      0.51
    2    4   18     -3.23     -2.50
    2    4   19      3.91      2.05
    2    4   20      2.13      3.22
    2    4   21      0.40      0.40
    2    4   22      2.27     -2.77
    2    4   23      0.72     -1.24
    3    4    0    -14.71      4.07
    3    4    1     21.36     34.09
    3    4    2     26.70     45.99
    3    4    3    -15.78    -43.94
    3    4    4    -50.47    -37.33
    3    4    5     18.62     15.60
    3    4    6     13.98     12.44
    3    4    7      4.06      7.20
    3    4    8    -14.84     -5.26
    3    4    9    -17.12     12.22
    3    4   10     14.05      1.86
    3    4   11      5.16    -20.97
    3    4   12     -8.12     -1.81
    3    4   13     -2.17     13.72
    3    4   14      1.12     -7.88
    3    4   15      1.59     -2.95
    3    4   16      0.89      6.68
    3    4   17      0.71     -0.21
    3    4   18      2.81     -4.97
    3    4   19      1.29      1.60
    3    4   20      0.01      1.73
    3    4   21      1.67     -3.58
    3    4   22     -0.45     -2.40
    3    4   23     -0.17      5.06
    4    4    0   -109.00      7.47
    4    4    1    -23.67     19.66
    4    4    2      8.54     50.53
    4    4    3     32.17    -42.36
    4    4    4     14.40    -37.89
    4    4    5      6.02      9.77
    4    4    6    -44.71     15.91
    4    4    7      1.70     12.71
    4    4    8     40.26     -3.13
    4    4    9     -9.56      6.99
    4    4   10    -15.11      3.76
    4    4   11     -4.10     -5.17
    4    4   12      4.34      2.24
    4    4   13      2.29      4.96
    4    4   14     -8.37    -12.16
    4    4   15      3.14     -2.45
    4    4   16      0.92     10.42
    4    4   17      0.90     -2.00
    4    4   18      2.59     -7.40
    4    4   19      1.36     -1.78
    4    4   20     -3.38      0.03
    4    4   21     -0.15     -1.65
    4    4   22      3.75      1.29
    4    4   23      0.10      1.60
    5    4    0     49.31     -7.31
    5    4    1    -12.10      7.35
    5    4    2    -56.75     12.86
    5    4    3    -18.91    -46.97
    5    4    4      4.87     -5.72
    5    4    5      8.99     29.41
    5    4    6     -2.09      5.70
    5    4    7      6.56     -8.37
    5    4    8     13.32      6.56
    5    4    9     -4.05     15.41
    5    4   10     -0.59      8.78
    5    4   11     -2.99     -1.02
    5    4   12     -9.39     -7.58
    5    4   13     -0.86     -7.87
    5    4   14     -5.90     -3.38
    5    4   15      3.03      1.01
    5    4   16      6.52      3.33
    5    4   17      2.06     -3.68
    5    4   18     -7.25      0.58
    5    4   19     -1.71      1.64
    5    4   20      7.14     -2.62
    5    4   21      4.50     -5.02
    5    4   22     -4.00      0.94
    5    4   23     -4.07     -0.80
    6    4    0    115.57    -27.54
    6    4    1     41.06     -4.66
    6    4    2    -66.16     19.88
    6    4    3    -51.23     -0.99
    6    4    4     15.62      4.81
    6    4    5    -12.04      1.23
    6    4    6     -0.94     -7.44
    6    4    7     17.74     -0.87
    6    4    8      4.15     10.62
    6    4    9      0.03      4.29
    6    4   10     -1.88      2.44
    6    4   11     -1.93     -2.70
    6    4   12     -0.85     -4.64
    6    4   13     -0.19     -6.55
    6    4   14     -0.03      2.30
    6    4   15     -1.35      3.84
    6    4   16      3.45     -1.11
    6    4   17      2.45     -3.88
    6    4   18      0.78      0.46
    6    4   19     -4.09      0.69
    6    4   20      1.25     -0.05
    6    4   21      2.38     -3.92
    6    4   22     -3.16     -0.86
    7    4    0     -5.31     -7.70
    7    4    1     23.75     12.01
    7    4    2     22.28     17.09
    7    4    3    -22.66      5.73
    7    4    4    -13.98      0.39
    7    4    5     -2.75     -3.34
    7    4    6      6.79     -5.75
    7    4    7      1.95    -15.18
    7    4    8     -4.70     -6.00
    7    4    9     -2.53     -1.57
    7    4   10      2.67      1.14
    7    4   11      6.55     -1.66
    7    4   12     -2.32      6.40
    7    4   13     -1.10      7.53
    7    4   14     13.56     -0.29
    7    4   15     -0.91     -0.48
    7    4   16     -1.87      0.87
    7    4   17     -0.27     -2.66
    7    4   18     -0.25     -2.19
    7    4   19     -3.37     -2.65
    7    4   20      0.39      1.47
    7    4   21      0.12      1.56
    7    4   22      1.21      0.41
    8    4    0     15.20      8.94
    8    4    1     -2.42     21.17
    8    4    2    -12.60     -7.07
    8    4    3      0.77    -10.06
    8    4    4     14.03     13.52
    8    4    5     15.23      2.86
    8    4    6     -1.86    -17.78
    8    4    7    -15.21     -4.45
    8    4    8     -4.51     -1.24
    8    4    9     -0.74    -13.07
    8    4   10     -2.64      0.75
    8    4   11     10.81      7.79
    8    4   12      2.38      2.09
    8    4   13     -2.73      4.80
    8    4   14      4.99      2.15
    8    4   15     -1.49     -0.84
    8    4   16     -3.20     -3.46
    8    4   17      2.04     -7.09
    8    4   18      1.37      0.76
    8    4   19     -3.15      4.49
    8    4   20     -0.01      2.32
    8    4   21      2.45      0.01
    8    4   22      3.95     -1.42
    9    4    0    -17.35      4.55
    9    4    1     24.04      8.95
    9    4    2      1.91     10.83
    9    4    3     12.08    -18.81
    9    4    4      6.60     -2.49
    9    4    5    -10.50     18.03
    9    4    6      6.65     -6.31
    9    4    7      9.72      2.64
    9    4    8     -8.53      6.37
    9    4    9     -6.23     -3.33
    9    4   10     -2.66     -3.15
    9    4   11      7.32      4.80
    9    4   12      5.32     -2.62
    9    4   13     -5.42     -6.62
    9    4   14     -6.96      1.70
    9    4   15      1.93      0.32
    9    4   16     -1.43     -6.48
    9    4   17     -2.10     -3.31
    9    4   18      6.23      0.10
    9    4   19      1.49      2.94
    9    4   20     -3.43      1.19
    9    4   21      3.16      0.36
   10    4    0     -5.32     -2.67
   10    4    1     21.80     -4.25
   10    4    2     -5.84     11.16
   10    4    3      6.04      3.84
   10    4    4      8.19    -16.83
   10    4    5      5.19     -7.79
   10    4    6    -10.98     15.65
   10    4    7     -1.07     10.24
   10    4    8      7.52      0.04
   10    4    9      6.16      0.42
   10    4   10      0.97     -3.21
   10    4   11     -7.68      1.89
   10    4   12     -0.21      3.29
   10    4   13      1.32     -4.24
   10    4   14     -1.38     -4.13
   10    4   15     -0.47     -1.72
   10    4   16      2.05     -3.40
   10    4   17     -2.57      5.50
   10    4   18     -4.32     -0.85
   10    4   19      1.90     -3.98
   10    4   20      3.07     -1.97
   10    4   21      0.65      0.50
   11    4    0      5.96      2.03
   11    4    1    -15.79      4.58
   11    4    2     14.40    -33.50
   11    4    3     -3.96      5.10
   11    4    4    -25.10      8.45
   11    4    5     14.44    -21.64
   11    4    6      8.75      4.66
   11    4    7     -2.89      7.28
   11    4    8     -7.78      1.35
   11    4    9     -3.86     -6.24
   11    4   10     11.43     -1.84
   11    4   11      2.63      6.83
   11    4   12     -1.35      3.41
   11    4   13      0.90     -2.13
   11    4   14      3.02     -2.03
   11    4   15     -3.09      2.08
   11    4   16     -3.94      0.43
   11    4   17      0.48      3.09
   11    4   18     -0.46     -1.49
   11    4   19     -1.03      0.18
   11    4   20     -0.99      1.65
   11    4   21     -0.94     -2.80
   12    4    0     28.05     -1.00
   12    4    1    -10.98      5.64
   12    4    2    -11.98    -17.18
   12    4    3    -15.97     -2.44
   12    4    4     17.33      7.67
   12    4    5      1.54     -3.86
   12    4    6    -15.36     -2.98
   12    4    7      0.80     -4.50
   12    4    8      4.65      2.01
   12    4    9     -3.33      0.85
   12    4   10     -4.34     -1.51
   12    4   11      5.30      1.10
   12    4   12      6.74     -1.40
   12    4   13     -0.30     -4.60
   12    4   14     -2.80      4.80
   12    4   15      1.23      4.62
   12    4   16     -0.22     -2.91
   12    4   17     -2.91      0.24
   12    4   18      1.66      2.77
   12    4   19     -0.19      1.03
   12    4   20      1.53     -0.47
   13    4    0    -21.29     -4.51
   13    4    1      8.51     -2.03
   13    4    2     13.24     15.94
   13    4    3    -10.65     -2.99
   13    4    4      1.17     -5.19
   13    4    5     -6.35      6.60
   13    4    6      3.96     -1.50
   13    4    7      7.32     -4.44
   13    4    8     -3.60      1.16
   13    4    9     -0.92      5.07
   13    4   10     -0.84     -0.21
   13    4   11      0.64     -4.43
   13    4   12     -1.19      0.68
   13    4   13     -2.09     -1.49
   13    4   14      3.70     -0.03
   13    4   15      4.81      1.72
   13    4   16      3.37      0.77
   13    4   17     -2.68      1.56
   13    4   18     -1.41     -0.98
   13    4   19     -0.45     -0.89
   14    4    0      4.03      1.53
   14    4    1     14.67     -3.22
   14    4    2     -4.16     -2.32
   14    4    3    -11.72      4.32
   14    4    4     -5.66      3.76
   14    4    5     10.30    -10.72
   14    4    6      4.17     -5.69
   14    4    7      1.28     15.30
   14    4    8      5.11      4.73
   14    4    9      1.61    -10.16
   14    4   10     -5.64     -0.23
   14    4   11     -1.21      4.59
   14    4   12      5.38      0.44
   14    4   13     -1.86      3.87
   14    4   14      1.13     -0.06
   14    4   15     -0.87     -1.78
   14    4   16      1.33      1.43
   14    4   17      4.38      4.04
   14    4   18     -2.81     -0.49
   14    4   19     -1.43     -2.36
   15    4    0      7.30     10.88
   15    4    1     -2.88     -0.06
   15    4    2     -5.44    -10.57
   15    4    3      5.46      2.94
   15    4    4     -2.02      5.82
   15    4    5     -0.95     -0.63
   15    4    6      2.42     -3.92
   15    4    7      4.61      3.27
   15    4    8      1.49      1.90
   15    4    9     -4.13     -4.19
   15    4   10      2.45     -3.05
   15    4   11      4.67      5.32
   15    4   12     -4.64      2.31
   15    4   13     -4.34      3.98
   15    4   14      0.80     -0.24
   15    4   15      0.07     -1.76
   15    4   16     -2.32      1.84
   15    4   17      0.77      0.05
   15    4   18     -1.75      2.55
   16    4    0    -22.40      2.58
   16    4    1     -0.75     -1.37
   16    4    2      9.81      5.92
   16    4    3      9.06      8.65
   16    4    4     -0.83      1.07
   16    4    5     -4.54      3.18
   16    4    6      0.97     -2.05
   16    4    7     -1.00     -5.23
   16    4    8      3.29     -3.54
   16    4    9     -5.71      2.40
   16    4   10     -1.53      2.59
   16    4   11      5.14      0.02
   16    4   12     -9.50      0.33
   16    4   13     -0.89      1.79
   16    4   14     -1.40      1.60
   16    4   15     -0.52     -4.08
   16    4   16      3.40     -3.87
   16    4   17     -0.28     -0.13
   17    4    0     -0.63     -0.93
   17    4    1     12.05      6.86
   17    4    2     -5.06    -14.81
   17    4    3     -9.31     -4.69
   17    4    4      4.45     13.34
   17    4    5      7.41     -1.31
   17    4    6     -7.21     -5.36
   17    4    7     -7.88     -2.58
   17    4    8      5.85     -0.73
   17    4    9     -4.66      3.85
   17    4   10     -4.13      3.23
   17    4   11      4.10     -7.56
   17    4   12     -3.30      3.90
   17    4   13      0.36      4.24
   17    4   14      1.55     -5.46
   17    4   15      0.77     -5.03
   17    4   16      0.67     -2.70
   18    4    0     -9.96      1.44
   18    4    1     -2.35     11.49
   18    4    2     10.83    -14.63
   18    4    3     -4.37    -21.82
   18    4    4     -7.70     -2.30
   18    4    5     -5.00     -0.97
   18    4    6     -2.05      9.48
   18    4    7      5.98      1.92
   18    4    8     -1.33     -2.79
   18    4    9     -8.21     -4.20
   18    4   10      1.30     -3.72
   18    4   11      3.32      2.78
   18    4   12      3.08      6.22
   18    4   13      1.42     -3.97
   18    4   14      0.92     -8.34
   18    4   15     -2.47      2.24
   19    4    0    -11.96      7.69
   19    4    1     -6.45      0.47
   19    4    2      6.47      3.45
   19    4    3      0.50    -13.31
   19    4    4     -2.46    -11.60
   19    4    5     -4.68      3.23
   19    4    6      1.65      9.12
   19    4    7      7.15     -6.40
   19    4    8     -1.65     -5.38
   19    4    9     -2.31      1.31
   19    4   10      2.06      1.48
   19    4   11      1.05      0.87
   19    4   12     -0.05     -4.72
   19    4   13     -2.00      0.94
   19    4   14     -0.57      2.55
   20    4    0      1.36      1.03
   20    4    1     -5.16     -5.85
   20    4    2     -4.21      6.15
   20    4    3      4.32      6.54
   20    4    4     -5.60     -2.76
   20    4    5     -1.19     -4.00
   20    4    6     10.53     -3.50
   20    4    7      7.68     -3.15
   20    4    8     -2.51      3.56
   20    4    9     -0.34     -1.43
   20    4   10      0.88     -0.46
   20    4   11     -0.66      0.73
   20    4   12     -0.95     -0.49
   21    4    0      9.24     -2.44
   21    4    1     14.57     -0.90
   21    4    2     -7.22     -6.93
   21    4    3     -5.67     15.60
   21    4    4      3.21      3.81
   21    4    5      2.45     -8.93
   21    4    6      0.13      1.73
   21    4    7      6.48      1.12
   21    4    8      3.19     -1.63
   21    4    9     -4.74     -3.20
   21    4   10     -0.08      4.21
   21    4   11      1.60      1.14
   22    4    0     -0.53      0.31
   22    4    1     12.09      4.14
   22    4    2     -5.33    -14.44
   22    4    3      4.87     12.46
   22    4    4     21.31     13.92
   22    4    5     -7.82     -5.88
   22    4    6    -15.52    -10.41
   22    4    7      5.64      2.04
   22    4    8      8.23      9.02
   22    4    9     -6.80     -2.03
   23    4    0     -1.24      2.67
   23    4    1     15.81      3.09
   23    4    2     -7.10     -2.03
   23    4    3     -1.76      2.97
   23    4    4     18.26     -1.92
   23    4    5     -0.63     -0.61
   23    4    6     -9.43     -0.43
    0    5    0     34.95      0.71
    0    5    1      8.00     -3.59
    0    5    2    -42.71     -3.63
    0    5    3      0.91      3.53
    0    5    4     50.33      5.02
    0    5    5     -1.47     -0.83
    0    5    6    -37.19     -3.80
    0    5    7      3.46      0.32
    0    5    8     18.16      5.44
    0    5    9     -8.87     -1.44
    0    5   10    -11.57     -4.39
    0    5   11      9.16      0.52
    0    5   12      5.79      0.90
    0    5   13     -5.11     -0.18
    0    5   14     -8.56     -0.54
    0    5   15      7.52     -0.28
    0    5   16      5.55      1.10
    0    5   17     -5.76     -0.31
    0    5   18     -3.56      0.35
    0    5   19      2.16      0.20
    0    5   20      4.43     -1.32
    0    5   21     -2.32      0.15
    0    5   22     -4.77      0.25
    0    5   23     -3.15     -0.33
    1    5    0     -7.72     -0.18
    1    5    1     40.91    -73.41
    1    5    2     38.19     41.63
    1    5    3      6.91     55.07
    1    5    4    -31.13    -73.81
    1    5    5    -16.71     65.41
    1    5    6     -1.77     12.01
    1    5    7      8.42    -31.38
    1    5    8     -1.07      5.85
    1    5    9    -12.56    -13.74
    1    5   10      2.12      3.70
    1    5   11      5.40     12.08
    1    5   12     -6.29      1.07
    1    5   13     -0.54      2.86
    1    5   14      0.85     -0.80
    1    5   15      3.33     -0.08
    1    5   16      0.07      2.24
    1    5   17     -2.04     -7.83
    1    5   18      0.24     -4.01
    1    5   19      1.67      0.65
    1    5   20      0.70     -3.53
    1    5   21     -2.96      1.57
    1    5   22     -0.97      4.81
    1    5   23     -1.06     -0.12
    2    5    0      0.20     -1.68
    2    5    1     35.35    -61.55
    2    5    2     61.09     32.27
    2    5    3     26.26     54.23
    2    5    4    -68.22    -39.27
    2    5    5    -37.04     29.11
    2    5    6      8.13      9.14
    2    5    7      8.55    -20.21
    2    5    8      2.59     -6.87
    2    5    9     -4.31      1.44
    2    5   10     -2.49      3.17
    2    5   11      1.43     -2.80
    2    5   12      2.45      4.43
    2    5   13     -6.19     19.95
    2    5   14     -5.08     -3.34
    2    5   15      6.61     -7.58
    2    5   16      3.89     -0.52
    2    5   17     -4.17     -2.21
    2    5   18     -3.57     -1.79
    2    5   19      2.80      0.52
    2    5   20      0.84     -1.33
    2    5   21     -1.19     -0.21
    2    5   22      2.43      2.10
    2    5   23     -0.46     -0.17
    3    5    0     32.62     -2.61
    3    5    1     58.93     15.47
    3    5    2    -26.97    -30.87
    3    5    3    -39.32    -52.21
    3    5    4     -2.83     65.89
    3    5    5      3.14      2.76
    3    5    6     14.05    -20.73
    3    5    7    -10.60      9.68
    3    5    8     -2.32     -5.99
    3    5    9     21.68     -1.17
    3    5   10      1.85     -9.73
    3    5   11     -9.02      0.22
    3    5   12      4.98     19.61
    3    5   13     -3.49      8.74
    3    5   14     -3.19    -16.19
    3    5   15      2.83      0.58
    3    5   16      0.92      4.16
    3    5   17     -6.76     -1.96
    3    5   18     -2.69     -0.55
    3    5   19      5.14      4.42
    3    5   20      1.37     -0.94
    3    5   21     -1.34     -2.71
    3    5   22     -0.78      0.04
    3    5   23      1.85     -0.26
    4    5    0     33.06      0.19
    4    5    1     12.14     29.16
    4    5    2    -70.89    -42.04
    4    5    3    -16.35    -81.16
    4    5    4     43.70     58.25
    4    5    5     -9.93      0.36
    4    5    6     14.00      3.09
    4    5    7     18.16     16.52
    4    5    8     -2.22    -23.17
    4    5    9     -6.25     -5.49
    4    5   10      0.55     12.70
    4    5   11      7.37     -1.36
    4    5   12     -3.52      1.12
    4    5   13     -5.68      4.85
    4    5   14      4.72     -3.85
    4    5   15      3.60     -4.45
    4    5   16      2.17     -0.28
    4    5   17     -2.73      2.78
    4    5   18     -0.72     -0.64
    4    5   19     -1.51      0.90
    4    5   20      0.50      1.14
    4    5   21      3.18      0.55
    4    5   22     -2.73     -0.84
    4    5   23      1.33     -2.24
    5    5    0    -26.46      1.19
    5    5    1      9.09    -13.01
    5    5    2     14.66     -8.06
    5    5    3      4.23     16.39
    5    5    4     -4.69     -4.24
    5    5    5     14.69    -24.13
    5    5    6      8.12     21.12
    5    5    7    -13.15      9.12
    5    5    8      9.78    -11.31
    5    5    9      3.23     -1.43
    5    5   10    -16.73      9.64
    5    5   11     -3.83      1.83
    5    5   12      2.44     -8.94
    5    5   13      9.06     -3.90
    5    5   14      2.33      9.14
    5    5   15     -4.61     -0.77
    5    5   16      6.13     -7.84
    5    5   17      4.92      0.58
    5    5   18      1.66      4.95
    5    5   19     -1.92     -2.04
    5    5   20     -5.03     -0.08
    5    5   21     -0.71      0.73
    5    5   22      5.70      3.08
    5    5   23      2.77     -0.76
    6    5    0    -32.72      0.64
    6    5    1      2.63      4.48
    6    5    2     39.09    -17.60
    6    5    3     21.74     32.47
    6    5    4    -22.31      9.52
    6    5    5     -5.52    -15.06
    6    5    6     -0.99    -16.69
    6    5    7     -2.00     -4.74
    6    5    8      5.15     16.53
    6    5    9     -4.82     12.97
    6    5   10     -3.85    -16.47
    6    5   11      5.28     -6.33
    6    5   12     -3.32      4.88
    6    5   13      2.85     -2.25
    6    5   14      7.55      1.77
    6    5   15     -2.19     -0.19
    6    5   16      2.64     -0.21
    6    5   17      0.37      2.52
    6    5   18     -8.82      3.60
    6    5   19      1.53     -4.39
    6    5   20      4.46      2.40
    6    5   21     -1.06      0.35
    6    5   22      3.29      0.12
    7    5    0     -0.74      0.50
    7    5    1     38.85     44.23
    7    5    2     -1.08    -28.77
    7    5    3    -26.20    -30.28
    7    5    4     -3.82     10.98
    7    5    5      3.71     19.11
    7    5    6     -5.77    -12.54
    7    5    7      0.30     -8.25
    7    5    8      8.65    -12.95
    7    5    9      0.49      4.38
    7    5   10     -2.25      9.73
    7    5   11     -0.70     -4.57
    7    5   12      2.96     -8.18
    7    5   13      5.73      2.54
    7    5   14      3.77      4.04
    7    5   15     -2.05     -3.95
    7    5   16     -3.25      1.82
    7    5   17     -1.65      3.73
    7    5   18     -8.89      3.75
    7    5   19     -0.87     -2.05
    7    5   20      3.03     -0.16
    7    5   21      1.84      0.70
    7    5   22      1.55     -1.27
    8    5    0     13.51      0.67
    8    5    1    -10.07      9.05
    8    5    2      3.11      0.45
    8    5    3     -0.24     -7.08
    8    5    4    -15.41    -19.74
    8    5    5     -1.99      4.34
    8    5    6      2.47      3.43
    8    5    7      2.13      1.76
    8    5    8      7.55     -8.26
    8    5    9     -4.42     -9.85
    8    5   10     -6.55      5.55
    8    5   11      0.47      2.84
    8    5   12      4.71      3.60
    8    5   13     -0.33      4.50
    8    5   14     -0.53    -12.11
    8    5   15      5.71     -2.34
    8    5   16     -6.30     10.79
    8    5   17     -3.02     -2.62
    8    5   18      3.30     -5.00
    8    5   19      0.38      4.22
    8    5   20     -4.96      0.91
    8    5   21      1.53     -0.30
    8    5   22      0.34      1.90
    9    5    0      4.85     -1.21
    9    5    1    -17.53    -26.05
    9    5    2     15.93     29.64
    9    5    3     -1.93     16.60
    9    5    4    -14.73    -20.25
    9    5    5     16.99      1.08
    9    5    6      1.82      7.87
    9    5    7    -17.75     -9.01
    9    5    8     -1.73      1.90
    9    5    9      9.64      3.65
    9    5   10      4.46      5.22
    9    5   11     -7.84     -4.49
    9    5   12     -8.86     -2.84
    9    5   13      3.72      8.71
    9    5   14      3.27      0.07
    9    5   15     -1.49     -4.78
    9    5   16     -0.57     -1.64
    9    5   17      2.46      2.21
    9    5   18      3.37     -3.85
    9    5   19      1.81     -0.18
    9    5   20     -1.26      1.03
    9    5   21      2.49      1.68
   10    5    0     -4.49     -1.05
   10    5    1    -28.67     -7.65
   10    5    2     -5.79     17.58
   10    5    3      2.25     -5.14
   10    5    4      7.32      7.88
   10    5    5     -1.48      7.66
   10    5    6     -6.42      3.64
   10    5    7      2.90     -5.47
   10    5    8     -0.96     -0.69
   10    5    9     -3.90      1.40
   10    5   10      8.46      4.27
   10    5   11      3.92     -2.62
   10    5   12     -9.81     -1.18
   10    5   13     -5.85      5.57
   10    5   14      6.73      4.67
   10    5   15      2.76     -3.82
   10    5   16      0.43     -2.01
   10    5   17     -0.52      1.94
   10    5   18      2.89     -4.66
   10    5   19      1.55      1.08
   10    5   20     -2.00     -0.42
   10    5   21      3.33     -0.22
   11    5    0     10.63      0.09
   11    5    1     -2.12      8.88
   11    5    2    -22.92      4.97
   11    5    3     -8.95     -9.21
   11    5    4     10.44     -5.49
   11    5    5      5.25     11.51
   11    5    6    -10.05     16.19
   11    5    7      1.52     -3.00
   11    5    8      5.90     -8.83
   11    5    9     -4.47     -1.16
   11    5   10     -1.45      2.31
   11    5   11     -3.71      1.23
   11    5   12      2.69      0.56
   11    5   13     -0.39      0.54
   11    5   14     -1.79      3.95
   11    5   15      2.98     -1.09
   11    5   16      4.27     -2.79
   11    5   17      0.14     -2.40
   11    5   18     -2.16      1.46
   11    5   19     -0.97      0.96
   11    5   20      0.03     -2.18
   12    5    0     12.82     -0.04
   12    5    1      3.49     -4.73
   12    5    2     -6.96     -0.08
   12    5    3     13.44     15.86
   12    5    4      0.20     -7.15
   12    5    5     -5.08      4.37
   12    5    6     -3.37      1.44
   12    5    7      7.67     -2.09
   12    5    8      2.33      0.53
   12    5    9     -8.56      1.49
   12    5   10     -4.77     -1.04
   12    5   11      0.39      3.28
   12    5   12      0.58     -0.47
   12    5   13     -3.06     -5.56
   12    5   14     -3.23     -0.11
   12    5   15      7.29      0.76
   12    5   16      2.11     -1.59
   12    5   17     -2.51     -0.80
   12    5   18     -2.43      2.31
   12    5   19     -0.06     -4.38
   12    5   20      1.65      1.27
   13    5    0      6.83     -1.08
   13    5    1     16.06     -5.99
   13    5    2     -7.10      3.86
   13    5    3      0.56     14.02
   13    5    4     12.80      6.32
   13    5    5     -0.93     -2.11
   13    5    6     -0.13    -10.35
   13    5    7     -2.58     -3.74
   13    5    8     -5.05     -0.94
   13    5    9      5.03      4.97
   13    5   10      2.01      3.18
   13    5   11      2.25     -7.14
   13    5   12     -7.06      1.40
   13    5   13     -0.24      1.40
   13    5   14      3.94     -2.99
   13    5   15      2.86      1.00
   13    5   16     -3.17      2.48
   13    5   17      0.16     -1.63
   13    5   18      0.32     -2.00
   13    5   19     -1.08      0.68
   14    5    0      0.29     -0.02
   14    5    1     -7.02      9.83
   14    5    2     -6.52      0.78
   14    5    3      2.70    -13.09
   14    5    4     15.40      8.77
   14    5    5     -9.23     -3.55
   14    5    6     -6.94     -4.33
   14    5    7     -3.47      1.92
   14    5    8      5.64      3.69
   14    5    9      4.75     -6.28
   14    5   10     -6.12      0.23
   14    5   11      0.41     -5.99
   14    5   12      5.66     -0.47
   14    5   13      4.55      7.13
   14    5   14      2.00      4.25
   14    5   15      0.05      1.80
   14    5   16     -1.02     -0.70
   14    5   17      0.35      0.25
   14    5   18     -2.24     -1.30
   14    5   19      1.11      0.71
   15    5    0      3.61     -0.17
   15    5    1     18.11      4.59
   15    5    2      0.62      2.57
   15    5    3    -13.22    -13.64
   15    5    4     -0.25     -7.99
   15    5    5      6.03     -3.12
   15    5    6     -0.90     12.49
   15    5    7     -7.79      1.86
   15    5    8      4.37      9.95
   15    5    9     -2.63     -3.02
   15    5   10     -6.02     -4.03
   15    5   11     -3.03     -0.29
   15    5   12      8.14     -4.77
   15    5   13      5.67      5.05
   15    5   14     -1.34      3.56
   15    5   15     -2.02      2.51
   15    5   16      1.98     -1.44
   15    5   17     -0.56      0.74
   15    5   18     -1.20      1.16
   16    5    0     -8.25     -0.09
   16    5    1      7.96    -13.68
   16    5    2      9.53     -7.60
   16    5    3     11.22     15.77
   16    5    4     -9.75      9.44
   16    5    5    -14.94    -12.57
   16    5    6      6.88     -1.27
   16    5    7     15.62      6.76
   16    5    8     -0.56     13.24
   16    5    9    -11.53      0.47
   16    5   10     -3.74     -4.82
   16    5   11      0.32      3.90
   16    5   12      3.68      0.63
   16    5   13      3.48      0.70
   16    5   14     -5.75     -6.43
   16    5   15     -6.05     -1.67
   16    5   16      4.93      3.16
   16    5   17      2.45      0.75
   17    5    0     -6.88     -0.21
   17    5    1      8.17     -3.19
   17    5    2      5.61     -3.62
   17    5    3     -2.45      6.08
   17    5    4     -7.28      5.03
   17    5    5     -3.35      5.17
   17    5    6      0.66      1.44
   17    5    7      5.15      0.99
   17    5    8      3.45     -0.12
   17    5    9      4.47     -1.00
   17    5   10     -0.99     -2.77
   17    5   11     -2.28     -0.27
   17    5   12      0.63      8.45
   17    5   13     -1.99      0.91
   17    5   14     -3.72     -5.62
   17    5   15      3.07     -5.77
   17    5   16      3.44      0.93
   18    5    0      3.11      0.88
   18    5    1     -0.15      9.74
   18    5    2      3.47      4.37
   18    5    3     -7.06     -7.05
   18    5    4     -8.51     -9.09
   18    5    5     -0.35     10.47
   18    5    6     -0.43      6.20
   18    5    7      7.46      0.51
   18    5    8      4.07     -5.29
   18    5    9     -7.53     -7.08
   18    5   10      3.25     -1.29
   18    5   11      4.98      2.20
   18    5   12     -1.38      0.99
   18    5   13     -4.70     -1.64
   18    5   14      2.43      1.90
   18    5   15      7.90     -1.95
   19    5    0     12.92      1.53
   19    5    1      3.96      4.84
   19    5    2     -8.81      7.81
   19    5    3     -5.20      7.39
   19    5    4      6.30     -0.60
   19    5    5      9.79    -11.22
   19    5    6     -4.39     -1.03
   19    5    7     -9.45     -1.80
   19    5    8      2.38     -3.32
   19    5    9      2.30      0.38
   19    5   10      0.85      3.33
   19    5   11     -2.96      2.45
   19    5   12      0.27    -12.67
   19    5   13      2.86      1.32
   19    5   14      3.74      6.55
   20    5    0     -5.19     -1.96
   20    5    1    -13.29      0.67
   20    5    2      3.65      6.50
   20    5    3     18.70     12.47
   20    5    4      0.02     10.05
   20    5    5     -5.05    -21.27
   20    5    6     -2.74     -0.25
   20    5    7    -12.88      0.34
   20    5    8      1.34     -2.11
   20    5    9     15.54      3.63
   20    5   10     -8.12      0.87
   20    5   11     -8.01      0.91
   20    5   12      8.88     -3.47
   21    5    0      7.06     -5.29
   21    5    1      9.17      2.04
   21    5    2     -3.76      0.87
   21    5    3     -6.58     -1.55
   21    5    4     -2.92      5.85
   21    5    5      5.30     -4.96
   21    5    6      0.95      6.34
   21    5    7    -12.98      6.71
   21    5    8     -3.43     -2.97
   21    5    9     10.54     -2.09
   21    5   10     -0.49      2.24
   21    5   11     -2.15     -2.42
   22    5    0     -4.78     -1.45
   22    5    1     -7.36      0.60
   22    5    2      1.34      3.62
   22    5    3      0.49     -4.86
   22    5    4     -4.96     -3.31
   22    5    5     -1.47      8.03
   22    5    6      6.25      2.42
   22    5    7      1.34      2.29
   22    5    8     -3.48      0.98
   22    5    9     -4.67     -3.08
   23    5    0     -4.19      1.44
   23    5    1      3.41      0.98
   23    5    2     -4.65      9.05
   23    5    3     -2.05      0.90
   23    5    4      7.01     -3.51
   23    5    5      0.62      1.60
   23    5    6     -0.20     -3.79
    0    6    0   -166.98      2.31
    0    6    1    -30.95      0.44
    0    6    2    -49.72      9.14
    0    6    3     36.42      0.77
    0    6    4    115.05     -1.77
    0    6    5    -29.05      0.11
    0    6    6    -42.48      1.14
    0    6    7     20.87     -1.13
    0    6    8     14.92     -2.59
    0    6    9    -21.94     -0.36
    0    6   10    -23.10      0.45
    0    6   11     18.90      0.46
    0    6   12     28.02      0.70
    0    6   13    -13.82     -1.93
    0    6   14     -5.52     -0.44
    0    6   15      6.03      1.28
    0    6   16      1.57      0.70
    0    6   17     -3.70     -2.35
    0    6   18      6.72     -0.54
    0    6   19      1.80      2.07
    0    6   20     -5.83      0.13
    0    6   21      0.69     -0.45
    0    6   22      0.51     -0.74
    0    6   23      4.33      0.00
    1    6    0   -174.43      0.84
    1    6    1     18.24    -16.36
    1    6    2     45.27     15.27
    1    6    3     32.27     25.08
    1    6    4    -39.56      2.31
    1    6    5    -28.45      9.44
    1    6    6     41.10     -5.42
    1    6    7     19.25      7.84
    1    6    8    -24.59      1.92
    1    6    9    -13.78     -3.72
    1    6   10      6.57     -8.38
    1    6   11      5.88     -2.85
    1    6   12      5.89      8.08
    1    6   13     -3.33     -9.24
    1    6   14      9.77     -3.98
    1    6   15      0.55      0.17
    1    6   16     -8.28     -0.52
    1    6   17     -0.26      0.69
    1    6   18      6.75      0.01
    1    6   19      3.34      3.21
    1    6   20     -4.51     -3.77
    1    6   21     -4.89     -1.20
    1    6   22      4.30      1.98
    1    6   23      4.37      0.95
    2    6    0     20.96     -0.43
    2    6    1     81.91      3.97
    2    6    2    -37.39     10.17
    2    6    3     -5.12     -1.72
    2    6    4    -24.60      8.60
    2    6    5     12.89     10.72
    2    6    6     -4.66      0.14
    2    6    7    -12.39     -8.84
    2    6    8     20.38     -5.64
    2    6    9      9.13      8.40
    2    6   10     -7.90      9.80
    2    6   11     -9.83      1.79
    2    6   12      4.99     -6.45
    2    6   13      4.75     -6.12
    2    6   14     -0.92      2.48
    2    6   15     -0.65     -8.40
    2    6   16      2.44     -1.52
    2    6   17      0.92      6.85
    2    6   18     -6.12     -1.42
    2    6   19      0.27      0.54
    2    6   20      3.47     -1.48
    2    6   21     -3.45     -1.72
    2    6   22      0.31      2.07
    2    6   23     -1.30     -1.00
    3    6    0    -12.61     -5.04
    3    6    1    -12.92     10.74
    3    6    2     11.68     -3.05
    3    6    3     19.69      1.26
    3    6    4     -5.36     -4.25
    3    6    5     -5.31    -14.90
    3    6    6     -7.17      9.63
    3    6    7     -5.84    -11.49
    3    6    8     15.50     -1.09
    3    6    9      2.40      4.70
    3    6   10      4.60     -0.39
    3    6   11      2.84      7.44
    3    6   12    -15.62      2.11
    3    6   13     -2.32     -6.13
    3    6   14      1.38      2.28
    3    6   15      3.92     -1.01
    3    6   16      2.93     -1.85
    3    6   17     -5.55     -2.75
    3    6   18     -3.91      0.42
    3    6   19     -1.20      4.81
    3    6   20      0.21      2.22
    3    6   21      1.48     -3.04
    3    6   22     -2.99     -0.28
    3    6   23     -2.01     -0.25
    4    6    0     38.42     -1.68
    4    6    1    -94.21      1.91
    4    6    2     16.83    -37.89
    4    6    3     51.41     11.24
    4    6    4     10.41      7.39
    4    6    5    -41.94     -6.26
    4    6    6     -8.65     -6.63
    4    6    7     -2.82     -7.22
    4    6    8     11.92      1.76
    4    6    9     12.41    -10.94
    4    6   10     -4.74     -8.84
    4    6   11      2.64      7.03
    4    6   12     -1.51     10.49
    4    6   13     -3.20     -4.05
    4    6   14     -2.97     -0.39
    4    6   15      4.92      8.52
    4    6   16      0.39      0.59
    4    6   17     -8.68    -12.32
    4    6   18      1.84      2.33
    4    6   19      2.38      8.22
    4    6   20     -5.03      2.28
    4    6   21     -1.12      0.09
    4    6   22      0.80     -1.92
    4    6   23      2.98     -0.03
    5    6    0    111.82      7.04
    5    6    1     11.79     -5.34
    5    6    2    -19.67    -31.81
    5    6    4     18.67     16.98
    5    6    5    -21.30     26.82
    5    6    6    -16.68    -23.62
    5    6    7      4.23    -11.54
    5    6    8     -7.30     -0.99
    5    6    9      0.89    -10.25
    5    6   10     13.87      1.68
    5    6   11      3.92      4.44
    5    6   12     -1.76      3.62
    5    6   13     -2.40      6.08
    5    6   14     -2.95      2.21
    5    6   15      1.53      3.11
    5    6   16      4.09     -3.45
    5    6   17     -1.36     -5.83
    5    6   18     -7.57      6.20
    5    6   19      3.24      8.02
    5    6   20      4.47     -1.63
    5    6   21     -3.28     -0.27
    5    6   22     -1.47     -1.68
    5    6   23      0.76      1.21
    6    6    0     -2.01      4.31
    6    6    1     20.83    -27.24
    6    6    2     -3.09      4.09
    6    6    3     13.86     30.11
    6    6    4     27.77      4.61
    6    6    5    -10.19     -7.23
    6    6    6    -22.77    -11.74
    6    6    7     17.46     14.10
    6    6    8     -0.94     -1.80
    6    6    9    -12.08     -8.25
    6    6   10      9.25      2.56
    6    6   11     -1.17      0.06
    6    6   12     -4.82      2.69
    6    6   13      1.56      7.12
    6    6   14     -1.87     -0.01
    6    6   15     -5.06      2.81
    6    6   16      2.91     -3.87
    6    6   17      6.65      0.63
    6    6   18     -2.85      1.26
    6    6   19      1.64      7.01
    6    6   20     -1.39      0.44
    6    6   21     -4.40     -1.45
    6    6   22      3.14     -1.12
    7    6    0    -63.22      4.69
    7    6    1     -5.85    -25.39
    7    6    2     -7.65     -4.68
    7    6    3     27.41     19.79
    7    6    4     13.49      8.66
    7    6    5     -0.42     -4.20
    7    6    6      9.12      6.83
    7    6    7      1.08      8.44
    7    6    8     -2.46     -5.93
    7    6    9      5.43      3.79
    7    6   10     -5.81     -0.76
    7    6   11     -8.91    -13.33
    7    6   12     -0.96     -1.29
    7    6   13     -0.93      4.92
    7    6   14     -0.62      1.25
    7    6   15      0.12      0.50
    7    6   16      3.26     -4.39
    7    6   17      0.15      4.84
    7    6   18     -1.46      2.04
    7    6   19      2.29      0.69
    7    6   20     -0.09     -2.77
    7    6   21     -0.86      1.77
    7    6   22     -0.46      2.03
    8    6    0     -4.22     -1.14
    8    6    1     20.04     -9.29
    8    6    2    -24.30    -19.16
    8    6    3     -4.39     -9.32
    8    6    4      2.28     15.45
    8    6    5     10.89     13.61
    8    6    6      9.38      2.61
    8    6    7    -11.87     -0.56
    8    6    8     -6.92      4.24
    8    6    9     12.37     -4.19
    8    6   10     -2.64     -7.07
    8    6   11     -3.89     -3.87
    8    6   12      4.38     -2.49
    8    6   13     -2.75      3.58
    8    6   14      1.80      0.68
    8    6   15      4.55     -4.25
    8    6   16     -3.66     -0.05
    8    6   17     -2.77      1.27
    8    6   18      3.47      4.95
    8    6   19     -0.71     -0.76
    8    6   20     -0.13     -5.68
    8    6   21      0.67     -0.76
    8    6   22     -1.63      1.57
    9    6    0      0.34     -2.40
    9    6    1     17.71      0.77
    9    6    2     -1.56     -0.78
    9    6    3    -20.70     -6.03
    9    6    4     20.46     -7.93
    9    6    5     -0.24      7.43
    9    6    6    -26.17      8.00
    9    6    7      4.22     -5.48
    9    6    8      5.22     -0.32
    9    6    9     -3.00    -11.67
    9    6   10      4.51     -0.09
    9    6   11      2.29     14.61
    9    6   12      1.89     -0.99
    9    6   13      3.62      0.59
    9    6   14      0.28      0.94
    9    6   15      2.89     -3.64
    9    6   16     -4.97      5.54
    9    6   17     -2.02     -0.01
    9    6   18      4.63      1.90
    9    6   19     -1.82     -3.12
    9    6   20     -2.00     -2.50
    9    6   21     -0.51     -2.19
   10    6    0    -21.25     -0.96
   10    6    1    -23.07      4.91
   10    6    2     13.36     11.43
   10    6    3     -4.71     13.18
   10    6    4     16.87    -10.00
   10    6    5     -7.92    -11.68
   10    6    6     -7.57      3.03
   10    6    7     -2.51     -0.25
   10    6    8      2.75     -7.38
   10    6    9      0.31     -2.36
   10    6   10      4.84      4.36
   10    6   11     -1.49      6.89
   10    6   12     -9.21      2.86
   10    6   13      4.82      0.53
   10    6   14      4.53      1.20
   10    6   15      0.42     -2.78
   10    6   16      1.77      4.58
   10    6   17      1.87      1.63
   10    6   18     -3.73      2.21
   10    6   19     -2.20     -2.50
   10    6   20      2.23     -2.01
   10    6   21      0.87     -0.24
   11    6    0      2.66      1.37
   11    6    1    -14.72      3.67
   11    6    2      3.21      0.12
   11    6    3     12.84      4.97
   11    6    4    -14.80     13.17
   11    6    5    -11.31    -10.73
   11    6    6     27.25    -16.08
   11    6    7     -3.56     12.33
   11    6    8     -7.67      2.93
   11    6    9     -4.45      2.76
   11    6   10     -5.87      2.08
   11    6   11      1.72     -4.49
   11    6   12     -2.85     -3.92
   11    6   13     -4.12      0.64
   11    6   14      5.00      1.10
   11    6   15      1.64     -1.28
   11    6   16      1.38      1.46
   11    6   17      3.49     -2.81
   11    6   18     -1.63      1.20
   11    6   19      0.84      4.01
   11    6   20     -2.84      1.78
   12    6    0     28.24      1.16
   12    6    1     19.23     -7.31
   12    6    2    -14.16      4.38
   12    6    3      7.11     -3.76
   12    6    4     -3.26     -3.14
   12    6    5     -2.10     -1.83
   12    6    6     -5.95      4.70
   12    6    7     -0.80     12.27
   12    6    8      6.66      1.08
   12    6    9     -1.16      0.21
   12    6   10     -8.50     -1.71
   12    6   11     -1.59     -3.34
   12    6   12     -1.01     -2.76
   12    6   13     -5.23      5.29
   12    6   14      4.48     -5.54
   12    6   15      2.94     -1.47
   12    6   16     -3.91     -1.59
   12    6   17      0.42     -3.17
   12    6   18     -0.93      3.37
   12    6   19      2.60      2.41
   12    6   20     -1.62     -0.68
   13    6    0      1.75      1.67
   13    6    1      7.89     -5.33
   13    6    2      0.09      5.77
   13    6    3      7.10     -1.94
   13    6    4     -5.12     -9.57
   13    6    5     -8.41      0.47
   13    6    6     -9.26     22.27
   13    6    7      9.73      2.91
   13    6    8      1.13    -14.78
   13    6    9     -0.94     -8.05
   13    6   10      8.22      5.18
   13    6   11     -0.33      7.52
   13    6   12     -8.87      1.11
   13    6   13     -1.55     -2.57
   13    6   14      1.31     -7.37
   13    6   15      0.89      2.74
   13    6   16     -2.67      1.79
   13    6   17     -0.20     -1.96
   13    6   18     -2.12     -2.41
   13    6   19     -1.36     -0.51
   14    6    0     -0.85     -0.25
   14    6    1     -1.33      6.42
   14    6    2     -3.42     -6.23
   14    6    3     -1.31      5.48
   14    6    4     -4.77     11.87
   14    6    5     -0.15    -10.70
   14    6    6      2.73     -3.51
   14    6    7      2.43      5.09
   14    6    8     -3.10     -4.83
   14    6    9     -2.10     -6.41
   14    6   10     10.46      6.84
   14    6   11      1.43      0.79
   14    6   12     -2.95     -1.67
   14    6   13      0.39     -6.19
   14    6   14     -2.23      2.02
   14    6   15     -0.45     -0.43
   14    6   16      1.14      0.12
   14    6   17     -0.09      0.50
   14    6   18      0.54     -3.24
   15    6    0      3.69     -1.79
   15    6    1    -11.04      2.95
   15    6    2     -4.88     -8.56
   15    6    3      4.90      2.21
   15    6    4      6.93      2.69
   15    6    5     -2.12     -0.95
   15    6    6     -3.56     -6.47
   15    6    7      1.76     -3.26
   15    6    8     -2.92      1.77
   15    6    9     -0.52      8.96
   15    6   10      9.99      3.16
   15    6   11     -2.48    -11.50
   15    6   12     -0.78     -2.10
   15    6   13      0.97     -0.28
   15    6   14      2.23      1.35
   15    6   15      0.64      0.61
   15    6   16     -0.39      1.60
   15    6   17     -2.98     -3.86
   15    6   18      1.26      0.40
   16    6    0    -14.21     -6.02
   16    6    1     -9.70     -8.05
   16    6    2     14.49      6.97
   16    6    3      6.31     -4.01
   16    6    4      0.31    -10.49
   16    6    5    -10.02     12.25
   16    6    6      5.63      6.80
   16    6    7      7.42     -5.67
   16    6    8     -6.24     -4.30
   16    6    9      2.25      2.70
   16    6   10     -0.34     -2.07
   16    6   11     -2.55     -2.97
   16    6   12      6.35     -0.71
   16    6   13      3.40      5.38
   16    6   14     -3.50      1.55
   16    6   15     -5.02      0.71
   16    6   16      1.32      1.27
   16    6   17      2.41     -0.90
   17    6    0     13.43     -5.03
   17    6    1      0.93     -7.12
   17    6    2     -6.70     14.39
   17    6    3      3.38      0.96
   17    6    4      1.98      2.53
   17    6    5     -4.09      2.97
   17    6    6     12.11     -0.78
   17    6    7      2.33      5.10
   17    6    8     -3.39     -2.66
   17    6    9     -0.28     -8.52
   17    6   10    -12.07     -4.37
   17    6   11      2.29      4.29
   17    6   12      7.16      3.64
   17    6   13      1.25      1.97
   17    6   14     -0.77     -0.43
   17    6   15     -1.20      1.97
   17    6   16     -0.99      2.96
   18    6    0      0.78     -5.64
   18    6    1     -1.77     -6.17
   18    6    2     10.35     16.08
   18    6    3     12.43     19.45
   18    6    4    -24.09     -9.61
   18    6    5     -1.62    -12.90
   18    6    6     19.21      5.57
   18    6    7      0.33     11.62
   18    6    8     -9.71     -1.75
   18    6    9     -5.02     -3.20
   18    6   10      0.63     -3.26
   18    6   11      2.32     -0.23
   18    6   12     -4.37     11.55
   18    6   13      2.55     -3.33
   18    6   14      8.86     -9.86
   18    6   15     -1.39      2.36
   19    6    0     -4.04     -1.50
   19    6    1      5.17     -7.73
   19    6    2     10.58      2.62
   19    6    3      0.37     19.47
   19    6    4    -15.31    -11.92
   19    6    5      3.56     -2.80
   19    6    6      2.71     11.86
   19    6    7     -3.47     -0.01
   19    6    8     -4.04     -9.68
   19    6    9     -0.79      7.23
   19    6   10      8.37      7.11
   19    6   11      4.03     -2.79
   19    6   12     -4.82      0.83
   19    6   13     -1.99     -2.07
   19    6   14      3.64     -5.45
   20    6    0     -1.64      0.35
   20    6    1      1.01      1.19
   20    6    2     -0.04     -0.34
   20    6    3     -4.33     -2.08
   20    6    4     -0.86      4.12
   20    6    5     -1.92      6.74
   20    6    6      5.78     -0.44
   20    6    7     -1.82     -3.16
   20    6    8     -6.65     -1.77
   20    6    9      1.68      2.85
   20    6   10      6.36     -0.51
   20    6   11      2.51      1.65
   20    6   12     -1.58     -2.32
   21    6    0      8.22      0.17
   21    6    1     -8.64      3.38
   21    6    2     -9.41      2.07
   21    6    3      0.04     -6.39
   21    6    4      6.82      3.47
   21    6    5     -5.43     -4.53
   21    6    6      2.15      1.24
   21    6    7      0.05      2.74
   21    6    8     -1.27     -1.62
   21    6    9      0.63     -0.29
   21    6   10     -3.42      0.42
   22    6    0      4.82     -1.87
   22    6    1    -30.41     -5.78
   22    6    2      0.56     -6.67
   22    6    3     16.49      1.90
   22    6    4     -2.45      9.24
   22    6    5    -15.46     -8.23
   22    6    6     -2.57    -10.02
   22    6    7      9.81      2.17
   22    6    8      0.55     11.04
   23    6    0      3.45     -1.75
   23    6    1     -5.50    -10.20
   23    6    2      3.01      2.17
   23    6    3     -1.76      7.31
   23    6    4     -5.98     -1.60
   23    6    5      1.25     -5.87
    0    7    0     24.31     -0.63
    0    7    1     -5.46      1.09
    0    7    2    -34.69     -0.57
    0    7    3    -14.90      1.76
    0    7    4     36.66     -0.29
    0    7    5     21.63     -6.25
    0    7    6    -13.12     -1.41
    0    7    7     -9.44     10.82
    0    7    8     19.08      1.62
    0    7    9     -5.86     -5.43
    0    7   10      7.69     -1.80
    0    7   11      4.99      0.14
    0    7   12     -5.01      2.63
    0    7   13     -4.74      0.42
    0    7   14    -11.20     -0.66
    0    7   15      3.36     -0.19
    0    7   16     15.89     -0.80
    0    7   17    -10.81     -0.10
    0    7   18     -8.18      0.11
    0    7   19      9.07      0.29
    0    7   20      1.53      0.89
    0    7   21      1.13      0.24
    0    7   22      0.18     -0.41
    0    7   23     -0.06     -0.10
    1    7    0    -41.32     -0.59
    1    7    1    -11.54     70.13
    1    7    2     14.83    -88.36
    1    7    3      0.34    -44.30
    1    7    4     -1.17     13.19
    1    7    5      6.53      0.09
    1    7    6     11.24     23.30
    1    7    7     10.09      3.99
    1    7    8     -5.90      0.78
    1    7    9     -9.88    -18.92
    1    7   10     17.48    -12.98
    1    7   11      6.88      7.12
    1    7   12    -15.43      6.40
    1    7   13     -4.88      4.79
    1    7   14      6.54      3.06
    1    7   15      1.38     -3.28
    1    7   16     -5.57     -9.54
    1    7   17     -5.39      7.56
    1    7   18      9.03      7.61
    1    7   19      3.05      0.96
    1    7   20     -4.97     -3.79
    1    7   21      1.86      0.15
    1    7   22      1.99      2.41
    1    7   23      0.78     -1.25
    2    7    0    -55.18      1.10
    2    7    1    -51.16     16.46
    2    7    2     22.12    -56.03
    2    7    3     35.22     -0.28
    2    7    4     -6.67    -18.81
    2    7    5    -16.62      0.54
    2    7    6      1.39     49.91
    2    7    7     16.86     -7.04
    2    7    8      0.28    -10.31
    2    7    9     -0.29     -2.27
    2    7   10    -12.04      0.74
    2    7   11      4.81     -1.45
    2    7   12      9.93     -3.48
    2    7   13     -7.63     10.18
    2    7   14      1.09      3.17
    2    7   15      6.73     -2.80
    2    7   16    -12.53     -1.79
    2    7   17      0.54      6.18
    2    7   18     12.29      3.52
    2    7   19     -4.46     -5.62
    2    7   20     -2.81      0.29
    2    7   21      1.94      3.61
    2    7   22     -0.45     -2.35
    2    7   23      1.00     -3.21
    3    7    0    -16.25      1.24
    3    7    1     12.48    -19.69
    3    7    2      7.21     56.82
    3    7    3    -22.76      0.91
    3    7    4     -1.94    -41.03
    3    7    5     15.68     38.19
    3    7    6      0.26      4.02
    3    7    7    -26.38    -12.27
    3    7    8     -8.22     21.90
    3    7    9     26.83     -3.83
    3    7   10     -8.33    -16.69
    3    7   11    -13.77      3.05
    3    7   12     12.06      6.70
    3    7   13      3.49     -4.27
    3    7   14      2.82     -6.47
    3    7   15      5.27      8.38
    3    7   16     -6.46     11.48
    3    7   17      4.57     -5.56
    3    7   18     -2.78     -5.22
    3    7   19     -3.84     -3.29
    3    7   20      2.57      2.22
    3    7   21     -1.36      1.00
    3    7   22     -1.88      0.65
    3    7   23      0.43      1.69
    4    7    0     27.86      0.96
    4    7    1     -5.85     -3.09
    4    7    2    -15.00     88.74
    4    7    3      0.62      9.86
    4    7    4     15.41    -29.85
    4    7    5    -18.13      9.17
    4    7    6    -12.48    -31.67
    4    7    7      2.11     16.22
    4    7    8     -4.49     17.22
    4    7    9     -1.28    -14.25
    4    7   10      5.69     -8.22
    4    7   11      4.18     -1.63
    4    7   12     -0.99     -0.50
    4    7   13     -9.24     -4.73
    4    7   14      5.86      3.35
    4    7   15      9.25      2.97
    4    7   16      0.69      2.99
    4    7   17     -0.69     -4.01
    4    7   18     -8.06     -4.68
    4    7   19     -1.14      1.00
    4    7   20      3.80      1.20
    4    7   21      1.47     -1.04
    4    7   22     -1.29      1.12
    4    7   23     -3.47      3.24
    5    7    0    -12.48     -0.11
    5    7    1     -4.04     12.56
    5    7    2      9.43      6.35
    5    7    3     -9.02     18.11
    5    7    4     -6.82     -5.01
    5    7    5     13.62    -30.20
    5    7    6     12.34     -8.36
    5    7    7     -8.94     19.69
    5    7    8    -13.93    -11.05
    5    7    9     10.12     -2.02
    5    7   10      9.45     10.78
    5    7   11     -7.00      1.16
    5    7   12     -1.91     -1.08
    5    7   13     -1.97     -6.88
    5    7   14     -2.52      3.05
    5    7   15     -1.99      1.43
    5    7   16     -2.80     -6.25
    5    7   17     -2.65      0.00
    5    7   18      7.42      4.02
    5    7   19      2.17      1.14
    5    7   20     -2.88     -4.87
    5    7   21     -0.65     -1.54
    5    7   22      1.54      0.16
    6    7    0    -15.57     -0.36
    6    7    1    -22.50     22.18
    6    7    2     -5.15    -33.56
    6    7    3      7.35    -24.19
    6    7    4      3.99      8.83
    6    7    5      9.01     -3.22
    6    7    6     17.34      2.77
    6    7    7      8.56     -7.78
    6    7    8    -15.28      6.86
    6    7    9     -7.33     15.25
    6    7   10     -0.06     -3.07
    6    7   11      0.87     -2.02
    6    7   12      6.95     10.48
    6    7   13     -5.17     -0.12
    6    7   14    -10.10     -6.46
    6    7   15      0.26     -1.58
    6    7   16     -0.38     -2.03
    6    7   17     -1.94      2.60
    6    7   18      2.65      1.37
    6    7   19     -0.75     -2.47
    6    7   20      3.21     -0.67
    6    7   21      0.25      2.56
    6    7   22     -3.82     -4.26
    7    7    0     -4.83     -0.46
    7    7    1     18.54     16.03
    7    7    2     -4.56     21.34
    7    7    3    -15.47    -39.20
    7    7    4     12.17     -2.55
    7    7    5     11.32     16.89
    7    7    6     -2.92     10.51
    7    7    7      1.94     -6.30
    7    7    8     -0.94      1.97
    7    7    9     -6.95      5.19
    7    7   10     -7.99      2.28
    7    7   11     -1.25     -6.17
    7    7   12      6.90     -6.13
    7    7   13      1.47      0.96
    7    7   14     -3.09      4.44
    7    7   15     -0.74     -2.98
    7    7   16      2.52     -2.50
    7    7   17      3.64      0.95
    7    7   18     -1.70     -1.83
    7    7   19     -3.88     -0.04
    7    7   20     -1.77      1.78
    7    7   21     -0.06      1.51
    7    7   22     -1.21     -2.67
    8    7    0     18.62      0.49
    8    7    1     -3.67    -14.34
    8    7    2     -4.89     26.33
    8    7    3     11.99     13.74
    8    7    4      7.39     15.28
    8    7    5    -13.49    -15.10
    8    7    6    -12.33    -10.08
    8    7    7      4.56     13.43
    8    7    8      7.12     10.12
    8    7    9     -5.66     -3.60
    8    7   10     -4.56    -11.95
    8    7   11      7.65     -2.32
    8    7   12      2.51      2.69
    8    7   13     -2.68     -5.99
    8    7   14     -4.15     -4.36
    8    7   15      1.48      1.80
    8    7   16      6.29      5.55
    8    7   17     -0.32     -1.04
    8    7   18      1.58     -3.27
    8    7   19      1.29     -0.47
    8    7   20     -6.07     -1.09
    8    7   21     -4.04     -0.84
    8    7   22      1.16      3.42
    9    7    0     16.01      0.82
    9    7    1     15.36    -14.02
    9    7    2      7.68    -14.22
    9    7    3      1.32      8.93
    9    7    4    -19.66      7.90
    9    7    5     -5.58      2.37
    9    7    6     12.50     -4.19
    9    7    7     -2.99    -10.63
    9    7    8     -7.80      3.33
    9    7    9      7.22     13.93
    9    7   10     11.64     -0.82
    9    7   11     -1.69     -3.44
    9    7   12     -3.97     -5.47
    9    7   13      5.74      1.42
    9    7   14     -9.05      3.64
    9    7   15     -8.17     -0.63
    9    7   16      5.81     -3.28
    9    7   17      3.73      4.06
    9    7   18     -1.74      5.01
    9    7   19     -0.62     -5.17
    9    7   20      2.80     -2.46
    9    7   21     -1.43     -0.72
   10    7    0      2.75      0.53
   10    7    1     10.70      3.49
   10    7    2     15.21    -25.18
   10    7    3      7.51    -18.56
   10    7    4    -28.94     -8.14
   10    7    5    -13.47     23.71
   10    7    6     19.62      0.31
   10    7    7      9.25    -15.01
   10    7    8      0.31      3.22
   10    7    9     -0.52      8.57
   10    7   10     -0.46     -2.80
   10    7   11      1.29     -2.66
   10    7   12      5.51      2.11
   10    7   13     -5.10      4.13
   10    7   14     -7.87     -1.21
   10    7   15      2.36     -2.15
   10    7   16      1.41     -0.25
   10    7   17     -1.74      4.90
   10    7   18     -4.67      1.49
   10    7   19      1.24     -0.63
   10    7   20      7.33      1.37
   10    7   21     -0.30      0.53
   11    7    0      1.61     -0.35
   11    7    1     13.98      3.90
   11    7    2     -0.77      1.51
   11    7    3     -5.88    -11.16
   11    7    4    -13.60    -16.92
   11    7    5      2.62     11.28
   11    7    6     22.48      7.02
   11    7    7     -3.34     -2.25
   11    7    8     -5.00     -6.23
   11    7    9     10.54     -2.00
   11    7   10     -1.74     -3.83
   11    7   11     -6.07     -3.19
   11    7   12      3.36      8.08
   11    7   13     -0.53     -1.15
   11    7   14      3.09     -3.71
   11    7   15     -0.60      0.66
   11    7   16     -1.20      0.01
   11    7   17     -2.58      2.03
   11    7   18     -1.39      1.22
   11    7   19      3.26      3.73
   11    7   20      3.08     -1.20
   12    7    0      8.74      0.52
   12    7    1    -19.11     -2.59
   12    7    2    -15.51     -2.74
   12    7    3      7.71      5.01
   12    7    4     11.10      6.64
   12    7    5     -7.45     -8.61
   12    7    6      7.48     -6.99
   12    7    7      4.61      2.05
   12    7    8     -8.09      2.04
   12    7    9      5.52     -5.76
   12    7   10     -2.71     -1.40
   12    7   11     -1.56      4.52
   12    7   12      8.39      1.63
   12    7   13      2.84     -2.54
   12    7   14     -2.26      0.46
   12    7   15     -2.95      4.66
   12    7   16      1.04     -1.93
   12    7   17     -5.18     -0.16
   12    7   18      2.10      1.95
   12    7   19      3.27     -0.47
   12    7   20     -0.60     -1.31
   13    7    0      2.82      0.81
   13    7    1    -15.17     -0.71
   13    7    2      1.61     -7.38
   13    7    3     -0.87      2.12
   13    7    4      9.07      6.61
   13    7    5     -1.92     -1.87
   13    7    6     -6.51      3.35
   13    7    7      2.74     -5.59
   13    7    8     -6.36     -2.20
   13    7    9     -0.95      3.01
   13    7   10      1.53      5.41
   13    7   11      0.76     -0.28
   13    7   12      4.37     -6.57
   13    7   13     -0.12      7.02
   13    7   14     -5.81      0.99
   13    7   15      2.59     -2.05
   13    7   16     -1.17      1.38
   13    7   17     -5.82     -0.22
   13    7   18      4.48      0.16
   13    7   19      1.26      0.31
   14    7    0     -6.57      0.46
   14    7    1     -9.85     -1.75
   14    7    2      8.42      4.04
   14    7    3      5.62      9.75
   14    7    4     -0.58     -0.77
   14    7    5      1.03     -6.31
   14    7    6     -6.77      7.54
   14    7    7     -0.58      8.35
   14    7    8      6.11     -7.42
   14    7    9     -2.41     -2.98
   14    7   10     -4.86      1.56
   14    7   11     -2.14      3.33
   14    7   12     -3.05     -6.54
   14    7   13     -2.58     -2.25
   14    7   14     -1.75      3.63
   14    7   15      3.15     -7.33
   14    7   16     -0.44     -0.38
   14    7   17      0.67      1.26
   14    7   18      2.17      1.61
   15    7    0     -8.10     -0.88
   15    7    1      7.85      1.59
   15    7    2     -2.71     14.58
   15    7    3     -4.61      4.49
   15    7    4     -4.98    -11.71
   15    7    5     11.52     -3.47
   15    7    6      6.58      3.77
   15    7    7     -2.76      2.52
   15    7    8      2.62     -9.70
   15    7    9      0.90      3.27
   15    7   10     -5.32     -2.19
   15    7   11      0.34      5.14
   15    7   12     -4.17      0.74
   15    7   13     -7.49     -7.34
   15    7   14      4.02      2.86
   15    7   15      5.19     -7.32
   15    7   16     -1.48     -2.09
   15    7   17     -0.02      1.66
   15    7   18      1.34      1.39
   16    7    0     -4.44     -0.53
   16    7    1     -7.24      3.74
   16    7    2     -3.83    -10.85
   16    7    3      1.34     -4.28
   16    7    4      4.22      3.99
   16    7    5     -3.80     -2.48
   16    7    6     -4.03    -13.69
   16    7    7     11.98     -1.71
   16    7    8      0.72      0.44
   16    7    9     -5.55      3.29
   16    7   10     -3.16      1.25
   16    7   11      4.64      6.85
   16    7   12      6.00     -1.76
   16    7   13     -3.54     -3.20
   16    7   14     -0.22      3.63
   16    7   15      1.41      1.74
   16    7   16     -1.92     -0.74
   16    7   17     -1.63     -2.66
   17    7    0     -4.38     -0.09
   17    7    1      4.36      1.71
   17    7    2      1.92     -9.97
   17    7    3     -9.65     -6.78
   17    7    4     11.84     -4.82
   17    7    5      3.77      1.12
   17    7    6    -14.32      2.31
   17    7    7     -4.17     -1.51
   17    7    8      2.90     -4.54
   17    7    9      3.28      2.60
   17    7   10      0.60      6.58
   17    7   11      0.43     -3.38
   17    7   12      3.55     -4.69
   17    7   13      1.67      2.35
   17    7   14     -2.66      1.68
   17    7   15     -2.62      5.49
   17    7   16     -2.64      1.26
   18    7    0      2.07     -0.42
   18    7    1      8.91     -4.63
   18    7    2     -2.26      2.63
   18    7    3     -0.66      4.12
   18    7    4      4.94     -3.62
   18    7    5     -3.88     -4.43
   18    7    6     -0.08      4.08
   18    7    7     -0.03      5.78
   18    7    8     -2.06     -0.35
   18    7    9     -3.13     -2.95
   18    7   10      2.91     -2.16
   18    7   11      4.54     -5.90
   18    7   12     -4.74      6.68
   18    7   13      0.15     -2.41
   18    7   14     -2.30     -4.85
   18    7   15     -7.00      6.15
   19    7    0      6.48     -0.05
   19    7    1      4.95     -4.51
   19    7    2     -1.17      1.05
   19    7    3     -3.13     -4.44
   19    7    4     -4.99      6.20
   19    7    5      5.42      8.18
   19    7    6      9.52     -6.53
   19    7    7     -3.36      1.76
   19    7    8     -7.85      4.28
   19    7    9      2.19     -3.21
   19    7   10      3.79     -4.71
   19    7   11     -3.17     -0.45
   19    7   12     -4.29     10.12
   19    7   13      0.54     -2.26
   20    7    0     -2.01      0.71
   20    7    1    -16.69     -2.81
   20    7    2      6.33     -1.90
   20    7    3      8.10    -13.31
   20    7    4     -7.14      1.02
   20    7    5     -2.04     15.86
   20    7    6      7.10     -7.94
   20    7    7      8.84     -0.55
   20    7    8     -5.61      4.26
   20    7    9     -5.51     -2.97
   20    7   10     -0.30     -1.40
   20    7   11     -4.18      6.86
   20    7   12      5.29      2.35
   21    7    0      1.72      0.59
   21    7    1     -0.35     -1.42
   21    7    2     -3.20     -1.07
   21    7    3     -4.95     -4.06
   21    7    4      0.14     -8.84
   21    7    5      6.32      4.43
   21    7    6      5.28     -1.83
   21    7    7      2.80     -3.03
   21    7    8     -3.71      1.45
   21    7    9     -2.40      3.24
   21    7   10      3.07      0.66
   22    7    0      0.06      0.55
   22    7    1     -5.94     -4.00
   22    7    2     -0.83     -5.24
   22    7    3      2.89      8.98
   22    7    4      0.09     -5.10
   22    7    5     -1.83     -6.95
   22    7    6      1.85      0.44
   22    7    7      0.49     -0.91
   22    7    8      1.67      1.81
   23    7    0     -1.33     -0.37
   23    7    1     11.51     -5.05
   23    7    2      3.38     -5.13
   23    7    3     -5.86      5.56
   23    7    4      1.38      1.10
   23    7    5     -1.09     -0.89
    0    8    0     80.10      9.66
    0    8    1    -71.62      0.03
    0    8    2     42.59    -12.45
    0    8    3   -103.65     -1.83
    0    8    4      3.30      4.05
    0    8    5      0.95      3.40
    0    8    6    -48.63     -0.31
    0    8    7     64.42     -0.49
    0    8    8     27.64      2.16
    0    8    9    -40.10     -1.88
    0    8   10     -3.37     -0.98
    0    8   11     17.79      2.69
    0    8   12      2.33      1.12
    0    8   13    -13.26     -1.27
    0    8   14     -5.40     -0.39
    0    8   15      7.48      0.36
    0    8   16      4.29     -1.47
    0    8   17      3.64      0.13
    0    8   18      5.92      0.99
    0    8   19     -5.23      1.54
    0    8   20    -12.47      0.58
    0    8   21      0.40     -1.29
    0    8   22     -0.11     -0.15
    0    8   23     -2.12     -0.10
    1    8    0      9.78      1.75
    1    8    1    -22.95     37.12
    1    8    2     57.44    -30.95
    1    8    3    -28.68    -24.54
    1    8    4    -17.91     16.33
    1    8    5    -25.51    -20.57
    1    8    6     11.23     -1.57
    1    8    7     39.88     12.82
    1    8    8    -13.09     -1.34
    1    8    9    -14.40     11.60
    1    8   10      3.70     -1.65
    1    8   11      0.34    -14.51
    1    8   12     -0.25      1.84
    1    8   13      0.11      4.87
    1    8   14      0.87     -6.80
    1    8   15     -0.14     14.46
    1    8   16     -5.64     -0.92
    1    8   17      6.30    -15.86
    1    8   18      8.76      0.58
    1    8   19     -7.66      5.72
    1    8   20     -9.33      1.36
    1    8   21      2.86     -1.99
    1    8   22      3.20      2.12
    1    8   23      0.59      2.69
    2    8    0    -22.20      0.16
    2    8    1     55.01     13.05
    2    8    2     13.89      8.26
    2    8    3     28.39    -28.43
    2    8    4     15.31     -4.29
    2    8    5    -20.74     10.84
    2    8    6     14.88      5.52
    2    8    7     -9.63     -2.55
    2    8    8     -6.24    -17.15
    2    8    9     12.87      6.54
    2    8   10    -17.13     15.77
    2    8   11     -7.81     -2.50
    2    8   12     11.22     -6.17
    2    8   13      5.38      1.88
    2    8   14     -1.97      1.77
    2    8   15     -2.73      3.04
    2    8   16     -6.76     -3.87
    2    8   17      3.07     -4.82
    2    8   18      3.10      0.34
    2    8   19     -4.53      4.42
    2    8   20      1.11      2.87
    2    8   21      6.80     -2.75
    2    8   22      2.40     -1.22
    2    8   23     -0.31      1.70
    3    8    0     -6.89      0.38
    3    8    1     23.10    -20.33
    3    8    2      6.92     34.51
    3    8    3     20.25      5.23
    3    8    4     -8.29      1.44
    3    8    5     -5.32      9.92
    3    8    6      5.42     -5.11
    3    8    7     -7.87     -8.15
    3    8    8     -1.87     -7.43
    3    8    9      0.27      6.73
    3    8   10     -2.34      7.50
    3    8   11      3.13     -1.01
    3    8   12      0.26      1.36
    3    8   13     -2.14     -3.92
    3    8   14      0.79      0.22
    3    8   15     -0.34      0.95
    3    8   16     -0.54     -1.86
    3    8   17     -1.46      0.72
    3    8   18     -2.40     -1.35
    3    8   19      5.77      1.21
    3    8   20      4.23      0.57
    3    8   21      1.62     -0.95
    3    8   22     -1.23     -1.73
    3    8   23     -1.89     -0.49
    4    8    0     16.43     -1.26
    4    8    1    -33.61      2.89
    4    8    2      3.14      4.16
    4    8    3     21.32      7.55
    4    8    4    -41.29     25.56
    4    8    5     -3.54    -14.33
    4    8    6     11.04    -10.74
    4    8    7      5.57     -0.90
    4    8    8     -5.29      4.89
    4    8    9      0.01     11.66
    4    8   10      5.09     -2.71
    4    8   11     -2.35     -6.04
    4    8   12     -3.83      1.99
    4    8   13     -2.72    -10.77
    4    8   14     -1.40     -3.92
    4    8   15      1.65     12.21
    4    8   16      4.58     -0.62
    4    8   17     -0.82     -4.72
    4    8   18     -0.97     -1.71
    4    8   19      4.74     -3.96
    4    8   20      2.37     -3.23
    4    8   21     -4.48      1.31
    4    8   22     -1.87      2.11
    5    8    0     25.65     -0.97
    5    8    1     -4.78     24.09
    5    8    2    -37.19    -19.60
    5    8    3     -8.47    -20.99
    5    8    4     -3.53      6.80
    5    8    5     30.31     -0.39
    5    8    6      4.14      7.24
    5    8    7    -12.03     -5.21
    5    8    8     -0.10      4.07
    5    8    9      4.27      3.79
    5    8   10     -5.58      1.14
    5    8   11      1.54      6.01
    5    8   12     -0.64    -10.53
    5    8   13     -0.10    -13.25
    5    8   14     -4.31      5.29
    5    8   15      0.03      5.43
    5    8   16      4.82     -5.31
    5    8   17     -1.01      2.50
    5    8   18     -2.12      2.20
    5    8   19     -1.15     -8.33
    5    8   20      7.49     -2.25
    5    8   21     -2.09      0.13
    5    8   22     -4.13      2.15
    6    8    0    -32.00     -0.76
    6    8    1    -44.47      0.72
    6    8    2      5.67     -9.92
    6    8    3      8.16      4.09
    6    8    4      2.92    -12.83
    6    8    5      9.64     -9.86
    6    8    6     -0.61     11.30
    6    8    7     -3.82      6.25
    6    8    8      4.68      8.82
    6    8    9     -9.53     -8.79
    6    8   10     -6.83     -3.56
    6    8   11     14.35     10.27
    6    8   12      4.07     -5.86
    6    8   13     -0.12     -6.63
    6    8   14     -3.33      0.96
    6    8   15     -3.38     -1.19
    6    8   16     -4.02      4.96
    6    8   17     -0.68     -0.09
    6    8   18      4.32     -2.26
    6    8   19     -0.29      0.36
    6    8   20     -0.11      3.44
    6    8   21      0.67     -3.79
    6    8   22      1.38     -0.73
    7    8    0     11.75     -0.57
    7    8    1    -26.35      0.84
    7    8    2      3.01     -3.51
    7    8    3     -0.77      9.86
    7    8    4     14.80      1.60
    7    8    5    -14.03     -4.64
    7    8    6    -14.10     -3.05
    7    8    7     -0.48     -1.05
    7    8    8      3.62      8.32
    7    8    9      2.63      3.11
    7    8   10      6.79      0.55
    7    8   11     -3.36     -2.40
    7    8   12      4.86     -3.65
    7    8   13      3.63      3.15
    7    8   14     -5.86     -0.45
    7    8   15     -3.23     -0.81
    7    8   16      0.84      3.86
    7    8   17      1.04     -5.64
    7    8   18     -1.18      0.20
    7    8   19      0.07      2.39
    7    8   20      0.37     -1.55
    7    8   21      3.67     -1.67
    7    8   22     -1.84      2.15
    8    8    0      0.37     -3.87
    8    8    1      6.28     11.55
    8    8    2     17.05      2.01
    8    8    3    -16.88     -5.74
    8    8    4     -4.87      0.65
    8    8    5     -5.00     10.73
    8    8    6      0.77     -5.36
    8    8    7      4.37     -8.97
    8    8    8     -1.46      4.52
    8    8    9      1.01      9.31
    8    8   10      9.18     -0.84
    8    8   11     -6.30     -2.52
    8    8   12     -4.68      3.65
    8    8   13      1.33      3.07
    8    8   14      2.24     -0.38
    8    8   15     -4.38     -0.42
    8    8   16      3.85     -2.86
    8    8   17      4.80     -3.65
    8    8   18     -2.28      0.13
    8    8   19     -3.99      1.04
    8    8   20      0.29     -3.15
    8    8   21      3.09     -1.95
    9    8    0     -3.23      0.08
    9    8    1    -17.44     -5.16
    9    8    2     -6.21     -0.68
    9    8    3    -11.00      4.96
    9    8    4      6.85     -2.19
    9    8    5     17.75     -0.81
    9    8    6     -5.23      2.36
    9    8    7      3.67      5.88
    9    8    8      9.53     -8.41
    9    8    9     -5.67     -3.75
    9    8   10    -12.63      3.64
    9    8   11      0.26      2.87
    9    8   12      0.69      0.66
    9    8   13      1.76     -2.34
    9    8   14      3.42      3.31
    9    8   15     -5.02     -0.02
    9    8   16      3.41     -3.18
    9    8   17      1.48      3.37
    9    8   18     -0.38     -5.16
    9    8   19     -1.49      0.30
    9    8   20      1.21      3.11
    9    8   21      0.29     -0.79
   10    8    0     -5.39      2.32
   10    8    1    -26.52     -5.31
   10    8    2     -0.43     -4.41
   10    8    3     10.32     -1.69
   10    8    4     -8.48     11.55
   10    8    5      9.36     -3.58
   10    8    6      6.62     -4.23
   10    8    7      1.56      6.32
   10    8    8    -10.61     -5.93
   10    8    9     -1.27     -4.19
   10    8   10     -0.69      0.83
   10    8   11      3.37     -6.40
   10    8   12     -0.64      1.36
   10    8   13     -1.82      0.20
   10    8   14      3.18     -2.03
   10    8   15      0.05     -0.85
   10    8   16     -2.22     -2.10
   10    8   17     -0.03      4.30
   10    8   18     -0.64     -1.19
   10    8   19     -2.09      1.62
   10    8   20      5.91      1.35
   10    8   21      2.09      0.80
   11    8    0     25.69     -1.12
   11    8    1      5.53     12.55
   11    8    2    -14.78      2.35
   11    8    3     11.48    -15.34
   11    8    4     -1.32      6.86
   11    8    5     -3.54     -2.26
   11    8    6     -0.26     -6.27
   11    8    7      1.72      0.38
   11    8    8     -3.72      2.19
   11    8    9      4.66     -3.11
   11    8   10      0.81      1.49
   11    8   11     -0.14     -0.36
   11    8   12      8.27     -2.42
   11    8   13      2.55     -2.37
   11    8   14     -5.21     -0.37
   11    8   15     -2.87     -1.45
   11    8   16     -4.53     -3.21
   11    8   17      2.27      0.85
   11    8   18      3.83     -0.31
   11    8   19     -3.07      0.17
   11    8   20      1.82      1.87
   12    8    0      4.03     -0.87
   12    8    1      9.09      7.55
   12    8    2     -1.89      0.95
   12    8    3     -5.45      1.23
   12    8    4      3.15     -9.15
   12    8    5     12.78     -8.74
   12    8    6     -1.58      1.43
   12    8    7     -6.17     -1.95
   12    8    8      7.35      4.77
   12    8    9      3.72      4.27
   12    8   10      1.81     -2.00
   12    8   11     -0.66      2.68
   12    8   12      1.89      2.24
   12    8   13      3.14      0.88
   12    8   14      0.62      2.64
   12    8   15     -1.34     -2.05
   12    8   16     -4.98     -0.92
   12    8   17     -1.84      0.96
   12    8   18      5.56      0.36
   12    8   19      0.85     -3.61
   13    8    0     -6.60      1.32
   13    8    1    -18.36     -5.88
   13    8    2      5.25    -11.72
   13    8    3      3.78      7.40
   13    8    4      6.44     -3.34
   13    8    5      7.77      0.62
   13    8    6      2.21      0.50
   13    8    7     -4.61     -2.05
   13    8    8      0.24     -2.88
   13    8    9     -2.33      4.77
   13    8   10      4.76      4.91
   13    8   11     -1.34      3.37
   13    8   12     -4.73      0.62
   13    8   13      2.06     -0.68
   13    8   14      2.48      2.77
   13    8   15     -0.96      5.46
   13    8   16      0.81      3.44
   13    8   17      0.38     -0.13
   13    8   18      0.23     -1.36
   13    8   19      1.16     -1.19
   14    8    0      2.25     -3.07
   14    8    1      1.67      1.15
   14    8    2      3.89      2.43
   14    8    3     -2.62    -10.68
   14    8    4     -4.66      0.48
   14    8    5     -1.97     13.49
   14    8    6      6.76     -5.77
   14    8    7     -2.28     -6.32
   14    8    8     -3.55      0.93
   14    8    9     -3.66      4.24
   14    8   10      0.28      1.81
   14    8   11      1.41      1.03
   14    8   12     -4.79     -1.07
   14    8   13      0.54     -1.40
   14    8   14      0.68      2.74
   14    8   15     -1.92      2.76
   14    8   16      1.13     -3.28
   14    8   17      3.52      2.93
   14    8   18     -1.41      0.38
   15    8    0      8.72     -4.04
   15    8    1      7.40      5.18
   15    8    2     -6.52     17.86
   15    8    3     -6.10     -3.53
   15    8    4     -5.09     -8.13
   15    8    5     -6.63     -3.10
   15    8    6     -4.62      8.64
   15    8    7      2.21     -2.22
   15    8    8      8.79     -3.71
   15    8    9      0.23      2.61
   15    8   10     -7.89     -1.72
   15    8   11      1.40     -0.11
   15    8   12     -1.79      0.94
   15    8   13      1.10     -5.03
   15    8   14      4.52     -2.03
   15    8   15      0.86      2.24
   15    8   16     -4.37     -2.76
   15    8   17     -1.59     -1.06
   16    8    0    -16.86      5.79
   16    8    1     -8.17     -0.27
   16    8    2     10.51     -5.64
   16    8    3      0.27      5.28
   16    8    4    -11.21      1.01
   16    8    5     -5.08     -6.26
   16    8    6     -1.53      7.06
   16    8    7      7.68      2.35
   16    8    8      0.43      0.02
   16    8    9     -2.42     -3.52
   16    8   10     -3.50     -2.64
   16    8   11      2.86     -0.04
   16    8   12      5.31      2.76
   16    8   13     -1.70     -3.07
   16    8   14      0.26     -5.29
   16    8   15      1.82      0.23
   16    8   16     -0.83      2.29
   17    8    0      4.69     12.63
   17    8    1     -8.05     -0.74
   17    8    2     -9.86    -21.63
   17    8    3      1.66     -5.35
   17    8    4     14.34      7.53
   17    8    5      3.56     10.56
   17    8    6     -8.46     -8.93
   17    8    7     -0.25     -4.44
   17    8    8     -0.86      9.05
   17    8    9     -1.52     -4.58
   17    8   10     -0.19      3.22
   17    8   11      3.71      5.50
   17    8   12      4.43     -4.72
   17    8   13     -7.37     -5.37
   17    8   14     -6.29      0.63
   17    8   15      3.19      3.40
   18    8    0    -13.25      3.49
   18    8    1     -0.17      3.66
   18    8    2      5.94     -2.80
   18    8    3      0.89     -9.16
   18    8    4      0.42     -4.34
   18    8    5      5.64      8.71
   18    8    6     13.04     -5.26
   18    8    7     -6.35    -13.27
   18    8    8    -12.11      8.10
   18    8    9      1.54      6.14
   18    8   10     12.17      0.51
   18    8   11     -0.06      3.39
   18    8   12     -9.62     -2.15
   18    8   13     -3.81     -3.73
   18    8   14     -3.38      1.62
   19    8    0     -6.91     -4.66
   19    8    1      4.09     -0.31
   19    8    2      0.06      0.12
   19    8    3     -3.92      0.25
   19    8    4      5.36     -1.25
   19    8    5      1.33     -4.48
   19    8    6      2.50      3.56
   19    8    7      0.93     -5.88
   19    8    8     -1.82     -2.88
   19    8    9     -1.11      5.33
   19    8   10      4.51      2.39
   19    8   11     -1.97     -0.22
   19    8   12     -2.88     -1.73
   19    8   13     -0.07     -2.02
   20    8    0      5.17     -1.54
   20    8    1     -4.68     -2.57
   20    8    2     -2.78     -2.50
   20    8    3     -3.43      0.90
   20    8    4     -1.79      1.05
   20    8    5     -2.22     -2.47
   20    8    6      1.71      1.57
   20    8    7      6.59      2.55
   20    8    8     -4.21     -2.97
   20    8    9     -0.81     -1.89
   20    8   10      2.64     -1.65
   20    8   11     -3.58     -2.04
   20    8   12      2.58      3.09
   21    8    0      2.54      4.41
   21    8    1     -4.45      2.51
   21    8    2      0.07      4.35
   21    8    3      0.01      1.03
   21    8    4     -5.48     -5.05
   21    8    5      4.60     -2.59
   21    8    6      0.93      3.95
   21    8    7     -1.94      2.83
   21    8    8     -0.14     -7.64
   21    8    9      2.70     -2.66
   21    8   10     -0.52      4.00
   22    8    0    -13.49      4.16
   22    8    1     -4.77      9.82
   22    8    2      8.16     -1.64
   22    8    3     16.28     -6.42
   22    8    4     -2.74      6.62
   22    8    5     -3.61      4.89
   22    8    6      1.04     -8.40
   22    8    7     -0.02     -3.88
   22    8    8      0.64      6.79
   23    8    0     -3.82      0.41
   23    8    1     15.21      3.97
   23    8    2     -0.17      2.79
   23    8    3      1.06     -0.37
   23    8    4      4.30     -5.25
    0    9    0     34.79      1.05
    0    9    1     11.97      2.03
    0    9    2      1.69     -3.10
    0    9    3    -21.92      1.80
    0    9    4     -4.05      0.02
    0    9    5      5.00     -3.77
    0    9    6    -15.05      2.05
    0    9    7    -17.11      0.93
    0    9    8      0.13     -0.19
    0    9    9     12.55     -0.92
    0    9   10     -9.47     -0.20
    0    9   11      2.06      0.50
    0    9   12      8.57      0.84
    0    9   13      0.06     -0.57
    0    9   14      0.18     -1.23
    0    9   15     -1.15      0.20
    0    9   16     -0.81     -0.15
    0    9   17      3.54      0.08
    0    9   18     -8.90      0.75
    0    9   19     -3.71     -0.09
    0    9   20      8.77     -0.41
    0    9   21      0.33     -0.37
    0    9   22     -7.05     -0.58
    0    9   23      0.28      0.18
    1    9    0     18.52      0.22
    1    9    1     19.73    -21.88
    1    9    2     11.65     -4.15
    1    9    3     -3.22    -12.83
    1    9    4    -26.92      3.76
    1    9    5     -0.81      1.33
    1    9    6     12.82      7.01
    1    9    7     -9.28      3.31
    1    9    8    -14.83      0.72
    1    9    9     -1.35      7.18
    1    9   10     10.97    -12.30
    1    9   11     10.14      3.52
    1    9   12    -13.09      0.64
    1    9   13     -4.71     -0.34
    1    9   14     12.53      2.26
    1    9   15      1.26     -6.30
    1    9   16    -10.52     -1.78
    1    9   17     -0.18     -0.73
    1    9   18      4.07      0.38
    1    9   19      0.21      4.44
    1    9   20     -2.56     -0.34
    1    9   21     -1.24    -11.11
    1    9   22      0.23      2.81
    1    9   23     -1.06      5.99
    2    9    0     24.43     -0.40
    2    9    1     -4.41    -47.26
    2    9    2     -6.58    -21.56
    2    9    3     29.39     39.71
    2    9    4    -11.02     11.03
    2    9    5    -13.41    -35.09
    2    9    6      5.98     13.72
    2    9    7      5.79      5.49
    2    9    8      7.28    -25.08
    2    9    9    -15.50     16.16
    2    9   10     -6.12      4.29
    2    9   11      9.78     -5.34
    2    9   12      1.21     -4.93
    2    9   13     -2.43      3.26
    2    9   14     -1.15      4.58
    2    9   15      1.20     -5.94
    2    9   16     -1.67      1.27
    2    9   17     -4.51      1.13
    2    9   18      6.05      2.97
    2    9   19      3.11     -0.43
    2    9   20     -5.45      0.88
    2    9   21     -2.87      0.68
    2    9   22      3.26     -1.83
    3    9    0     -3.19     -0.79
    3    9    1      1.61    -26.41
    3    9    2      7.14    -23.88
    3    9    3    -15.85     23.19
    3    9    5     20.01     -0.04
    3    9    6      9.95     -0.24
    3    9    7     -1.73    -22.69
    3    9    8     -5.50      3.25
    3    9    9     -4.75     12.76
    3    9   10     -0.01     -9.47
    3    9   11    -12.04      4.47
    3    9   12     -1.66      6.02
    3    9   13     15.74     -4.71
    3    9   14      3.45     -5.42
    3    9   15     -9.89     -0.02
    3    9   16     -1.32      5.09
    3    9   17      1.33      4.96
    3    9   18      3.58      3.55
    3    9   19     -1.99     -2.33
    3    9   20     -0.24     -1.92
    3    9   21      0.81      4.19
    3    9   22      1.53      1.26
    4    9    0     11.35     -0.63
    4    9    1    -31.12     -2.99
    4    9    2    -15.54    -18.19
    4    9    3     -3.91      4.10
    4    9    4     20.77     -4.41
    4    9    5      8.11      3.78
    4    9    6     -7.37     -1.08
    4    9    7     16.37     -9.47
    4    9    8     -1.94     24.70
    4    9    9    -18.11     -2.47
    4    9   10     -3.77     -8.08
    4    9   11      3.45      5.27
    4    9   12     -2.43     -4.56
    4    9   13     -1.36      2.06
    4    9   14      4.92     -1.08
    4    9   15      1.17     -1.05
    4    9   16     -1.55     -0.21
    4    9   17     -0.90      6.47
    4    9   18      2.17     -2.26
    4    9   19     -2.36     -2.89
    4    9   20      1.59      1.79
    4    9   21      5.65      0.31
    4    9   22     -0.44      0.65
    5    9    0      8.64     -0.72
    5    9    1     13.66      5.32
    5    9    2     -2.50     -9.16
    5    9    3    -16.61     -6.67
    5    9    4     -9.79      8.41
    5    9    5     11.70     -6.64
    5    9    6      8.59      7.99
    5    9    7     -6.29      5.06
    5    9    8     -5.49     -5.59
    5    9    9      6.50     -7.36
    5    9   10      2.62      8.23
    5    9   11     -1.70      1.43
    5    9   12     -3.04     -7.16
    5    9   13     -2.94      1.60
    5    9   14      2.58      0.17
    5    9   15      7.59      5.29
    5    9   16     -3.13      0.12
    5    9   17     -6.53     -2.11
    5    9   18      6.30     -1.51
    5    9   19      7.40     -2.34
    5    9   20     -5.41     -1.50
    5    9   21     -1.35      0.97
    5    9   22      1.72      3.21
    6    9    0     15.45     -0.52
    6    9    1      6.16     -4.92
    6    9    2     -2.08     21.76
    6    9    3      5.90     -9.16
    6    9    4     -8.24     17.30
    6    9    5    -27.22     11.70
    6    9    6     -2.99     -9.78
    6    9    7     11.93     -9.50
    6    9    8     13.93    -13.85
    6    9    9     -0.11      1.70
    6    9   10     -0.82      1.17
    6    9   11      3.81     -4.06
    6    9   12      3.63      7.38
    6    9   13     -2.51      1.67
    6    9   14     -3.98     -0.27
    6    9   15      9.02      0.59
    6    9   16      3.37     -0.31
    6    9   17     -3.86     -2.15
    6    9   18     -1.49      2.18
    6    9   19      3.68     -1.85
    6    9   20     -1.79     -2.26
    6    9   21     -1.43      3.58
    6    9   22      0.61      2.82
    7    9    0    -22.28     -0.52
    7    9    1      6.90    -14.57
    7    9    2     14.08     35.68
    7    9    3     -7.78      9.40
    7    9    4      0.16    -11.62
    7    9    5     -8.72     14.89
    7    9    6     -3.65     -8.01
    7    9    7      5.81    -11.39
    7    9    8     11.61     -7.97
    7    9    9      1.26      6.74
    7    9   10      4.57      7.67
    7    9   11     -4.30     -5.99
    7    9   12     -6.01      4.09
    7    9   13      5.02      5.30
    7    9   14      4.36      0.41
    7    9   15      0.29     -6.58
    7    9   16     -0.69     -2.23
    7    9   17      2.98      0.64
    7    9   18     -2.08     -1.25
    7    9   19     -2.89      2.48
    7    9   20     -0.09      3.26
    7    9   21      2.93     -1.37
    8    9    0    -16.91     -0.44
    8    9    1     -6.04     -0.40
    8    9    2     -6.44    -15.34
    8    9    3     -0.67     24.83
    8    9    4     14.28     -2.76
    8    9    5     14.28    -14.75
    8    9    6     -1.46    -16.42
    8    9    7     -7.23      6.08
    8    9    8     -0.95     17.59
    8    9    9      0.50      7.22
    8    9   10     -2.23     -4.76
    8    9   11      1.10     -5.70
    8    9   12     -0.72     12.20
    8    9   13     -4.66      6.15
    8    9   14      4.36    -13.81
    8    9   15      3.77     -3.06
    8    9   16     -1.74      6.42
    8    9   17     -4.27     -0.67
    8    9   18     -3.20     -5.02
    8    9   19      4.02     -0.07
    8    9   20      4.66      2.81
    8    9   21      1.16      2.74
    9    9    0     -9.20     -0.72
    9    9    1      9.89     18.17
    9    9    2     -5.59    -27.56
    9    9    3     -2.09     -0.20
    9    9    4     -0.34      1.19
    9    9    5     20.85     -8.26
    9    9    6      3.11      8.21
    9    9    7    -20.28      1.21
    9    9    8    -13.24     -4.47
    9    9    9      6.19      2.33
    9    9   10     -0.10      4.08
    9    9   11     -0.57      0.23
    9    9   12      2.15     -3.19
    9    9   13      2.17      3.49
    9    9   14      4.46     -0.98
    9    9   15     -4.15      0.20
    9    9   16     -3.33      0.32
    9    9   17      1.26     -0.45
    9    9   18     -0.85      2.82
    9    9   19     -0.83     -2.70
    9    9   20      1.73     -1.85
    9    9   21      2.94      4.45
   10    9    0     -8.15     -0.65
   10    9    1    -12.97      4.76
   10    9    2      7.19     -2.89
   10    9    3     12.20     -2.51
   10    9    4     -0.60     10.27
   10    9    5      3.36      0.28
   10    9    6    -18.63      5.03
   10    9    7    -16.81     -1.03
   10    9    8      8.89     -1.36
   10    9    9      3.74     -9.91
   10    9   10     -9.36     -3.06
   10    9   11      6.00      4.36
   10    9   12      8.72     -2.42
   10    9   13     -4.31      3.21
   10    9   14     -4.07      2.20
   10    9   15      5.11     -2.35
   10    9   16     -1.40     -1.79
   10    9   17     -2.42      4.10
   10    9   18      2.82      0.84
   10    9   19     -1.85     -5.13
   10    9   20     -6.47      1.19
   11    9    0     -1.95     -0.59
   11    9    1     -2.18     -7.67
   11    9    2     10.65      5.42
   11    9    3     -5.55      7.64
   11    9    4     -2.08      7.53
   11    9    5      4.07     -0.82
   11    9    6     -7.13     -1.88
   11    9    7    -12.58      0.08
   11    9    8     -1.62      7.34
   11    9    9      6.11     -7.55
   11    9   10      8.27     -2.24
   11    9   11      1.67      1.31
   11    9   12     -7.89      0.76
   11    9   13     -1.95      1.28
   11    9   14      4.42     -0.71
   11    9   15      3.12     -3.57
   11    9   16     -7.08     -1.26
   11    9   17     -0.30      3.63
   11    9   18      5.73     -2.58
   11    9   19     -0.44     -4.56
   11    9   20     -7.26      0.88
   12    9    0      1.58      0.58
   12    9    1      1.53     -0.43
   12    9    2     -0.17     -8.39
   12    9    3      2.40      1.55
   12    9    4      0.87      7.47
   12    9    5     -6.82     -2.00
   12    9    6     -1.87     -2.53
   12    9    7      3.33      4.05
   12    9    8      2.68      3.14
   12    9    9     -2.69     -2.82
   12    9   10      1.84      0.58
   12    9   11     -2.21      2.53
   12    9   12     -2.86     -0.94
   12    9   13      6.14     -3.36
   12    9   14      4.03      1.77
   12    9   15     -5.84     -3.09
   12    9   16     -2.54      1.07
   12    9   17      7.87      0.39
   12    9   18      1.64     -1.43
   12    9   19     -4.34     -1.61
   13    9    0    -13.43      0.41
   13    9    1     -0.35      8.29
   13    9    2      3.97      2.63
   13    9    3      9.43    -18.63
   13    9    4     -8.46     -7.38
   13    9    5      1.34     15.40
   13    9    6      2.22     11.16
   13    9    7      0.34     -5.72
   13    9    8      4.83    -11.69
   13    9    9     -5.98      6.24
   13    9   10     -0.39      3.77
   13    9   11      1.26     -5.51
   13    9   12     -0.59     -1.35
   13    9   13     -1.18      3.72
   13    9   14      0.75      1.21
   13    9   15      2.39     -2.90
   13    9   16      3.55      1.50
   13    9   17      1.25      0.77
   13    9   18      0.78      0.89
   13    9   19     -2.89      0.62
   14    9    0     -0.71     -0.14
   14    9    1     -2.33      1.03
   14    9    2     -0.70      4.73
   14    9    3      0.13     -8.06
   14    9    4     -3.81      0.42
   14    9    5      4.99      8.15
   14    9    6      0.00     -3.81
   14    9    7     -1.15      0.90
   14    9    8      3.06     -0.51
   14    9    9      2.08      2.99
   14    9   10     -1.93      3.31
   14    9   11      0.94     -9.72
   14    9   12      1.46      0.26
   14    9   13     -3.87      5.69
   14    9   14     -3.93     -0.89
   14    9   15     -0.32      2.97
   14    9   16      3.56     -3.54
   14    9   17      0.38      1.08
   14    9   18      0.16      1.95
   15    9    0     17.55      0.13
   15    9    1      2.00     -2.73
   15    9    2     -7.46      3.05
   15    9    3     -6.37      1.74
   15    9    4      5.91     -2.33
   15    9    5     -9.16      0.37
   15    9    6      1.03      2.54
   15    9    7      9.16      2.59
   15    9    8     -0.32     -2.40
   15    9    9     -0.72      2.42
   15    9   10     -4.37      4.16
   15    9   11      6.80    -11.57
   15    9   12      4.58      5.04
   15    9   13     -6.24      4.74
   15    9   14     -2.87     -4.58
   15    9   15      0.04      0.94
   15    9   16     -1.57      0.19
   15    9   17      0.06      2.94
   16    9    0     12.37      1.08
   16    9    1     -5.00     -2.35
   16    9    2     -5.95      0.88
   16    9    3      6.05      6.89
   16    9    4      6.17     -1.70
   16    9    5    -12.52    -10.95
   16    9    6      1.88      7.68
   16    9    7      7.78      9.47
   16    9    8      0.23     -2.87
   16    9    9     -8.25     -9.42
   16    9   10     -1.03     -0.02
   16    9   11      5.10      1.31
   16    9   12      3.84      5.04
   16    9   13      1.49     -0.39
   16    9   14     -1.63     -1.14
   16    9   15      0.47      0.71
   16    9   16      2.31      1.96
   17    9    0     -2.80      0.84
   17    9    1     -5.26     -0.49
   17    9    2      5.60     11.33
   17    9    3      4.08      3.85
   17    9    4     -7.46     -8.20
   17    9    5      5.84     -6.09
   17    9    6      4.39      9.50
   17    9    7     -7.09     -1.06
   17    9    8     -0.50     -2.72
   17    9    9     -1.51     -4.56
   17    9   10      2.80      3.83
   17    9   11     -2.06      7.70
   17    9   12      1.78     -1.92
   17    9   13      3.76     -0.22
   17    9   14      0.44     -0.46
   17    9   15      3.50     -0.91
   18    9    0     -0.25     -0.66
   18    9    1     -2.10     -1.19
   18    9    2      4.99      4.00
   18    9    3      3.14      9.26
   18    9    4    -11.44      6.71
   18    9    5     -0.71     -6.68
   18    9    6      4.00     -4.78
   18    9    7      3.32     -5.88
   18    9    8     -0.43      4.62
   18    9    9     -4.02      6.26
   18    9   10     -0.24      3.29
   18    9   11      1.98      3.68
   18    9   12      3.20     -7.35
   18    9   13     -0.72     -1.31
   18    9   14     -1.38     -0.72
   19    9    0      1.65     -0.78
   19    9    1      0.73      3.22
   19    9    2     -2.49     -2.77
   19    9    3      1.13      6.77
   19    9    4     -4.36      7.53
   19    9    5      3.30     -6.43
   19    9    6      0.23     -1.87
   19    9    7     -6.62      2.45
   19    9    8      2.67      1.81
   19    9    9      4.77      0.40
   19    9   10     -0.68     -1.94
   19    9   11     -2.10     -0.11
   19    9   12     -1.87     -5.65
   19    9   13      0.26     -0.34
   20    9    0      0.49      0.04
   20    9    1      0.94      2.05
   20    9    2     -4.06      0.39
   20    9    3      3.74      8.23
   20    9    4     -1.06     -1.11
   20    9    5     -2.33     -8.54
   20    9    6     -1.55      0.68
   20    9    7     -3.00     11.72
   20    9    8      4.86      2.12
   20    9    9     -0.68    -13.39
   20    9   10     -1.39     -4.40
   20    9   11      0.40      5.81
   21    9    0      3.57     -0.34
   21    9    1      9.81      1.12
   21    9    2     -0.70      4.71
   21    9    3     -6.06      4.53
   21    9    4     -1.50     -1.39
   21    9    5      1.82     -2.09
   21    9    6     -1.35     -0.31
   21    9    7     -6.56     -0.16
   21    9    8      1.37      2.12
   21    9    9      5.25     -2.35
   22    9    0      3.60     -0.58
   22    9    1     -2.60      4.99
   22    9    2      0.72      3.54
   22    9    3      2.59     -2.68
   22    9    4     -1.05      1.78
   22    9    5     -0.94     -3.93
   22    9    6     -1.02      1.12
   22    9    7     -3.88      0.78
   23    9    0     -0.52     -0.27
   23    9    1      5.19      6.94
   23    9    2     -0.61      1.02
   23    9    3     -4.33    -10.10
    0   10    0    -49.24      3.28
    0   10    1     14.59     -4.37
    0   10    3     11.95      1.93
    0   10    4    -47.06     -0.09
    0   10    5     75.53      0.99
    0   10    6    -11.52     -1.03
    0   10    7    -29.44      0.02
    0   10    8     36.57     -0.06
    0   10    9    -27.37     -0.07
    0   10   10    -10.96      0.45
    0   10   11     19.14      0.16
    0   10   12      1.77     -1.08
    0   10   13     -7.94     -0.14
    0   10   14     -4.36      0.61
    0   10   15     -0.33      2.48
    0   10   16      3.83     -0.03
    0   10   17     13.70     -5.07
    0   10   18    -10.39      0.14
    0   10   19     -3.42      2.40
    0   10   20      9.10     -0.53
    0   10   21      4.33     -0.38
    0   10   22      0.02     -0.26
    1   10    0     -5.16     -2.87
    1   10    1     -3.92    -25.50
    1   10    2    -38.43     19.90
    1   10    3     16.86     25.97
    1   10    4     -5.84     10.24
    1   10    5     24.70     -9.72
    1   10    6     -4.72     -8.23
    1   10    7     -6.81      3.68
    1   10    8      1.28    -12.75
    1   10    9     -7.64     -1.66
    1   10   10     12.98     21.47
    1   10   11     -5.72     -7.91
    1   10   12     -8.79      2.61
    1   10   13      6.93      2.13
    1   10   14      1.98     -3.39
    1   10   15     -5.48      2.57
    1   10   16      0.00     -1.79
    1   10   17      7.53    -10.32
    1   10   18     -1.11      4.05
    1   10   19     -2.37      5.00
    1   10   20      1.74     -5.57
    1   10   21      2.38      2.81
    1   10   22      0.30      1.00
    2   10    0      4.75     -1.00
    2   10    1    -12.16     -0.03
    2   10    2    -29.04     -3.72
    2   10    3     -9.74      4.75
    2   10    4     36.38      3.79
    2   10    5    -15.81     -0.80
    2   10    6    -13.54     -3.85
    2   10    7      8.66      2.14
    2   10    8    -11.31     -7.24
    2   10    9     10.96    -10.71
    2   10   10     13.14     11.50
    2   10   11    -11.87      5.71
    2   10   12     -5.44     -1.42
    2   10   13      3.82     -4.46
    2   10   14      2.41      6.15
    2   10   15      0.30     -0.81
    2   10   16      3.41     -6.92
    2   10   17     -3.74      3.64
    2   10   18      2.26      5.64
    2   10   19     -0.27     -4.47
    2   10   20     -2.37     -1.66
    2   10   21     -3.63      1.95
    2   10   22      0.12      0.53
    3   10    0    -10.76      0.99
    3   10    1     -6.97      8.60
    3   10    2      3.91    -22.30
    3   10    3    -21.52     -6.92
    3   10    4     19.65      0.98
    3   10    5      0.39      4.83
    3   10    6      0.04     -6.52
    3   10    7     -7.09      5.88
    3   10    8     -4.03      7.89
    3   10    9      4.46      0.07
    3   10   10     -0.36     -4.91
    3   10   11     11.95     -2.62
    3   10   12      2.27     -2.73
    3   10   13     -8.16      6.58
    3   10   14     -1.70      3.24
    3   10   15      3.23     -6.86
    3   10   16      5.53     -0.06
    3   10   17     -2.66     10.15
    3   10   18     -2.63      1.86
    3   10   19     -0.75     -4.63
    3   10   20      1.31      2.16
    3   10   21     -6.26     -1.31
    3   10   22      0.12     -0.45
    4   10    0    -23.45      0.01
    4   10    1     16.60     -9.99
    4   10    2     17.70     -2.50
    4   10    3     18.87      1.48
    4   10    4    -12.29      7.46
    4   10    5     -9.61     11.19
    4   10    6     25.56     -9.12
    4   10    7     -6.86      4.21
    4   10    8     -7.16      3.11
    4   10    9     -6.51      4.54
    4   10   10      1.64     -1.97
    4   10   11     15.36     -8.37
    4   10   12      0.56      0.17
    4   10   13     -1.29     15.12
    4   10   14      0.54     -1.20
    4   10   15     -3.03     -6.02
    4   10   16     -1.64      2.07
    4   10   17     -3.18     -2.77
    4   10   18     -5.26      1.24
    4   10   19      2.27     11.03
    4   10   20      2.61     -0.32
    4   10   21     -3.22     -5.81
    4   10   22      0.20     -1.58
    5   10    0     26.56      0.10
    5   10    1     50.29     -5.37
    5   10    2    -24.21      9.58
    5   10    3     19.26     -4.87
    5   10    4     12.59      5.91
    5   10    5     -3.14     18.76
    5   10    6     -2.99     -1.32
    5   10    7    -17.21     -9.64
    5   10    8      7.10    -10.65
    5   10    9     10.19    -10.73
    5   10   10     -1.53      2.73
    5   10   11     -4.93     11.42
    5   10   12      1.67      1.52
    5   10   13      4.74      1.73
    5   10   14      4.97      8.33
    5   10   15     -3.77     -1.22
    5   10   16     -5.92    -10.34
    5   10   17     -5.55     -5.20
    5   10   18     -3.91      5.32
    5   10   19      2.60     10.07
    5   10   20     -1.69     -0.93
    5   10   21      1.33     -2.09
    5   10   22      0.77     -2.50
    6   10    0    -11.46      1.76
    6   10    1    -13.32      6.85
    6   10    2     16.75      1.51
    6   10    3     24.02     -8.05
    6   10    4    -12.75     -8.41
    6   10    5     -9.61     -5.11
    6   10    6     -3.27      5.49
    6   10    7      0.70      0.63
    6   10    8      6.13     -7.11
    6   10    9      3.74    -11.99
    6   10   10     -2.55     -3.97
    6   10   11     -0.11     11.30
    6   10   12      1.06      5.65
    6   10   13     -8.85     -5.76
    6   10   14      4.48      2.34
    6   10   15      9.59      1.81
    6   10   16     -2.75     -6.68
    6   10   17     -6.44      1.63
    6   10   18      2.90      1.97
    6   10   19      1.90     -0.72
    6   10   20     -7.39      2.67
    6   10   21     -1.43      2.01
    6   10   22      4.15     -3.24
    7   10    0      9.41      1.79
    7   10    1    -18.01      3.09
    7   10    2     -8.73     -1.82
    7   10    3     -8.37     -8.99
    7   10    4      7.59     -8.86
    7   10    5      0.28    -13.33
    7   10    6     -6.95     -0.97
    7   10    7     10.51     10.08
    7   10    8      2.76      2.99
    7   10    9      2.48      2.62
    7   10   10     -4.63     -0.42
    7   10   11     -6.59     -3.06
    7   10   12      3.12     -6.81
    7   10   13     -1.03     -2.65
    7   10   14     -5.72      4.32
    7   10   15     10.39     -2.53
    7   10   16      5.44     -2.80
    7   10   17     -6.08     11.99
    7   10   18      2.74      1.38
    7   10   19      5.15    -10.26
    7   10   20     -1.42     -0.66
    7   10   21     -4.52      5.87
    8   10    0     -3.03      0.13
    8   10    1     21.79     -3.61
    8   10    2      2.90     -2.93
    8   10    3    -20.30     -2.62
    8   10    4     -2.38     -0.90
    8   10    5      1.37      3.77
    8   10    6      0.84     -2.17
    8   10    7     12.21     -3.94
    8   10    8     -6.52      6.00
    8   10    9     -4.17      8.98
    8   10   10      2.11     -4.75
    8   10   11     -4.34     -7.69
    8   10   12     -1.55     -2.74
    8   10   13      3.22      1.44
    8   10   14     -0.11      2.42
    8   10   15      0.35     -6.39
    8   10   16      0.82      3.17
    8   10   17      0.47     12.03
    8   10   18     -0.55     -0.69
    8   10   19      3.87     -6.89
    8   10   20      1.16      0.00
    8   10   21     -3.46      4.29
    9   10    0     23.32     -0.20
    9   10    1     13.96     -7.69
    9   10    2    -10.24    -16.04
    9   10    3      1.65     17.27
    9   10    4      2.84      6.98
    9   10    5      6.09     -7.99
    9   10    6    -12.43      5.96
    9   10    7    -10.56      4.39
    9   10    8      7.95     -4.32
    9   10    9      3.00     -3.88
    9   10   10     -5.57     -0.19
    9   10   11     -4.26     -2.34
    9   10   12      7.55      2.03
    9   10   13      3.24      2.46
    9   10   14     -2.24     -6.24
    9   10   15     -7.23      0.31
    9   10   16      1.67     10.81
    9   10   17      6.45      0.67
    9   10   18     -5.60     -0.95
    9   10   19     -0.71     -1.54
    9   10   20      0.33      2.72
    9   10   21     -0.39      1.96
   10   10    0    -13.04     -0.74
   10   10    1     -2.09     -2.11
   10   10    2     16.25     -4.99
   10   10    3      9.66      3.72
   10   10    4    -19.28      3.01
   10   10    5     -4.02     -2.73
   10   10    6     15.98      6.10
   10   10    7     -3.07      6.47
   10   10    8     -4.94     -0.25
   10   10    9     -7.58     -2.40
   10   10   10      6.05     -0.78
   10   10   11      4.34     -1.06
   10   10   12     -2.58      4.41
   10   10   13     -2.72      4.51
   10   10   14     -2.61    -12.20
   10   10   15      2.25      7.61
   10   10   16      3.42     11.65
   10   10   17     -0.50    -10.71
   10   10   18     -4.30      2.03
   10   10   19      0.70      0.82
   10   10   20      0.24     -3.68
   11   10    0      4.49     -1.25
   11   10    1      7.57     -3.46
   11   10    2    -11.42     17.75
   11   10    3     -4.55      0.03
   11   10    4     10.77     -7.60
   11   10    5    -15.55      4.75
   11   10    6      4.23      5.41
   11   10    7     13.03      2.23
   11   10    8      4.10     -1.94
   11   10    9     -7.36     -2.26
   11   10   10     -5.80      4.76
   11   10   11     -3.23      7.60
   11   10   12     -0.69     -2.37
   11   10   13      4.43     -2.76
   11   10   14     -4.91     -0.29
   11   10   15      1.01      4.24
   11   10   16      3.23      4.98
   11   10   17      0.23     -6.82
   11   10   18     -1.20     -4.68
   11   10   19      1.33     -0.43
   11   10   20      0.73     -2.20
   12   10    0     -7.55      0.18
   12   10    1     10.47     -5.36
   12   10    2      3.52     10.36
   12   10    3     -9.96     12.96
   12   10    4     -1.49     -3.16
   12   10    5     -5.08      0.71
   12   10    6      3.72     -1.54
   12   10    7      2.64     -8.85
   12   10    8     -4.69     -5.46
   12   10    9      0.09      5.35
   12   10   10     -1.89      2.90
   12   10   11      1.40      1.19
   12   10   12     -3.95      1.53
   12   10   13     -3.66     -5.91
   12   10   14      4.73      2.96
   12   10   15      2.17     -3.20
   12   10   16     -1.34     -1.97
   12   10   17      1.02      2.28
   12   10   18     -2.17     -1.56
   12   10   19      0.09     -0.01
   13   10    0     -1.14      0.70
   13   10    1    -13.09     -0.85
   13   10    2     -2.57      3.77
   13   10    3     11.87      8.96
   13   10    4      0.36      2.50
   13   10    5     -3.21     -4.15
   13   10    6     -5.44     -4.82
   13   10    7     -7.48     -8.25
   13   10    8     -0.90     -5.70
   13   10    9      3.83      2.59
   13   10   10      0.70      0.00
   13   10   11      3.61     -2.58
   13   10   12     -0.12      2.88
   13   10   13     -0.01     -2.74
   13   10   14      1.79     -5.46
   13   10   15     -3.91     -1.20
   13   10   16      2.15      0.78
   13   10   17      0.64      1.23
   13   10   18     -3.97      3.41
   14   10    0     -4.43      2.61
   14   10    1      3.51      1.64
   14   10    2      1.03     12.05
   14   10    3      5.94     -9.72
   14   10    4     -0.88      0.01
   14   10    5     -5.33      9.28
   14   10    6      3.09     -4.75
   14   10    7     -1.38     -6.42
   14   10    8     -2.83      5.61
   14   10    9      0.05     -1.62
   14   10   10      3.64     -7.42
   14   10   11      3.12     -1.75
   14   10   12      0.27      2.35
   14   10   13      4.82      5.67
   14   10   14     -3.28     -4.25
   14   10   15     -4.60     -0.26
   14   10   16      4.24     -0.43
   14   10   17     -0.87     -0.84
   14   10   18     -2.90      3.02
   15   10    0      4.42      1.68
   15   10    1     10.16     -6.97
   15   10    2      0.71      1.34
   15   10    3      1.81     -0.21
   15   10    4      5.34     -1.76
   15   10    5     -3.87      4.92
   15   10    6      1.01      1.64
   15   10    7      1.82      3.48
   15   10    8     -1.23      2.40
   15   10    9     -0.56     -0.48
   15   10   10     -0.69     -0.01
   15   10   11      1.32     -1.90
   15   10   12      1.97     -0.76
   15   10   13      0.14      2.09
   15   10   14     -1.63      1.90
   15   10   15      0.88      1.95
   15   10   16      1.44     -1.89
   15   10   17      1.37     -1.98
   16   10    0    -11.09     -4.95
   16   10    1      2.71     -2.54
   16   10    2     16.47    -13.01
   16   10    3      4.30      3.97
   16   10    4     -9.56      3.94
   16   10    5      2.19     -0.29
   16   10    6      5.46     -3.09
   16   10    7      3.64      1.88
   16   10    8     -6.62      4.67
   16   10    9     -6.24      5.34
   16   10   10      5.87     -0.24
   16   10   11      3.15     -2.85
   16   10   12     -1.05     -0.05
   16   10   13     -5.67     -1.56
   16   10   14      1.63      1.51
   16   10   15      3.43     -1.79
   16   10   16      0.78     -0.79
   17   10    0      3.11    -11.82
   17   10    1     -1.66      3.25
   17   10    2     -2.13      4.80
   17   10    3     -1.87      3.41
   17   10    4     -0.32     -0.10
   17   10    5      5.75     -2.66
   17   10    6     -8.51     -2.48
   17   10    7      2.91     -2.28
   17   10    8      5.60      4.82
   17   10    9     -2.87      1.66
   17   10   10      4.84     -3.25
   17   10   11     -1.27      3.27
   17   10   12     -3.25     -3.79
   17   10   13     -1.47     -1.81
   17   10   14      2.76      4.36
   17   10   15      0.89      1.22
   18   10    0    -16.18     -4.86
   18   10    1     -9.59      2.08
   18   10    2     15.23     14.62
   18   10    3     -7.21      0.66
   18   10    4    -20.08     -4.79
   18   10    5      8.21      2.62
   18   10    6     13.06      6.76
   18   10    7     -8.21     -3.78
   18   10    8     -8.99     -4.90
   18   10    9      7.49     -0.58
   18   10   10      9.37     -2.38
   18   10   11     -2.97      1.96
   18   10   12     -7.03      0.20
   18   10   13      3.29      3.35
   18   10   14      3.69      1.50
   19   10    0     -4.74      4.34
   19   10    1     -2.81      0.83
   19   10    2      2.65     -2.67
   19   10    3     -3.00      0.40
   19   10    4     -0.83      2.10
   19   10    5      4.76      1.52
   19   10    6     -0.59      3.98
   19   10    7    -11.29      0.65
   19   10    8      2.09     -7.83
   19   10    9      4.36     -1.98
   19   10   10     -6.66      4.89
   19   10   11      2.30      0.35
   19   10   12      2.17     -1.91
   20   10    0     13.15      1.91
   20   10    1     13.50     -1.00
   20   10    2     -7.26     -3.62
   20   10    3      1.17      3.32
   20   10    4      6.88      2.80
   20   10    5     -2.39     -1.15
   20   10    6     -6.34     -6.28
   20   10    7     -3.50     -0.54
   20   10    8      2.52      6.80
   20   10    9      0.68      2.91
   20   10   10     -3.72     -1.66
   20   10   11      0.83     -3.55
   21   10    0     16.82     -4.99
   21   10    1      1.19     -7.05
   21   10    2     -4.26      8.95
   21   10    3      0.49      5.76
   21   10    4      0.13     -2.16
   21   10    5     -1.10     -2.26
   21   10    6     -3.03     -2.72
   21   10    7     -0.71      4.41
   21   10    8      1.30      5.28
   21   10    9      2.48      0.08
   22   10    0      1.97     -3.96
   22   10    1    -30.32     -1.53
   22   10    2      1.94      1.83
   22   10    3      9.05    -10.44
   22   10    4     -4.39      5.82
   22   10    5     -2.58     11.64
   22   10    6      2.47     -5.01
   23   10    0     -3.05     -2.07
   23   10    1    -10.69     -0.25
    0   11    0    -24.23      1.22
    0   11    1      5.21      1.19
    0   11    2     -6.37      3.87
    0   11    3     32.57     -0.68
    0   11    4      3.80     -2.44
    0   11    5      2.72     -1.47
    0   11    6      1.15     -0.57
    0   11    7     -8.89      1.95
    0   11    8      1.70     -0.60
    0   11    9      8.37     -2.19
    0   11   10     -6.40     -0.60
    0   11   11     -0.65      2.84
    0   11   12      2.84      2.65
    0   11   13      5.55     -0.68
    0   11   14     -5.55     -1.32
    0   11   15      0.71      0.38
    0   11   16     -1.34      0.27
    0   11   17     -0.04     -0.65
    0   11   18      4.12      0.25
    0   11   19     -2.74      0.39
    0   11   20      1.10     -0.71
    0   11   21      0.26      0.19
    0   11   22      1.18      0.62
    1   11    0    -20.06      0.38
    1   11    1     10.18     44.12
    1   11    2     -0.04     10.02
    1   11    3      2.13    -35.71
    1   11    4     -6.02     -3.80
    1   11    5      1.47     12.33
    1   11    6     16.61     14.38
    1   11    7      0.76    -16.77
    1   11    8     -6.87     -1.36
    1   11    9     -0.41     19.36
    1   11   10      3.08     -1.58
    1   11   11      9.74    -12.43
    1   11   12     -4.91      5.74
    1   11   13     -8.62      3.66
    1   11   14      7.66     -1.06
    1   11   15      1.44     -5.01
    1   11   16     -4.12      3.30
    1   11   17     -1.74      2.75
    1   11   18      2.30      2.59
    1   11   19     -0.51     -0.27
    1   11   20     -0.74     -1.85
    1   11   21      3.04     -1.34
    1   11   22      2.57     -0.35
    2   11    0     -7.71     -0.07
    2   11    1     25.24     51.61
    2   11    2     -3.04    -30.46
    2   11    3    -31.61     -5.58
    2   11    4      4.16     15.41
    2   11    5      3.59    -33.75
    2   11    6      5.59      4.86
    2   11    7      9.01     18.39
    2   11    8      9.61     -9.69
    2   11    9     -9.55      3.32
    2   11   10     -7.91     10.78
    2   11   11     12.57    -12.38
    2   11   12      6.82     -7.45
    2   11   13    -15.54      1.99
    2   11   14     -1.48      3.54
    2   11   15     -0.58     -6.90
    2   11   16     12.42      0.92
    2   11   17      1.05      5.64
    2   11   18    -11.75     -2.69
    2   11   19      2.72     -2.31
    2   11   20      3.43      1.75
    2   11   21      1.11      2.24
    2   11   22     -1.32      0.92
    3   11    0    -15.87     -0.09
    3   11    1     25.28     36.25
    3   11    2      9.89    -25.18
    3   11    3    -18.15     -9.98
    3   11    4      0.10     -3.03
    3   11    5      8.83     -3.00
    3   11    6      2.10     -3.05
    3   11    7     -1.87      0.72
    3   11    8     -5.08      0.75
    3   11    9      0.32      2.02
    3   11   10     20.47     -3.79
    3   11   11     -5.43     -1.78
    3   11   12    -16.48      2.57
    3   11   13      6.87     -6.68
    3   11   14      3.70      0.21
    3   11   15     -9.35      2.02
    3   11   16      5.72     -2.58
    3   11   17     13.22      1.22
    3   11   18     -6.82     -1.53
    3   11   19     -0.61     -1.22
    3   11   20      2.56     -1.33
    3   11   21     -4.31      0.61
    3   11   22     -3.11      4.61
    4   11    0     -4.68     -0.04
    4   11    1    -11.21     -2.71
    4   11    2      5.03     20.17
    4   11    3     16.97     -0.17
    4   11    4      2.00    -18.38
    4   11    5     -7.54     18.41
    4   11    6    -12.53      0.14
    4   11    7     -0.37    -10.18
    4   11    8      1.77      0.20
    4   11    9      3.48      4.68
    4   11   10     15.88     -4.33
    4   11   11     -2.02      1.31
    4   11   12     -9.93      3.23
    4   11   13      7.48     -3.72
    4   11   14      1.51      6.31
    4   11   15     -9.94      2.45
    4   11   16     -7.78     -1.53
    4   11   17     13.89     -1.19
    4   11   18     -0.09     -1.21
    4   11   19     -5.83     -0.87
    4   11   20      2.26      1.95
    4   11   21     -2.05     -0.43
    4   11   22     -1.27     -5.82
    5   11    0    -12.22      0.66
    5   11    1      8.21     -6.90
    5   11    2     15.50     20.01
    5   11    3    -14.83     -8.26
    5   11    4    -17.33      9.33
    5   11    5      9.25     18.89
    5   11    6      4.58     -7.60
    5   11    7     -6.69      6.20
    5   11    8     -9.45     -8.62
    5   11    9      9.23    -10.42
    5   11   10      7.18     11.15
    5   11   11     -4.33      6.76
    5   11   12      1.17     -4.40
    5   11   13     -0.50     -2.97
    5   11   14     -0.81      3.12
    5   11   15     -3.94     -2.94
    5   11   16     -5.17      4.87
    5   11   17     -3.51      0.94
    5   11   18     -2.14     -2.03
    5   11   19      1.07      0.11
    5   11   20      1.41      1.67
    5   11   21     -1.97     -0.03
    5   11   22     -0.31     -4.90
    6   11    0     11.17      1.58
    6   11    1      2.27      7.46
    6   11    2     -5.68     -5.96
    6   11    3    -15.92    -16.96
    6   11    4      0.14     15.33
    6   11    5     15.02     14.87
    6   11    6     -6.38    -14.27
    6   11    7      0.80      7.33
    6   11    8     -1.96      8.37
    6   11    9     -9.94     -8.91
    6   11   10     -8.31      2.86
    6   11   11      7.09      0.92
    6   11   12      3.56     -2.10
    6   11   13    -10.09      0.89
    6   11   14     -6.66     -4.65
    6   11   15      4.20     -0.78
    6   11   16      9.15     -1.18
    6   11   17     -5.49      0.61
    6   11   18     -2.60      2.24
    6   11   19      0.54     -1.03
    6   11   20      0.00     -0.50
    6   11   21     -0.14      3.14
    7   11    0      2.48      0.59
    7   11    1    -11.40     -3.15
    7   11    2      9.49     -3.79
    7   11    3      2.33     -0.60
    7   11    4     -9.77    -11.90
    7   11    5      9.57      1.70
    7   11    6     -2.61     10.48
    7   11    7     -7.59     -4.96
    7   11    8      0.94      7.09
    7   11    9     -2.77      3.99
    7   11   10     -3.19     -2.87
    7   11   11      4.46     -1.60
    7   11   12     -9.19     -1.32
    7   11   13     -1.14      1.74
    7   11   14      0.76     -3.01
    7   11   15     -0.76      6.33
    7   11   16      0.43     -1.66
    7   11   17      7.02     -2.62
    7   11   18      8.38     -0.33
    7   11   19     -3.70     -0.09
    7   11   20     -3.53     -0.45
    7   11   21      0.20     -0.63
    8   11    0     -8.33     -0.68
    8   11    1     -2.75    -11.00
    8   11    2     20.88     -7.30
    8   11    3      6.70      1.08
    8   11    4    -15.97     12.13
    8   11    5    -10.01     -1.99
    8   11    6      5.10     -1.20
    8   11    7      2.48     -9.19
    8   11    8      6.75      5.07
    8   11    9      1.64      7.14
    8   11   10     -2.84     -9.94
    8   11   11      4.87     -2.96
    8   11   12      1.78      5.24
    8   11   13     -5.72      3.57
    8   11   14     -4.35      1.41
    8   11   15      5.95     -3.17
    8   11   16      0.97      5.23
    8   11   17     -1.29      4.47
    8   11   18     -1.47     -3.51
    8   11   19      0.92     -2.17
    8   11   20      2.70     -2.59
    8   11   21     -3.39     -0.55
    9   11    0    -13.05      0.68
    9   11    1     17.85     -1.14
    9   11    2     11.21      3.58
    9   11    3     -7.81    -12.20
    9   11    4     -2.42      4.06
    9   11    5     -7.74      2.83
    9   11    6     12.71      4.02
    9   11    7     14.45      1.06
    9   11    8     -1.57    -18.39
    9   11    9     -5.62     -3.74
    9   11   10      5.32      7.71
    9   11   11     -0.51      0.10
    9   11   12     -1.21     -1.85
    9   11   13     -0.55     -0.49
    9   11   14      5.18      4.49
    9   11   15      1.42     -7.02
    9   11   16     -0.61      1.59
    9   11   17     -2.98      2.33
    9   11   18     -6.23     -0.30
    9   11   19     -2.33      3.60
    9   11   20      2.88      0.31
   10   11    0     -4.93      2.51
   10   11    1     -9.91     -0.57
   10   11    2    -10.22      8.31
   10   11    3      2.28      4.21
   10   11    4     22.90     -9.34
   10   11    5      6.67    -12.76
   10   11    6     -6.07     -2.43
   10   11    7     -0.09      8.90
   10   11    8     11.49     -4.83
   10   11    9     -3.79      0.82
   10   11   10     -8.30      2.19
   10   11   11     -0.81     -0.83
   10   11   12      1.07      1.77
   10   11   13      0.90      0.08
   10   11   14      6.02     -7.20
   10   11   15      3.17     -0.64
   10   11   16     -1.38      2.15
   10   11   17     -5.14     -3.19
   10   11   18      0.27     -1.41
   10   11   19      1.78      2.89
   10   11   20      2.48      5.67
   11   11    0      0.18      0.57
   11   11    1    -11.86      2.55
   11   11    2     -5.94     -1.29
   11   11    3      1.60      2.12
   11   11    4      8.41      1.92
   11   11    5      8.66     -7.67
   11   11    6     -2.42     -7.05
   11   11    7     -9.07      1.65
   11   11    8      0.93      5.24
   11   11    9      5.82      8.10
   11   11   10     -2.23     -0.88
   11   11   11     -3.10      2.10
   11   11   12     -1.72     -3.63
   11   11   13      1.75     -0.67
   11   11   14      1.45     -2.05
   11   11   15      0.48      4.14
   11   11   16     -2.88      2.87
   11   11   17     -2.79     -2.03
   11   11   18      5.72     -3.12
   11   11   19      5.35     -0.09
   12   11    0      5.88     -0.99
   12   11    1      7.95      5.07
   12   11    2      1.91     -7.06
   12   11    3     -8.04     -7.23
   12   11    4     -5.00      6.63
   12   11    5     -1.19      4.37
   12   11    6     -2.94     -3.55
   12   11    7      3.61      1.14
   12   11    8      2.95      4.83
   12   11    9      4.22      3.18
   12   11   10    -12.40     -4.15
   12   11   11     -3.31     -2.19
   12   11   12     12.23     -5.63
   12   11   13      2.63      0.76
   12   11   14     -9.53      8.67
   12   11   15    -12.21     -0.86
   12   11   16      4.49      0.29
   12   11   17      8.59      4.19
   12   11   18     -1.51     -2.72
   12   11   19     -1.15     -0.60
   13   11    0     10.65     -0.34
   13   11    1      3.77     -1.77
   13   11    2     -5.02      6.10
   13   11    3     -3.03     -0.94
   13   11    4      2.41    -15.28
   13   11    5     -4.76      5.37
   13   11    6      1.79      8.13
   13   11    7      9.47     -6.10
   13   11    8     -0.15      5.65
   13   11    9     -7.99      5.55
   13   11   10     -8.38     -8.96
   13   11   11     10.31     -7.63
   13   11   12      5.13      1.33
   13   11   13     -8.90      2.19
   13   11   14     -0.03      1.66
   13   11   15     -2.36     -3.30
   13   11   16      1.93      0.14
   13   11   17      1.60      2.48
   13   11   18     -4.15     -0.78
   14   11    0     -0.10      0.19
   14   11    1     -1.80     -7.72
   14   11    2     -6.75     -1.38
   14   11    3     -1.02      9.22
   14   11    4     12.22     -0.74
   14   11    5      4.51     -7.44
   14   11    6      1.89     -5.11
   14   11    7     -3.73     -4.82
   14   11    8     -5.27     12.87
   14   11    9     -0.16      1.19
   14   11   10      8.60     -6.80
   14   11   11      0.34      4.10
   14   11   12     -7.24      4.96
   14   11   13      1.48      1.37
   14   11   14      5.88     -8.71
   14   11   15      1.08     -2.26
   14   11   16     -3.25      2.93
   14   11   17      0.13     -3.85
   15   11    0    -18.42     -0.28
   15   11    1    -12.30      3.27
   15   11    2     10.35     -3.31
   15   11    3      3.65     -8.85
   15   11    4     -1.23      3.18
   15   11    5      1.51      7.55
   15   11    6     -2.66      0.04
   15   11    7     -0.68     -7.54
   15   11    8     -5.04     -7.65
   15   11    9      4.46      1.28
   15   11   10     12.53      9.68
   15   11   11     -5.76      5.16
   15   11   12     -4.66      0.11
   15   11   13     -0.27      3.35
   15   11   14      0.02     -6.85
   15   11   15      8.15     -4.36
   15   11   16     -4.34      6.05
   15   11   17     -5.04     -0.27
   16   11    0    -11.42     -0.83
   16   11    1      1.10      7.77
   16   11    2     14.24      9.74
   16   11    3     -6.27     -7.17
   16   11    4    -17.97     -7.07
   16   11    5      4.34      9.15
   16   11    6      2.80     -0.50
   16   11    7      3.87     -1.21
   16   11    8     -6.67     -7.17
   16   11    9      0.51      0.58
   16   11   10      3.65      1.45
   16   11   11     -2.49     -3.56
   16   11   12     -1.00     -1.18
   16   11   13     -2.13      0.62
   16   11   14     -1.95      2.94
   16   11   15      0.23      0.42
   16   11   16     -0.23      1.66
   17   11    0      2.89     -0.27
   17   11    1      9.03      4.42
   17   11    2      1.26     13.48
   17   11    3     -2.22     -3.40
   17   11    4     -9.42    -11.58
   17   11    5      1.78      8.62
   17   11    6      5.94      0.27
   17   11    7      2.16     -3.09
   17   11    8     -3.75      2.14
   17   11    9     -5.27     -0.70
   17   11   10     -7.36     -8.93
   17   11   11      3.02     -2.12
   17   11   12      1.37     -0.13
   17   11   13     -0.43     -1.49
   17   11   14      1.35      3.59
   17   11   15     -3.61      1.12
   18   11    0     -0.22      0.05
   18   11    1      1.21     -4.28
   18   11    2     -4.64     -8.49
   18   11    3      4.67     -4.06
   18   11    4      9.29      2.00
   18   11    5     -3.37      5.95
   18   11    6      1.21     -1.34
   18   11    7     -1.47      0.26
   18   11    8     -1.37      1.63
   18   11    9     -1.74     -1.50
   18   11   10     -4.64     -0.12
   18   11   11      3.32      2.46
   18   11   12      1.67     -1.87
   18   11   13     -0.20     -0.35
   19   11    0     -4.49     -0.14
   19   11    1    -17.06     -9.10
   19   11    2     -2.81    -10.08
   19   11    3      5.28     -2.36
   19   11    4     12.43     -4.56
   19   11    5      0.71     -1.00
   19   11    6      1.14      6.09
   19   11    7    -10.55      8.09
   19   11    8     -1.79     -7.39
   19   11    9     15.04     -0.11
   19   11   10      3.07      7.72
   19   11   11     -6.61     -0.30
   19   11   12     -3.87     -0.44
   20   11    0     -3.46     -0.24
   20   11    1     -3.60     -5.67
   20   11    2      1.36     -1.91
   20   11    3      2.48      2.63
   20   11    4      1.51     -4.06
   20   11    5     -5.20     -8.94
   20   11    6      7.16      2.01
   20   11    7      6.87     10.62
   20   11    8     -3.58     -4.01
   20   11    9     -0.99     -5.77
   20   11   10      2.58      1.13
   21   11    0     -2.86     -0.12
   21   11    1      8.88      3.38
   21   11    2      2.62     -0.30
   21   11    3     -0.98     -7.18
   21   11    4     -0.58      0.12
   21   11    5      0.94      6.28
   21   11    6      1.38      0.82
   21   11    7      2.62     -6.24
   21   11    8     -1.90     -2.76
   22   11    0     -3.19      0.38
   22   11    1     -3.82      0.72
   22   11    2      2.21      0.99
   22   11    3      1.87     -1.03
   22   11    4      0.39     -2.52
   22   11    5      2.30      2.73
   22   11    6     -2.66      1.66
    0   12    0     38.28     -0.62
    0   12    1     -7.79      0.79
    0   12    2     60.82     -0.35
    0   12    3     -8.33     -0.75
    0   12    4    -41.92     -1.20
    0   12    5    -33.44     -0.79
    0   12    6     29.32      0.13
    0   12    7     -1.95     -1.51
    0   12    8      3.54      0.85
    0   12    9      9.65      0.74
    0   12   10    -18.74     -0.04
    0   12   11     11.21      0.08
    0   12   12      3.40     -0.11
    0   12   13     -8.83     -0.80
    0   12   14    -12.82      0.81
    0   12   15      9.31      0.93
    0   12   16      9.57     -0.80
    0   12   17     -4.99      0.31
    0   12   18     -3.65      0.33
    0   12   19      0.81      0.28
    0   12   20      0.15     -0.33
    0   12   21     -3.63     -0.82
    0   12   22      5.37      0.77
    1   12    0     42.76     -1.69
    1   12    1    -13.46      1.83
    1   12    2     20.10     11.67
    1   12    3     -1.15    -15.99
    1   12    4     -7.16      2.69
    1   12    5    -31.54     17.95
    1   12    6      9.34     -9.34
    1   12    7      9.08    -26.62
    1   12    8      0.91      6.24
    1   12    9     -0.74     18.71
    1   12   10     -1.11      6.36
    1   12   11      2.12     -8.25
    1   12   12     -5.33    -10.11
    1   12   13      1.04     15.39
    1   12   14     -1.98      5.25
    1   12   15     -1.26    -10.62
    1   12   16      1.78      2.92
    1   12   17     -0.34      4.61
    1   12   18     -0.49     -6.37
    1   12   19     -1.81     -2.79
    1   12   20     -0.39      4.06
    1   12   21      2.51     -1.05
    1   12   22      1.28     -5.03
    2   12    0     -9.03     -0.82
    2   12    1      0.92      1.43
    2   12    2      6.93      8.26
    2   12    3     -6.10    -16.50
    2   12    4      5.70     -1.08
    2   12    5      1.95     14.78
    2   12    6    -11.84      2.84
    2   12    7      8.31     -7.17
    2   12    8      8.09     -1.99
    2   12    9    -12.12     -4.13
    2   12   10      1.14      1.04
    2   12   11      0.16      4.06
    2   12   12      1.78     -1.25
    2   12   13      1.11      0.67
    2   12   14     -2.08     -3.04
    2   12   15     -6.33      1.72
    2   12   16      0.95     -5.35
    2   12   17      2.42      0.20
    2   12   18     -0.95      4.49
    2   12   19     -0.32     -2.76
    2   12   20     -2.17     -1.49
    2   12   21      3.13      0.24
    2   12   22     -0.55     -2.71
    3   12    0     -6.64     -0.22
    3   12    1      4.77     -0.28
    3   12    2    -10.26      7.66
    3   12    3     -3.35     -0.17
    3   12    4      2.87     -5.41
    3   12    5     27.31      0.00
    3   12    6     -3.23      1.31
    3   12    7     -6.44      4.19
    3   12    8     -3.85     -2.41
    3   12    9      1.68    -14.96
    3   12   10     -9.15      2.37
    3   12   11     -0.66      2.51
    3   12   12     12.08      2.48
    3   12   13     -3.73     -1.15
    3   12   14     -5.63     -9.68
    3   12   15      0.58      6.35
    3   12   16     -0.08      0.31
    3   12   17      4.43     -3.78
    3   12   18      3.93      3.43
    3   12   19     -1.52     -1.24
    3   12   20     -7.14     -6.34
    3   12   21      0.64      1.72
    3   12   22      2.89      6.02
    4   12    0    -11.79      1.28
    4   12    1     -7.15     -6.45
    4   12    2     -4.01     19.49
    4   12    3     13.87     19.25
    4   12    4      8.48    -14.03
    4   12    5    -16.57    -14.00
    4   12    6      8.65     -7.60
    4   12    7     21.01     -1.56
    4   12    8    -20.27     14.24
    4   12    9     -0.50      0.51
    4   12   10     -3.20     -2.73
    4   12   11      1.65     -5.32
    4   12   12      0.90     -1.71
    4   12   13     -7.62      4.90
    4   12   14      6.42      1.38
    4   12   15     11.97     -1.69
    4   12   16     -2.62      6.66
    4   12   17     -2.69     -2.00
    4   12   18      2.90     -5.84
    4   12   19      1.11      1.25
    4   12   20      0.68     -3.46
    4   12   21      0.64     -2.96
    4   12   22     -0.98      6.89
    5   12    0     -6.98      0.92
    5   12    1     -5.16     -7.96
    5   12    2    -12.10     11.22
    5   12    3     -2.69     20.61
    5   12    4     33.70    -10.55
    5   12    5    -25.58    -13.07
    5   12    6    -13.13      3.32
    5   12    7     14.38      2.27
    5   12    8      2.60     13.31
    5   12    9      5.34     10.86
    5   12   10     -3.74    -10.86
    5   12   11     -5.44     -2.73
    5   12   12     -2.34     -3.01
    5   12   13      0.20     -4.09
    5   12   14      8.52     10.18
    5   12   15      4.44     -1.99
    5   12   16     -2.36     -1.57
    5   12   17     -1.80      0.51
    5   12   18      5.83     -4.72
    5   12   19     -0.19     -0.99
    5   12   20      1.68      2.42
    5   12   21      3.57     -3.28
    6   12    0    -19.96     -0.43
    6   12    1    -29.99     -4.26
    6   12    2     16.24     -5.30
    6   12    3      2.68     16.24
    6   12    4     -6.81      0.00
    6   12    5     -6.64     -3.43
    6   12    6     -2.92     14.58
    6   12    7     -2.53      4.27
    6   12    8      8.94     -5.46
    6   12    9     -2.48     10.34
    6   12   10      0.11     -3.54
    6   12   11      5.08     -7.50
    6   12   12     -0.78      0.97
    6   12   13     -1.13      0.86
    6   12   14      0.34     -2.55
    6   12   15     -2.73      0.16
    6   12   16      0.30     -1.66
    6   12   17      0.65     -5.61
    6   12   18      4.07     -2.39
    6   12   19     -0.13      2.32
    6   12   20     -1.54      4.90
    6   12   21      1.43     -1.64
    7   12    0     18.14     -0.76
    7   12    1    -24.46     -1.20
    7   12    2     -4.81     -1.09
    7   12    3      9.76     13.74
    7   12    4     -7.38      2.85
    7   12    5      9.82     -2.80
    7   12    6    -10.18      3.11
    7   12    7    -10.80     -1.88
    7   12    8     12.24     -4.65
    7   12    9     -0.83      0.46
    7   12   10     -3.42      6.66
    7   12   11      0.09     -2.29
    7   12   12      2.71      0.32
    7   12   13      6.16      2.32
    7   12   14     -2.78     -6.40
    7   12   15     -5.44      5.54
    7   12   16     -2.60      2.22
    7   12   17      0.32     -8.35
    7   12   18     -1.89      0.03
    7   12   19      0.60      3.28
    7   12   20      0.97     -1.24
    7   12   21      0.90     -1.28
    8   12    0    -14.58     -0.13
    8   12    1      4.57      7.36
    8   12    2     10.98     12.03
    8   12    3     10.33      0.61
    8   12    4     -8.20     -7.58
    8   12    5     -2.78    -11.09
    8   12    6      0.68      2.27
    8   12    7      2.29     -1.21
    8   12    8      1.92      3.61
    8   12    9     -5.35     -0.12
    8   12   10      4.48      0.90
    8   12   11     -0.31     -0.08
    8   12   12     -5.57      6.18
    8   12   13      1.99     -2.50
    8   12   14      2.25     -7.25
    8   12   15      1.72      5.12
    8   12   16     -5.93      5.72
    8   12   17     -3.15     -3.71
    8   12   18     -1.34     -0.76
    8   12   19      0.94      2.32
    8   12   20      1.92     -3.31
    9   12    0      8.05      0.20
    9   12    1      4.89      8.98
    9   12    2    -11.49      3.57
    9   12    3      1.50      0.72
    9   12    4     11.90     -3.70
    9   12    5     -4.58    -23.99
    9   12    6     -0.60      1.99
    9   12    7      0.16     17.56
    9   12    8      3.59      0.01
    9   12    9      5.90     -5.38
    9   12   10     -0.74      3.19
    9   12   11     -4.57      2.65
    9   12   12     -0.06      1.04
    9   12   13      0.56     -7.42
    9   12   14     -6.16     -4.97
    9   12   15     -2.31      0.07
    9   12   16      5.49      1.79
    9   12   17      2.41     -3.08
    9   12   18     -2.24     -2.85
    9   12   19     -2.77      4.27
    9   12   20      2.54      1.41
   10   12    0     -2.10      0.43
   10   12    1     -3.11      1.10
   10   12    2     11.75     -3.71
   10   12    3    -10.64     -1.37
   10   12    4     -6.84      3.31
   10   12    5      2.46      0.69
   10   12    6      4.57    -12.82
   10   12    7      6.50      5.25
   10   12    8     -6.09      4.26
   10   12    9      1.26     -4.53
   10   12   10      5.00      0.28
   10   12   11      5.64      7.14
   10   12   12     -4.15     -2.37
   10   12   13     -7.37     -8.19
   10   12   14     -1.26      4.77
   10   12   15      2.71     -1.08
   10   12   16      8.30     -9.10
   10   12   17     -3.78     -2.13
   10   12   18     -3.93      1.60
   10   12   19      1.39      5.56
   10   12   20      2.42      0.78
   11   12    0     13.42      0.13
   11   12    1    -16.75     -7.52
   11   12    2    -11.93      1.61
   11   12    3      5.18     -1.60
   11   12    4     20.02     -1.30
   11   12    5      2.02     11.43
   11   12    6    -23.75     -7.57
   11   12    7      5.32     -3.66
   11   12    8      9.49     -2.08
   11   12    9     -0.23     -4.52
   11   12   10     -0.23     -2.13
   11   12   11     -2.37      5.74
   11   12   12     -0.18      1.82
   11   12   13      6.12     -1.57
   11   12   14      0.25      7.58
   11   12   15     -2.41      0.81
   11   12   16      2.05     -5.37
   11   12   17     -2.69      4.92
   11   12   18      0.10     -0.82
   11   12   19      0.62     -0.30
   12   12    0    -10.52      0.53
   12   12    1     -7.19      0.38
   12   12    2     -0.93     -7.32
   12   12    3      9.86    -10.68
   12   12    4     -0.70      5.37
   12   12    5      1.12      5.75
   12   12    6      5.27      2.86
   12   12    7      2.33     -3.59
   12   12    8     -5.06     -5.41
   12   12    9     -6.57      4.87
   12   12   10      7.28     -0.70
   12   12   11      1.93     -9.51
   12   12   12     -1.30      1.33
   12   12   13      1.36      7.37
   12   12   14     -2.02      2.27
   12   12   15      0.84      4.36
   12   12   16     -2.02     -0.42
   12   12   17     -0.50      0.23
   12   12   18      3.66     -0.58
   13   12    0      0.24     -1.50
   13   12    1     -0.40      2.69
   13   12    2     -2.53    -16.55
   13   12    3      0.82     -3.89
   13   12    4     -4.06      7.99
   13   12    5     -3.46     -3.46
   13   12    6      6.94      4.57
   13   12    7      6.53      3.45
   13   12    8     -1.77      2.97
   13   12    9     -0.02      3.07
   13   12   10     -1.45      1.90
   13   12   11      0.19     -8.83
   13   12   12      2.57     -5.38
   13   12   13     -2.56      4.15
   13   12   14     -1.86     -1.77
   13   12   15     -1.12      2.67
   13   12   16     -0.54      2.13
   13   12   17      2.70     -4.43
   13   12   18      1.38     -2.60
   14   12    0     -5.61     -2.19
   14   12    1     11.51     -0.89
   14   12    2     10.46     -7.29
   14   12    3    -10.71      3.75
   14   12    4     -5.74     -1.09
   14   12    5      1.06      1.13
   14   12    6     -1.40      1.68
   14   12    7      5.14      1.32
   14   12    8     -4.54      7.74
   14   12    9      5.94     -3.90
   14   12   10      2.04     -1.21
   14   12   11     -4.66      3.48
   14   12   12     -0.67     -2.97
   14   12   13     -0.99     -1.45
   14   12   14      3.18      2.36
   14   12   15     -0.73     -1.85
   14   12   16      0.61     -0.56
   14   12   17      0.17      0.38
   15   12    0      4.40      0.80
   15   12    1     -3.04      2.41
   15   12    2     -3.55      4.72
   15   12    3      1.16      0.44
   15   12    4      5.40     -5.24
   15   12    5      5.82      3.23
   15   12    6     -6.26      1.06
   15   12    7     -5.36     -2.97
   15   12    8     -0.59     -3.07
   15   12    9      1.32     -2.38
   15   12   10     -2.03      1.77
   15   12   11     -4.69      6.73
   15   12   12      3.01      2.67
   15   12   13      2.60     -1.65
   15   12   14     -1.61      1.98
   15   12   15     -1.23     -0.19
   15   12   16      1.32      0.16
   16   12    0     -5.17      7.42
   16   12    1     -9.70      7.08
   16   12    2      0.62     -0.64
   16   12    3      1.38     -9.36
   16   12    4     -2.03      0.90
   16   12    5      4.57      4.05
   16   12    6      7.15     -2.56
   16   12    7     -7.97     -4.28
   16   12    8     -0.31     -1.55
   16   12    9     -4.48      1.08
   16   12   10     -5.33      0.73
   16   12   11      4.19      5.36
   16   12   12      0.74      1.71
   16   12   13     -2.73     -3.46
   16   12   14     -3.30     -1.43
   16   12   15      1.49     -0.70
   17   12    0     -2.45      5.61
   17   12    1      5.99     -3.19
   17   12    2     -4.32     -4.97
   17   12    3     -5.86      6.01
   17   12    4     10.41      1.45
   17   12    5     -4.50    -18.09
   17   12    6     -6.47     -0.51
   17   12    7     -0.94     13.45
   17   12    8     10.35      3.18
   17   12    9      2.17     -6.26
   17   12   10     -5.26     -0.52
   17   12   11      1.55      1.90
   17   12   12     -2.77     -5.54
   17   12   13     -0.26     -2.86
   17   12   14      0.98      2.28
   18   12    0     -3.02      2.49
   18   12    1     11.25     -2.16
   18   12    2      3.97     -1.64
   18   12    3     -3.14      5.05
   18   12    4     -3.96      0.79
   18   12    5     -3.43    -21.11
   18   12    6      6.73      1.31
   18   12    7      1.18     17.39
   18   12    8     -7.34     -0.62
   18   12    9      7.38     -7.64
   18   12   10     10.06     -1.43
   18   12   11     -5.92     -3.81
   18   12   12     -3.90      0.08
   18   12   13      4.02      3.84
   19   12    0      8.22     -2.29
   19   12    1     -4.58      6.50
   19   12    2     -3.69      0.46
   19   12    3      3.80    -10.68
   19   12    4      1.97      4.23
   19   12    5      0.06      1.59
   19   12    6     -1.82     -2.95
   19   12    7      6.26      2.97
   19   12    8      0.38     -2.12
   19   12    9     -2.33     -1.80
   19   12   10     -1.17      0.48
   19   12   11     -3.40     -0.51
   19   12   12      3.37      3.51
   20   12    0    -14.55     -2.50
   20   12    1    -11.27      0.67
   20   12    2      8.48     -4.00
   20   12    3      7.09     -3.84
   20   12    4      0.12      3.52
   20   12    5     -2.45      9.03
   20   12    6     -0.76     -2.34
   20   12    7      7.61     -5.72
   20   12    8      0.14      2.15
   20   12    9     -7.12      4.85
   20   12   10     -2.88     -0.17
   21   12    0    -28.10      4.48
   21   12    1      6.78     -3.02
   21   12    2     15.52     -4.91
   21   12    3      1.66      6.37
   21   12    4     -6.54     -5.31
   21   12    5     -1.37     -3.03
   21   12    6      5.50      4.78
   21   12    7      1.44      2.13
   21   12    8     -3.19      1.27
   22   12    0     -9.64     10.09
   22   12    1     11.71      7.10
   22   12    2      5.24     -5.19
   22   12    3     -1.94    -10.51
   22   12    4     -6.07     -3.91
   22   12    5      0.82      7.98
    0   13    0      8.88      0.95
    0   13    1      8.16     -1.03
    0   13    2      0.74     -0.59
    0   13    3    -18.48      1.56
    0   13    4      8.56     -1.98
    0   13    5     -9.19     -0.13
    0   13    6     10.31      5.31
    0   13    7      0.01      0.12
    0   13    8    -16.63     -2.40
    0   13    9      7.77     -1.61
    0   13   10      9.47      0.02
    0   13   11     -5.72      0.70
    0   13   12     -3.34     -0.18
    0   13   13     -3.07     -0.49
    0   13   14      5.33     -0.86
    0   13   15     -1.18      0.75
    0   13   16      4.39      0.33
    0   13   17     -2.20     -0.41
    0   13   18     -4.80      0.39
    0   13   19      7.58      0.10
    0   13   20      3.01     -0.35
    0   13   21     -6.66     -0.11
    0   13   22     -4.83      0.14
    1   13    0      9.32      0.54
    1   13    1     -3.29    -16.27
    1   13    2     -4.47     22.61
    1   13    3      0.60      7.95
    1   13    4     13.51    -12.31
    1   13    5     -7.65      2.31
    1   13    6      1.39    -18.38
    1   13    7     -3.67     -2.21
    1   13    8    -18.06     -2.10
    1   13    9      5.78      8.82
    1   13   10     12.20      5.25
    1   13   11     -8.17    -15.73
    1   13   12     -3.61      2.51
    1   13   13      1.48      7.84
    1   13   14     11.06     -3.11
    1   13   15      2.13     -0.10
    1   13   16     -9.02      2.94
    1   13   17      1.65      0.50
    1   13   18      3.69      1.52
    1   13   19     -1.72      3.57
    1   13   20     -4.25     -2.02
    1   13   21     -0.91     -0.33
    1   13   22      0.62     -1.04
    2   13    0     -5.73      0.28
    2   13    1     -1.49    -18.81
    2   13    2      0.86     22.56
    2   13    3     -4.02      2.33
    2   13    4     13.61     12.78
    2   13    5      8.07    -21.18
    2   13    6    -18.25    -26.06
    2   13    7     -6.38     32.35
    2   13    8     -2.00      0.94
    2   13    9      2.89    -10.73
    2   13   10     -3.97      2.25
    2   13   11    -10.31     -1.38
    2   13   12      7.68     -1.41
    2   13   13     10.72      3.74
    2   13   14     -2.27      2.04
    2   13   15      4.95     -2.19
    2   13   16     -7.66     -0.81
    2   13   17     -2.48      1.12
    2   13   18      5.89     -1.39
    2   13   19     -3.99      1.21
    2   13   20     -5.64      4.78
    2   13   21      3.09      0.80
    2   13   22      4.08     -5.73
    3   13    0     15.42      0.11
    3   13    1    -21.62     -4.11
    3   13    2     -8.98      7.56
    3   13    3     -3.39    -29.62
    3   13    4      4.98     21.07
    3   13    5      1.13      4.43
    3   13    6    -12.34      0.08
    3   13    7      6.15      5.83
    3   13    8     -2.89      6.76
    3   13    9      0.84     -0.51
    3   13   10      4.56    -12.85
    3   13   11     -5.50      3.74
    3   13   12    -12.88      1.78
    3   13   13      8.41      0.54
    3   13   14     -1.95     -0.32
    3   13   15      4.87     -4.31
    3   13   16     -0.40     -2.55
    3   13   17    -13.24     -0.05
    3   13   18      5.83      0.79
    3   13   19      5.47     -1.85
    3   13   20      0.25      1.86
    3   13   21      1.86      1.26
    4   13    0     25.47     -0.08
    4   13    1    -11.03    -12.76
    4   13    2     -8.69    -15.42
    4   13    3      3.51      4.27
    4   13    4     -6.76      4.62
    4   13    5      0.50     -4.21
    4   13    6      3.99     23.32
    4   13    7     -0.45    -10.74
    4   13    8      0.45      0.79
    4   13    9     -0.26      3.20
    4   13   10      1.73     -5.83
    4   13   11      0.65     -0.91
    4   13   12     -7.17      1.08
    4   13   13     -0.76      1.99
    4   13   14     -3.59     -5.60
    4   13   15      4.00     -4.02
    4   13   16      6.42     -0.34
    4   13   17     -6.00      1.35
    4   13   18      2.60     -0.39
    4   13   19     -1.23     -0.57
    4   13   20      1.51      2.63
    4   13   21      5.32     -0.51
    5   13    0     -6.60     -0.75
    5   13    1     12.16    -12.51
    5   13    2     10.27    -17.93
    5   13    3      9.48     22.18
    5   13    4     -7.03     -6.27
    5   13    5      4.97    -10.73
    5   13    6      7.75     11.19
    5   13    7    -11.47      0.32
    5   13    8      6.90     -5.92
    5   13    9     -1.65    -11.47
    5   13   10      3.25      9.84
    5   13   11     -1.48      2.83
    5   13   12      0.67     -0.64
    5   13   13      1.65      3.37
    5   13   14      1.83     -7.88
    5   13   15      1.85     -4.22
    5   13   16      4.03      2.78
    5   13   17      1.15      5.11
    5   13   18     -2.96     -2.59
    5   13   19     -1.48      2.71
    5   13   20      0.63      1.02
    5   13   21      0.67     -4.03
    6   13    0     -7.29     -1.13
    6   13    1      7.38      3.27
    6   13    2      0.20      5.39
    6   13    3      2.30      0.67
    6   13    4     10.98    -12.00
    6   13    5      4.93      6.36
    6   13    6     -3.26    -12.92
    6   13    7     -5.91     -6.13
    6   13    8     12.07     10.66
    6   13    9     -1.73      0.26
    6   13   10     -1.69     -3.16
    6   13   11      5.51     -2.74
    6   13   12      2.45      1.39
    6   13   13     -1.96      7.71
    6   13   14      4.28     -1.27
    6   13   15     -1.48     -3.15
    6   13   16     -2.90      4.15
    6   13   17      1.68      1.85
    6   13   18     -1.88     -2.48
    6   13   19      3.25      0.00
    6   13   20     -0.04     -1.95
    6   13   21     -3.80      1.45
    7   13    0     14.39     -0.59
    7   13    1     -5.48      0.28
    7   13    2    -15.86     13.59
    7   13    3      2.22      6.29
    7   13    4      6.70    -19.99
    7   13    5     -3.35     -0.73
    7   13    6      7.55     -4.37
    7   13    7     -0.29     -4.16
    7   13    8    -12.75     11.87
    7   13    9     11.30      3.36
    7   13   10      2.60    -11.08
    7   13   11     -0.41      2.17
    7   13   12     -0.07      1.36
    7   13   13     -0.59     -0.34
    7   13   14      8.03      3.51
    7   13   15     -4.88      4.23
    7   13   16    -15.08      3.80
    7   13   17      0.46     -3.87
    7   13   18     10.43     -3.49
    7   13   19      1.34     -0.06
    7   13   20     -4.44      2.91
    8   13    0      3.89      0.07
    8   13    1     15.71     -4.05
    8   13    2     -7.61     -5.66
    8   13    3     -4.34      8.17
    8   13    4     -3.81      2.27
    8   13    5     -4.13      1.11
    8   13    6      5.02     -1.30
    8   13    7     -0.31     -3.94
    8   13    8    -14.60      4.46
    8   13    9      7.96      2.37
    8   13   10      0.15     -6.31
    8   13   11     -4.02     -0.16
    8   13   12      9.09      3.27
    8   13   13     -0.19      0.10
    8   13   14     -5.21      3.34
    8   13   15      3.46      1.81
    8   13   16     -3.32     -8.73
    8   13   17     -6.25      1.47
    8   13   18      5.86      3.97
    8   13   19      4.23     -1.20
    8   13   20     -2.64      4.11
    9   13    0     -5.56     -0.39
    9   13    1     19.29      3.92
    9   13    2     -1.82     -1.66
    9   13    3     -8.78     -5.29
    9   13    4     -1.34     10.41
    9   13    5     -2.72     11.48
    9   13    6     -5.39      6.20
    9   13    7     -1.97     -3.24
    9   13    8      1.69     -8.53
    9   13    9     -0.14      0.71
    9   13   10      1.01      5.11
    9   13   11     -4.91     -1.29
    9   13   12     -2.37     -0.20
    9   13   13      6.86     -0.51
    9   13   14     -0.58      0.29
    9   13   15     -1.64      2.71
    9   13   16     -1.29     -6.97
    9   13   17      1.64     -1.63
    9   13   18      5.10      2.07
    9   13   19      2.54     -0.28
    9   13   20     -4.70      2.41
   10   13    0      6.31     -0.42
   10   13    1     -1.44      1.91
   10   13    2     -5.92     -2.27
   10   13    3     -1.95      5.12
   10   13    4      0.96      8.98
   10   13    5     -2.18      1.60
   10   13    6     -4.38     -3.02
   10   13    7     -3.04     -2.15
   10   13    8      5.10      7.25
   10   13    9     -2.28      5.49
   10   13   10     -3.79     -5.35
   10   13   11      4.75     -6.02
   10   13   12     -4.62      2.76
   10   13   13     -1.29      0.25
   10   13   14      3.12     -1.83
   10   13   15     -2.16      1.92
   10   13   16     -0.31      5.34
   10   13   17      6.87     -1.03
   10   13   18      0.54     -4.34
   10   13   19     -3.14     -5.97
   11   13    0      9.89     -0.73
   11   13    1     -0.09      0.20
   11   13    2     -6.03     -8.73
   11   13    3      5.28      4.62
   11   13    4     -0.43     -2.22
   11   13    5     -3.20     -0.98
   11   13    6      0.16      1.39
   11   13    7      5.50     -2.29
   11   13    8     -7.94      3.78
   11   13    9    -10.56     -0.89
   11   13   10      5.51     -0.74
   11   13   11     10.14     -3.08
   11   13   12     -1.03      0.53
   11   13   13     -7.03     -0.15
   11   13   14      1.38      2.20
   11   13   15      1.56      0.42
   11   13   16      2.97      0.80
   11   13   17      3.27      1.52
   11   13   18     -4.72      0.09
   11   13   19     -5.81     -2.80
   12   13    0    -18.85     -0.16
   12   13    1      9.56      3.39
   12   13    2     11.37      0.50
   12   13    3     -1.29     -4.85
   12   13    4     -3.56     -4.77
   12   13    5      6.21      0.24
   12   13    6     -4.16      7.67
   12   13    7      2.61     -0.02
   12   13    8      2.51    -10.51
   12   13    9     -6.42     -3.39
   12   13   10      2.54      5.80
   12   13   11     -2.40     -5.15
   12   13   12      5.12      4.37
   12   13   13      3.99      6.61
   12   13   14     -3.77     -3.91
   12   13   15     -2.74     -6.45
   12   13   16      2.29     -3.21
   12   13   17      3.51      2.87
   12   13   18     -3.55      1.60
   13   13    0    -10.56      0.90
   13   13    1    -10.82      1.49
   13   13    2      5.68      4.92
   13   13    3      4.27     -2.60
   13   13    4     -1.47      4.31
   13   13    5     -3.43      2.41
   13   13    6     -2.21      0.83
   13   13    7      6.69     -2.29
   13   13    8      7.97    -12.49
   13   13    9     -4.55      7.73
   13   13   10     -1.17      7.16
   13   13   11      4.00     -6.51
   13   13   12     -0.78      2.56
   13   13   13     -5.88      0.75
   13   13   14      0.60     -3.25
   13   13   15     10.21     -2.07
   13   13   16     -3.35     -0.19
   13   13   17     -8.14      0.14
   14   13    0     10.43      0.50
   14   13    1     -5.48     -1.69
   14   13    2     -0.75     -5.67
   14   13    3     -0.28      3.92
   14   13    4     -6.01      7.80
   14   13    5     -5.02     -1.10
   14   13    6     -0.46     -8.36
   14   13    7      0.37      3.93
   14   13    8      3.18      2.40
   14   13    9      2.83      4.26
   14   13   10      0.44     -1.94
   14   13   11      1.59     -0.17
   14   13   12     -2.94      3.47
   14   13   13      2.10     -7.71
   14   13   14     -0.37      0.79
   14   13   15      0.09      7.32
   14   13   16      4.01      1.94
   14   13   17     -1.48     -3.68
   15   13    0     11.34      0.00
   15   13    1     -7.85      5.05
   15   13    2     -2.27      1.05
   15   13    3     14.66     -9.29
   15   13    4     -0.29     -9.02
   15   13    5     -8.67      7.64
   15   13    6    -11.89      9.36
   15   13    7     -2.91     -3.73
   15   13    8     14.33      0.51
   15   13    9     -1.20     -1.10
   15   13   10     -6.68     -0.44
   15   13   11      1.00      2.93
   15   13   12      4.28      1.30
   15   13   13      2.74     -3.25
   15   13   14     -5.26     -0.99
   15   13   15     -0.38      5.88
   15   13   16      9.39      1.03
   16   13    0      1.57      0.05
   16   13    1      7.77     -4.21
   16   13    2     -3.15      3.75
   16   13    3      2.77      4.30
   16   13    4      6.12     -1.70
   16   13    5      3.07     -1.76
   16   13    6     -4.81      7.77
   16   13    7     -7.23     -6.90
   16   13    8     11.75      3.53
   16   13    9      0.25      2.24
   16   13   10     -5.12     -2.94
   16   13   11     -3.11     -0.08
   16   13   12      0.93      1.59
   16   13   13      1.09      1.15
   16   13   14     -1.25     -4.28
   16   13   15      1.68      2.06
   17   13    0     -1.11      0.31
   17   13    1      1.37    -11.51
   17   13    2     -0.58     -4.22
   17   13    3     -3.19     14.38
   17   13    4      0.82      7.70
   17   13    5      0.51     -7.13
   17   13    6      5.12      2.18
   17   13    7      2.98     -1.20
   17   13    8      2.73     -4.73
   17   13    9     -1.28      3.28
   17   13   10     -1.61      2.43
   17   13   11     -0.66     -0.75
   17   13   12      0.21     -0.38
   17   13   13     -1.37     -1.59
   17   13   14      0.95     -1.75
   18   13    0     -1.45     -0.05
   18   13    1     -0.10      5.51
   18   13    2      6.08     -4.80
   18   13    3     -6.31     -4.47
   18   13    4    -10.13      3.59
   18   13    5      3.23      0.70
   18   13    6      2.46      1.30
   18   13    7      2.69      0.37
   18   13    8     -0.55     -9.27
   18   13    9     -1.13     -0.36
   18   13   10      2.50      7.80
   18   13   11      2.94     -0.68
   18   13   12      2.02     -3.08
   18   13   13     -3.26     -0.65
   19   13    0      7.38      0.04
   19   13    1     -0.14     17.07
   19   13    2     -3.49      6.68
   19   13    3     -4.23    -11.27
   19   13    4     -2.50     -6.95
   19   13    5      7.81      2.64
   19   13    6     -5.83      5.79
   19   13    7     -8.98     -4.17
   19   13    8      1.15     -2.51
   19   13    9      8.99      0.37
   19   13   10      0.88      4.92
   19   13   11     -3.91     -1.02
   20   13    0      5.45      0.50
   20   13    1     13.20      2.48
   20   13    2     -6.94      4.18
   20   13    3    -12.06      9.96
   20   13    4      2.92      2.62
   20   13    5      1.24     -8.89
   20   13    6     -1.87     -1.84
   20   13    7      1.32      3.42
   20   13    8     -2.74      7.06
   20   13    9     -1.07     -1.50
   21   13    0      5.54     -0.08
   21   13    1      5.29     -3.74
   21   13    2     -6.51      3.41
   21   13    3     -7.66      4.91
   21   13    4      4.82      4.54
   21   13    5      0.46      1.83
   21   13    6     -2.17     -1.71
   21   13    7     -0.03     -1.03
   22   13    0      2.69     -0.38
   22   13    1     -4.42     -0.77
   22   13    2     -0.26      4.32
   22   13    3      4.19     -1.78
    0   14    0    -15.99      1.62
    0   14    1     34.98      1.00
    0   14    2    -21.04      1.20
    0   14    3     19.23     -1.79
    0   14    4     -9.79      1.76
    0   14    5     -0.83      2.36
    0   14    6     -3.69      0.11
    0   14    7    -10.99      0.49
    0   14    8      4.80     -1.00
    0   14    9     13.39     -1.73
    0   14   10     -8.23     -0.67
    0   14   11     -6.95      0.72
    0   14   12      7.96     -0.20
    0   14   13      3.75      0.05
    0   14   14     -5.00      0.19
    0   14   15     -4.82     -0.50
    0   14   16      5.85      0.03
    0   14   17     -1.41     -0.25
    0   14   18     -0.01      0.56
    0   14   19     -0.87      0.37
    0   14   20     -0.51     -0.57
    0   14   21     -2.02      0.09
    1   14    0      2.99      1.81
    1   14    1     10.38    -10.36
    1   14    2    -29.67     -3.70
    1   14    3     18.69     11.81
    1   14    4      4.59     -3.82
    1   14    5      5.97     18.99
    1   14    6    -10.49     -5.75
    1   14    7     -0.42     -3.88
    1   14    8      4.52      4.33
    1   14    9      1.02     -2.25
    1   14   10      1.59     -5.78
    1   14   11     -0.68     -0.22
    1   14   12     -1.47     -9.53
    1   14   13      0.59      4.34
    1   14   14      2.09     11.79
    1   14   15      2.87     -6.96
    1   14   16     -0.20      0.48
    1   14   17     -2.58     17.30
    1   14   18     -0.75     -6.41
    1   14   19     -1.24     -5.79
    1   14   20      0.06      6.28
    1   14   21      1.98      0.22
    2   14    0      0.10      1.28
    2   14    1    -10.79     -6.76
    2   14    2     -8.42    -10.44
    2   14    3      7.86     21.96
    2   14    4      3.72      4.13
    2   14    5      8.74     -2.46
    2   14    6     -5.66      1.19
    2   14    7     11.15      1.21
    2   14    8      7.02      0.38
    2   14    9    -11.31      3.82
    2   14   10      0.34     -3.58
    2   14   11      3.90     -0.41
    2   14   12      0.82     -3.19
    2   14   13     -0.01      4.58
    2   14   14     -1.66      9.59
    2   14   15      7.49     -1.06
    2   14   16      0.22     -5.30
    2   14   17     -6.49     -0.70
    2   14   18     -4.92      3.03
    2   14   19      5.42      0.11
    2   14   20      3.06      0.11
    2   14   21      0.28      3.02
    3   14    0     -1.53      0.31
    3   14    1     -2.05     -3.59
    3   14    2      5.01    -21.81
    3   14    3     -5.63      8.33
    3   14    4     -6.57     15.56
    3   14    5     -2.18     -2.21
    3   14    6     15.06      5.98
    3   14    7     -0.31     -4.39
    3   14    8     -8.39     -1.40
    3   14    9      2.82      7.90
    3   14   10      8.01     -2.79
    3   14   11     -5.39     -1.47
    3   14   12     -1.40      2.15
    3   14   13      6.82      3.39
    3   14   14     -2.71      0.19
    3   14   15     -9.75     -2.20
    3   14   16     -1.64      1.64
    3   14   17      2.46     -8.12
    3   14   18      2.69      3.84
    3   14   19      1.52      2.70
    3   14   20      0.11     -2.87
    3   14   21      0.18      3.39
    4   14    0    -18.11     -1.57
    4   14    1     12.16     -6.48
    4   14    2      8.67    -19.04
    4   14    3    -13.45    -10.86
    4   14    4     -0.57      4.07
    4   14    5     -9.55     12.40
    4   14    6      4.74      3.61
    4   14    7      3.24     -6.77
    4   14    8    -14.05      0.17
    4   14    9     -5.22      1.95
    4   14   10     21.18     -3.56
    4   14   11      1.42     -3.01
    4   14   12     -7.57      2.40
    4   14   13     -0.16     -2.09
    4   14   14     -2.47     -7.12
    4   14   15     -9.31     -1.68
    4   14   16      6.22     10.03
    4   14   17      5.66      6.13
    4   14   18     -4.67     -1.34
    4   14   19     -3.05     -0.75
    4   14   20      4.67      0.15
    4   14   21     -3.40     -0.82
    5   14    0    -15.39     -0.96
    5   14    1      7.00      8.12
    5   14    2      5.12     -9.07
    5   14    3    -18.79    -26.86
    5   14    4      3.89     -3.56
    5   14    5     15.23      5.86
    5   14    6    -12.83     -2.45
    5   14    7     -2.67      2.02
    5   14    8     -0.51     -4.62
    5   14    9     -5.93     -1.99
    5   14   10      7.43      6.90
    5   14   11     -1.68     -2.05
    5   14   12      3.13      2.57
    5   14   13      0.97     -6.67
    5   14   14     -1.15    -11.35
    5   14   15      0.01      9.93
    5   14   16     -0.21      8.60
    5   14   17      4.57      2.99
    5   14   18     -1.47      0.58
    5   14   19     -3.42      1.07
    5   14   20     -2.14     -1.92
    5   14   21     -3.51     -2.42
    6   14    0     -2.77      1.68
    6   14    1      3.22     18.81
    6   14    2      7.75     -2.10
    6   14    3     -4.71    -28.44
    6   14    4    -12.68      3.25
    6   14    5     12.66     -1.37
    6   14    6      8.63     -3.88
    6   14    7      2.36      3.60
    6   14    8     -4.37     -5.70
    6   14    9     -5.39      3.14
    6   14   10     -5.71      8.32
    6   14   11      0.27     -4.13
    6   14   12      4.78      0.90
    6   14   13     -2.92      7.80
    6   14   14      4.56     -3.78
    6   14   15      6.71     -1.05
    6   14   16     -9.29      2.21
    6   14   17     -1.04     -2.67
    6   14   18      3.41      2.52
    6   14   19      0.82      2.22
    6   14   20     -2.74     -2.40
    7   14    0      6.93      1.61
    7   14    1      9.47      2.28
    7   14    2     -4.51     -0.22
    7   14    3      7.94    -11.13
    7   14    4      1.67      7.57
    7   14    5     -2.83      9.95
    7   14    6      7.70     -4.02
    7   14    7      1.91     -5.29
    7   14    8     -2.35     -0.03
    7   14    9      1.13      2.41
    7   14   10     -7.31     -6.58
    7   14   11      0.58      4.85
    7   14   12     -1.80      0.11
    7   14   13     -2.59      3.22
    7   14   14      3.27      8.78
    7   14   15      0.51     -5.41
    7   14   16     -1.63     -6.68
    7   14   17      0.87     -0.23
    7   14   18      2.78      2.86
    7   14   19     -2.37     -0.37
    7   14   20     -1.51      1.26
    8   14    0     -9.60     -0.74
    8   14    1      2.76    -10.15
    8   14    2      7.43      6.14
    8   14    3      2.39     -0.83
    8   14    4     -0.27     -3.65
    8   14    5      1.94     15.75
    8   14    6      1.29      6.56
    8   14    7     -5.61     -9.22
    8   14    8     -3.30    -12.58
    8   14    9      0.74      2.97
    8   14   10      5.82      0.41
    8   14   11      4.05      1.85
    8   14   12     -6.02     -2.80
    8   14   13     -3.40     -0.26
    8   14   14     -1.32      9.53
    8   14   15      5.64     -1.53
    8   14   16      9.19     -9.87
    8   14   17     -7.21      3.67
    8   14   18     -2.03      0.86
    8   14   19      3.96     -0.80
    8   14   20     -3.06      3.43
    9   14    0     24.60     -0.98
    9   14    1    -12.18     -3.62
    9   14    2    -13.91      5.42
    9   14    3      3.66      1.68
    9   14    4      0.54     -3.26
    9   14    5      0.78     -2.70
    9   14    6     -2.72      7.92
    9   14    7     -5.82      3.06
    9   14    8      3.30    -13.49
    9   14    9      2.20     -3.22
    9   14   10      1.39     10.23
    9   14   11     -4.10      0.80
    9   14   12      3.42     -3.17
    9   14   13      7.27      2.59
    9   14   14     -3.65      2.53
    9   14   15      0.15     -0.70
    9   14   16      4.40     -2.25
    9   14   17     -1.45      0.43
    9   14   18     -4.22     -2.92
    9   14   19      2.41      1.39
   10   14    0     -1.68     -0.28
   10   14    1      9.07      2.77
   10   14    2      3.42     -5.06
   10   14    3      2.80      3.99
   10   14    4    -14.83      4.11
   10   14    5    -10.91     -7.20
   10   14    6      9.26      0.10
   10   14    7      5.39     -0.50
   10   14    8     -0.34      5.20
   10   14    9     -4.04     -1.57
   10   14   10     -4.12      1.10
   10   14   11      3.62      2.40
   10   14   12      2.62     -2.83
   10   14   13     -4.23     -0.33
   10   14   14      1.47      4.97
   10   14   15      2.97     -0.67
   10   14   16     -3.74     -1.70
   10   14   17      0.67     -0.63
   10   14   18     -2.28      2.97
   10   14   19      1.02     -0.69
   11   14    0     -7.53     -0.50
   11   14    1      1.69     -0.26
   11   14    2      0.00     -2.58
   11   14    3      8.62     10.11
   11   14    4      3.56     -3.86
   11   14    5     -8.38     -3.69
   11   14    6     -3.88      2.40
   11   14    7     -3.21     -2.46
   11   14    8      0.46      7.64
   11   14    9      5.38      0.22
   11   14   10     -4.36     -2.50
   11   14   11      2.60     -2.97
   11   14   12     -2.03     -0.84
   11   14   13     -6.00     -0.73
   11   14   14      3.57     -2.32
   11   14   15     -2.16      0.53
   11   14   16     -2.38      4.44
   11   14   17      2.55      2.13
   11   14   18      1.99      1.99
   12   14    0     -7.73      1.26
   12   14    1     -5.43      0.89
   12   14    2     14.29     13.86
   12   14    3     -1.00      2.96
   12   14    4    -10.70     -8.68
   12   14    5      5.10      1.78
   12   14    6      9.65     -0.60
   12   14    7    -10.83      2.32
   12   14    8    -10.99      5.17
   12   14    9      5.44     -3.31
   12   14   10      5.74      0.22
   12   14   11      3.42     -1.93
   12   14   12     -1.96     -4.93
   12   14   13     -4.93     -0.13
   12   14   14      0.14     -1.24
   12   14   15      3.17      3.49
   12   14   16     -0.51      1.95
   12   14   17     -4.09     -3.63
   12   14   18      2.51      1.51
   13   14    0      4.48      2.71
   13   14    1     -2.79      0.52
   13   14    2      3.12     16.53
   13   14    3     -2.90      0.03
   13   14    4     -0.10     -3.06
   13   14    5      1.44      1.99
   13   14    6     -0.75     -6.70
   13   14    7     -3.33      2.50
   13   14    8      3.60      7.49
   13   14    9     -2.15     -1.85
   13   14   10     -0.55     -7.08
   13   14   11      0.20      5.42
   13   14   12      4.18     -0.37
   13   14   13     -0.65     -2.11
   13   14   14     -2.80     -0.07
   13   14   15      8.04      0.89
   13   14   16     -3.39      1.80
   13   14   17     -4.76     -5.61
   14   14    0     -8.29      1.52
   14   14    1      6.32     -3.57
   14   14    2     -0.95     -3.18
   14   14    3     -4.12      1.77
   14   14    4      7.57      2.99
   14   14    5      0.58      1.16
   14   14    6     -2.84     -4.84
   14   14    7      0.17     -1.56
   14   14    8      1.88      2.42
   14   14    9     -5.02      3.23
   14   14   10      1.87     -5.00
   14   14   11      1.83      3.15
   14   14   12      0.79      1.05
   14   14   13     -3.39     -2.74
   14   14   14     -1.75     -0.07
   14   14   15      7.85     -0.26
   14   14   16     -0.01     -0.19
   15   14    0      2.79     -2.93
   15   14    1      0.35     -1.51
   15   14    2    -11.67     -9.48
   15   14    3      1.63     -2.32
   15   14    4      9.30      3.40
   15   14    5     -1.25     -1.52
   15   14    6     -1.51     -1.72
   15   14    7      4.42     -0.16
   15   14    8     -0.16      1.22
   15   14    9     -4.09      0.74
   15   14   10      1.42      0.13
   15   14   11      2.15     -4.71
   15   14   12      0.04      1.21
   15   14   13     -0.12      2.47
   15   14   14     -0.41     -3.40
   15   14   15     -1.92      0.83
   16   14    0      3.37     -3.78
   16   14    1      1.60      6.09
   16   14    2     -0.50      3.35
   16   14    3      0.52     -8.46
   16   14    4     -6.30      0.73
   16   14    5     -0.82      2.10
   16   14    6      5.34      2.62
   16   14    7      6.82      0.03
   16   14    8     -3.25     -2.92
   16   14    9     -3.86     -6.54
   16   14   10      3.25      2.36
   16   14   11      1.46      3.00
   16   14   12      0.38      2.59
   16   14   13      0.81     -1.07
   16   14   14     -0.41     -1.45
   17   14    0      4.42     -5.44
   17   14    1      1.51     -1.84
   17   14    2      2.38      9.04
   17   14    3     -1.84      9.92
   17   14    4     -2.62      0.42
   17   14    5      1.06     -1.11
   17   14    6     -3.87      3.24
   17   14    7      0.67      1.18
   17   14    8     -0.27    -11.71
   17   14    9      0.17     -0.18
   17   14   10     -1.47      7.15
   17   14   11     -1.33      1.22
   17   14   12      2.47     -0.13
   17   14   13      2.12     -0.41
   18   14    0      3.15     -0.91
   18   14    1      1.16    -10.35
   18   14    2      4.57      3.87
   18   14    3     -3.61     18.47
   18   14    4    -10.06     -1.98
   18   14    5      4.80     -2.24
   18   14    6      8.51     -0.33
   18   14    7     -9.76      2.82
   18   14    8     -9.94     -4.00
   18   14    9      9.12      5.72
   18   14   10      0.08      1.53
   18   14   11     -3.67     -6.59
   18   14   12     -0.04     -0.40
   19   14    0     -1.47      1.72
   19   14    1      8.02      0.18
   19   14    2      2.39      2.66
   19   14    3     -4.46     -2.83
   19   14    4     -6.87     -4.36
   19   14    5      3.58      3.53
   19   14    6      3.52     -2.31
   19   14    7     -6.03      0.39
   19   14    8      2.50      9.45
   19   14    9      7.26     -1.07
   19   14   10     -2.32     -6.71
   20   14    0     -3.43      0.23
   20   14    1      3.10      4.47
   20   14    2     -0.45     -1.70
   20   14    3     -2.19     -6.35
   20   14    4      2.13      2.70
   20   14    5      2.34     -1.06
   20   14    6     -5.90     -3.07
   20   14    7     -2.01     -1.79
   20   14    8      7.73      3.51
   20   14    9      1.28     -2.08
   21   14    0     11.10     -3.07
   21   14    1     -3.07     -3.81
   21   14    2     -7.97     -1.39
   21   14    3     -1.46      8.47
   21   14    4      6.56      4.62
   21   14    5     -0.14     -8.42
   21   14    6     -5.33     -3.60
   22   14    0     17.72     -2.42
    0   15    0      5.80      0.36
    0   15    1     -2.81     -0.40
    0   15    2     -1.88      1.04
    0   15    3    -10.24      0.10
    0   15    4    -17.65     -0.36
    0   15    5     19.72     -0.51
    0   15    6      9.52     -0.86
    0   15    7      9.10     -0.07
    0   15    8     -2.51     -0.41
    0   15    9     -5.54      0.65
    0   15   10      0.30      0.58
    0   15   11     -5.01      0.65
    0   15   12     -2.66     -1.87
    0   15   13      1.80     -0.75
    0   15   14      1.98      3.66
    0   15   15      1.60      0.03
    0   15   16      5.75     -2.47
    0   15   17     -6.57     -0.03
    0   15   18     -8.71      1.78
    0   15   19      2.79      0.79
    0   15   20      8.35     -0.72
    0   15   21      0.88      0.50
    1   15    0     12.19     -0.57
    1   15    1    -18.98      5.97
    1   15    2    -17.53     -2.65
    1   15    3      5.05      1.60
    1   15    4      6.05     -5.42
    1   15    5      9.53      0.67
    1   15    6     -0.79      3.55
    1   15    7      5.10     -8.08
    1   15    8      0.54      0.47
    1   15    9     -2.91      7.98
    1   15   10      3.59      5.19
    1   15   11     -1.79     -5.69
    1   15   12     -6.07     -6.28
    1   15   13      1.03      1.01
    1   15   14      1.04     -2.05
    1   15   15      0.11     -0.87
    1   15   16     -3.20     -4.36
    1   15   17      3.11      1.06
    1   15   18      3.88      0.45
    1   15   19     -3.22      0.94
    1   15   20      0.99     -4.42
    1   15   21      1.91     -2.63
    2   15    0    -18.97     -0.32
    2   15    1      0.67     14.28
    2   15    2      7.73     -0.11
    2   15    3      6.55      8.19
    2   15    4     -0.98     -2.02
    2   15    5      1.32     -0.96
    2   15    6      0.66    -10.51
    2   15    7     -2.45      3.31
    2   15    8      7.33      8.52
    2   15    9     -0.57    -10.65
    2   15   10      1.73      9.92
    2   15   11      5.97      2.51
    2   15   12      0.19      0.68
    2   15   13     -4.19     -3.01
    2   15   14     -7.40     -3.29
    2   15   15     -4.19     -0.13
    2   15   16     -1.40     -1.19
    2   15   17     11.14     -1.52
    2   15   18      6.78     -4.41
    2   15   19     -5.54     -1.87
    2   15   20     -4.61     -0.93
    2   15   21      2.11     -0.88
    3   15    0      1.01     -0.03
    3   15    1     -4.13     20.67
    3   15    2      2.09      5.47
    3   15    3     27.30      0.04
    3   15    4     -6.13     -0.40
    3   15    5    -21.24     15.54
    3   15    6     -1.53    -18.88
    3   15    7      3.78    -10.33
    3   15    8     11.62      3.22
    3   15    9     -2.37      7.82
    3   15   10      4.54     11.44
    3   15   11      8.58    -10.94
    3   15   12     -4.39      4.26
    3   15   13     -9.66      6.20
    3   15   14      5.42      0.44
    3   15   15     -4.78     -6.28
    3   15   16      1.41      1.47
    3   15   17      1.64      1.15
    3   15   18     -4.23      0.90
    3   15   19      1.17     -2.15
    3   15   20     -1.32     -4.45
    3   15   21      0.50      1.02
    4   15    0      6.43     -0.08
    4   15    1     17.81      7.32
    4   15    2     -3.11      9.73
    4   15    3     -5.81     10.88
    4   15    4    -10.35     -0.67
    4   15    5     -3.69     -7.43
    4   15    6     10.41    -14.46
    4   15    7     -4.76      2.07
    4   15    8     -3.21     -2.44
    4   15    9      7.64     14.23
    4   15   10      4.16     -1.57
    4   15   11     -1.48     -6.00
    4   15   12     -4.87      4.32
    4   15   13     -1.13      1.71
    4   15   14     10.13     -0.71
    4   15   15     -5.32     -0.53
    4   15   16      0.18      5.03
    4   15   17      0.63      2.21
    4   15   18     -4.11     -0.80
    4   15   19      0.73     -0.92
    4   15   20     -3.68      1.83
    4   15   21     -0.03      1.12
    5   15    0     -0.39     -0.06
    5   15    1      9.59     -2.80
    5   15    2     -6.11     10.37
    5   15    3    -17.06      4.77
    5   15    4      6.59     -5.02
    5   15    5      0.81    -13.55
    5   15    6     -2.83      3.21
    5   15    7      0.79     10.33
    5   15    8     -3.45     -1.18
    5   15    9      7.64     -1.56
    5   15   10     -4.58     -7.60
    5   15   11     -3.84     13.04
    5   15   12     -1.28     -0.70
    5   15   13      6.17     -8.78
    5   15   14      1.52      3.81
    5   15   15     -1.84      6.44
    5   15   16     -0.78     -1.68
    5   15   17      2.93      0.53
    5   15   18     -1.08     -2.04
    5   15   19      0.80     -1.55
    5   15   20     -1.39      4.37
    6   15    0     -8.15      0.46
    6   15    1      2.00     -4.76
    6   15    2      8.48     -2.65
    6   15    3     -3.94    -10.13
    6   15    4     -1.92     -2.19
    6   15    5      1.19     13.87
    6   15    6     -7.55     17.71
    6   15    7      0.87    -15.42
    6   15    8      0.19     -0.52
    6   15    9      2.35      8.51
    6   15   10     -4.90     -4.10
    6   15   11      0.76     -0.40
    6   15   12      4.78     -1.25
    6   15   13      0.09     -0.52
    6   15   14     -9.24      5.40
    6   15   15      3.12     -0.05
    6   15   16      5.35     -6.74
    6   15   17     -2.26      0.04
    6   15   18     -5.89      5.40
    6   15   19      1.19     -1.32
    6   15   20      5.52     -4.36
    7   15    0      7.31      0.34
    7   15    1     -2.92     -4.77
    7   15    2     -1.30    -12.34
    7   15    3     11.12      2.14
    7   15    4     -5.24      8.60
    7   15    5      1.71      0.58
    7   15    6      4.10     11.87
    7   15    7     -3.29     -1.32
    7   15    8     -5.16     -6.51
    7   15    9     -2.85     -1.56
    7   15   10      7.04     -0.61
    7   15   11     -4.75     -2.70
    7   15   12     -1.52      1.25
    7   15   13      2.64     -0.90
    7   15   14     -1.65     -2.73
    7   15   15      0.22     -1.88
    7   15   16      0.82      0.94
    7   15   17     -4.00     -1.33
    7   15   18      0.00      5.98
    7   15   19     -3.55      1.36
    7   15   20      2.84     -4.89
    8   15    0    -12.18      0.65
    8   15    1      6.76      5.10
    8   15    2      9.44     -6.15
    8   15    3     -6.93     -2.29
    8   15    4     -5.71     11.09
    8   15    5     10.36     -6.12
    8   15    6     10.64    -11.09
    8   15    7     -0.39      8.94
    8   15    8     -3.67      0.24
    8   15    9    -11.66     -6.08
    8   15   10      2.55     -1.26
    8   15   11     -0.70     -1.41
    8   15   12     -3.08     -1.24
    8   15   13      3.33     -0.72
    8   15   14      0.89     -0.37
    8   15   15     -0.20     -1.17
    8   15   16      2.29     -0.57
    8   15   17     -0.63      0.25
    8   15   18      0.55      3.87
    8   15   19     -4.98     -1.44
    9   15    0     -7.92     -0.06
    9   15    1     -6.86      6.99
    9   15    2      9.14      1.75
    9   15    3     -6.71    -11.15
    9   15    4      3.74     -6.82
    9   15    5     -0.20     -0.16
    9   15    6     -3.91     -6.97
    9   15    7      9.13      3.43
    9   15    8      6.15     -0.29
    9   15    9     -1.25     -1.14
    9   15   10     -7.07      5.45
    9   15   11     -4.08      2.67
    9   15   12      0.05     -3.85
    9   15   13      6.17     -1.80
    9   15   14      2.91      1.14
    9   15   15     -7.30     -0.79
    9   15   16     -2.19      4.53
    9   15   17      7.00      0.53
    9   15   18      1.52     -5.18
    9   15   19     -3.79      0.21
   10   15    0      2.89      0.17
   10   15    1     -7.69     -0.93
   10   15    2      2.74     -2.74
   10   15    3      1.72     -5.70
   10   15    4      3.32     -3.30
   10   15    5     -8.59     -2.71
   10   15    6     -1.00     -1.20
   10   15    7     11.32     -0.58
   10   15    8     -1.60     -0.82
   10   15    9      8.12      5.65
   10   15   10      2.17      0.22
   10   15   11     -5.98      2.50
   10   15   12      0.16      1.36
   10   15   13      0.11     -0.44
   10   15   14      1.34     -2.29
   10   15   15     -5.69     -4.88
   10   15   16     -1.92      6.46
   10   15   17      4.32      4.71
   10   15   18     -1.38     -1.53
   10   15   19      0.21     -0.84
   11   15    0     12.63      0.63
   11   15    1     -0.94     -2.90
   11   15    2    -14.72      8.44
   11   15    3      2.86     -3.39
   11   15    4     16.65      2.30
   11   15    5     -2.28     -2.20
   11   15    6     -0.65     -0.94
   11   15    7      5.97      1.86
   11   15    8     -2.15     -2.43
   11   15    9     -4.39      1.68
   11   15   10      5.89     -3.30
   11   15   11      3.16      2.96
   11   15   12     -3.06      2.95
   11   15   13     -4.91     -2.69
   11   15   14     -0.20     -4.67
   11   15   15      1.73      3.06
   11   15   16      2.05     -0.24
   11   15   17     -0.33     -1.41
   11   15   18     -2.62      6.91
   12   15    0     -7.90      0.34
   12   15    1     -3.90     -4.56
   12   15    2      3.97     16.69
   12   15    3     -0.64      2.84
   12   15    4      2.88     -4.88
   12   15    5      1.50     -0.56
   12   15    6      4.05     -4.22
   12   15    7     -2.11      2.57
   12   15    8      0.00     11.46
   12   15    9     -5.04     -1.24
   12   15   10      2.34     -9.25
   12   15   11      0.38     -0.83
   12   15   12     -4.19     10.99
   12   15   13      3.68      1.74
   12   15   14     -0.26    -12.72
   12   15   15     -1.19      4.76
   12   15   16      2.27      2.61
   12   15   17      3.24     -3.20
   13   15    0      4.23     -0.49
   13   15    1     -5.16     -0.68
   13   15    2     -0.74     -5.22
   13   15    3      5.89      3.34
   13   15    4     -0.92      2.48
   13   15    5    -18.00      2.51
   13   15    6     -2.80     -6.96
   13   15    7     12.78     -6.41
   13   15    8      1.08     14.50
   13   15    9     -5.14      1.35
   13   15   10      1.72     -1.84
   13   15   11      2.10      1.32
   13   15   12     -2.36      1.21
   13   15   13     -5.47      2.11
   13   15   14      0.70     -2.64
   13   15   15      6.86     -1.03
   13   15   16     -1.03      1.08
   13   15   17     -5.54      3.20
   14   15    0     -2.70     -0.64
   14   15    1     18.82      5.86
   14   15    2      3.59    -13.79
   14   15    3     -7.61     -3.94
   14   15    4     -7.78     13.03
   14   15    5     -1.91      3.17
   14   15    6      4.42    -11.12
   14   15    7      4.70     -8.99
   14   15    8     -9.22      6.41
   14   15    9      2.19      0.07
   14   15   10      1.99     -2.32
   14   15   11     -2.27      3.39
   14   15   12     -1.58     -3.66
   14   15   13     -0.70      0.07
   14   15   14      2.79      4.29
   14   15   15     -4.88     -1.28
   14   15   16     -2.99     -0.70
   15   15    0    -16.10      0.09
   15   15    1     -5.65      4.43
   15   15    2     11.38      2.97
   15   15    3      5.04    -12.02
   15   15    4     -7.20      1.42
   15   15    5      9.34     10.76
   15   15    6      7.86     -2.69
   15   15    7     -7.49     -7.87
   15   15    8     -7.09     -8.15
   15   15    9      0.71      3.20
   15   15   10     -9.06      1.08
   15   15   11      7.13     -3.34
   15   15   12      4.84     -4.54
   15   15   13     -2.33      0.85
   15   15   14      0.60      4.70
   15   15   15     -4.72      0.25
   16   15    0     -8.96      0.05
   16   15    1     -0.79     -2.31
   16   15    2      4.82     -3.26
   16   15    3     -2.92     -4.40
   16   15    4      0.11      1.82
   16   15    5      8.80      5.24
   16   15    6      3.46     -1.99
   16   15    7    -10.85      1.22
   16   15    8     -3.37     -1.87
   16   15    9      5.11      4.86
   16   15   10     -1.98     -1.31
   16   15   11      4.71     -4.90
   16   15   12      0.05      0.60
   16   15   13     -1.11      0.63
   16   15   14      0.93      1.47
   17   15    0      1.99     -0.15
   17   15    1      9.20     -0.72
   17   15    2     -5.45    -13.17
   17   15    3     -2.52      2.96
   17   15    4      4.87      5.59
   17   15    5     -9.36     -4.29
   17   15    6     -1.33      0.07
   17   15    7      5.81      6.44
   17   15    8      0.43      0.85
   17   15    9     -0.50      0.49
   17   15   10      2.77      1.53
   17   15   11     -0.88      1.95
   17   15   12     -1.29     -0.30
   17   15   13      0.88     -1.62
   18   15    0     -2.91     -0.16
   18   15    1     -1.00      2.28
   18   15    2     -0.10     -0.24
   18   15    3      3.61     -3.62
   18   15    4      0.23      0.51
   18   15    5     -6.34      4.94
   18   15    6      1.66     -1.70
   18   15    7      5.81     -3.26
   18   15    8     -1.58      0.35
   18   15    9     -5.92     -0.93
   18   15   10      0.29      0.59
   18   15   11      1.54      3.35
   19   15    0      2.70     -0.43
   19   15    1    -21.63     -1.86
   19   15    2     -1.99     11.51
   19   15    3     10.42     -7.57
   19   15    4      7.33     -9.66
   19   15    5      3.35     13.13
   19   15    6     -7.58      3.34
   19   15    7     -5.79    -10.44
   19   15    8      3.81     -4.29
   19   15    9      1.38      1.48
   19   15   10     -2.50     -1.12
   20   15    0     -0.31     -0.15
   20   15    1     -1.73     -6.96
   20   15    2      2.56     -3.98
   20   15    3     -1.34      3.55
   20   15    4      6.09     -0.85
   20   15    5      5.28     -2.49
   20   15    6     -8.37     -0.28
   20   15    7     -1.56      1.79
   20   15    8      5.48     -0.34
   21   15    0      0.54     -0.03
   21   15    1      6.69     -3.56
   21   15    2     -0.37     -8.36
   21   15    3     -2.92      2.25
   21   15    4      3.33     -1.43
   21   15    5      3.50     -3.32
    0   16    0    -26.41     -6.29
    0   16    1     -0.71      2.66
    0   16    2     33.83     -2.53
    0   16    3     10.26     -0.83
    0   16    4     -3.47      0.57
    0   16    5    -20.90     -0.98
    0   16    6     19.95     -1.15
    0   16    7      4.11     -0.47
    0   16    8    -15.57      1.29
    0   16    9      2.64      2.78
    0   16   10      4.33      0.94
    0   16   11     -4.48     -0.82
    0   16   12      0.77      0.41
    0   16   13      3.52      0.07
    0   16   14      1.82     -0.68
    0   16   15    -11.01      0.27
    0   16   16      0.75      0.18
    0   16   17     -0.13      0.36
    0   16   18     -5.28      0.45
    0   16   19     -5.39     -0.03
    0   16   20      3.51     -0.41
    0   16   21      8.89     -0.06
    1   16    0    -11.59     -3.12
    1   16    1     -9.07      4.02
    1   16    2     17.49    -27.98
    1   16    3      2.86    -15.98
    1   16    4      7.30      6.33
    1   16    5     -9.14      4.96
    1   16    6      6.46      7.06
    1   16    7    -12.13     -7.14
    1   16    8     -3.95     14.29
    1   16    9      4.56     -3.58
    1   16   10      0.61     -8.84
    1   16   11      9.69     -2.79
    1   16   12     -4.99     -2.76
    1   16   13    -10.32      1.99
    1   16   14      2.05     -2.71
    1   16   15      3.01     -5.06
    1   16   16     -1.84      0.51
    1   16   17     -1.61      7.77
    1   16   18      0.44     -1.44
    1   16   19     -1.67     -6.16
    1   16   20      1.46      2.49
    1   16   21      3.61     -0.20
    2   16    0     16.09     -1.37
    2   16    1    -14.33     -0.93
    2   16    2     -6.28      0.74
    2   16    3     -1.73     -8.57
    2   16    4     14.80     -0.03
    2   16    5     -4.59     -4.84
    2   16    6    -14.68     -2.09
    2   16    7    -12.44     -3.10
    2   16    8     16.07     10.57
    2   16    9      1.03     -1.47
    2   16   10    -15.72     -2.27
    2   16   11     14.76     -5.18
    2   16   12      6.95     -4.11
    2   16   13    -12.62     -0.66
    2   16   14     -8.22      2.24
    2   16   15     11.82     -0.79
    2   16   16      5.48      4.47
    2   16   17     -2.36      2.18
    2   16   18     -1.01     -4.24
    2   16   19      4.43     -4.08
    2   16   20     -0.11     -1.62
    2   16   21     -7.64      0.49
    3   16    0      8.52      1.14
    3   16    1     -3.96      3.61
    3   16    2      6.36     17.98
    3   16    3     -7.38      2.29
    3   16    4    -13.16     -1.31
    3   16    5      2.17    -11.96
    3   16    6     -0.24    -11.24
    3   16    7      7.70      3.48
    3   16    8     -2.20      1.45
    3   16    9     -1.69      1.34
    3   16   10     -1.58      0.86
    3   16   11     -6.77      3.29
    3   16   12      5.08      2.16
    3   16   13      4.50     -6.93
    3   16   14      4.68      1.17
    3   16   15      2.48      2.64
    3   16   16     -2.40      2.97
    3   16   17      0.03     -2.68
    3   16   18      1.76     -5.02
    3   16   19     -1.29      3.47
    3   16   20     -2.86     -1.20
    4   16    0      6.09      1.19
    4   16    1     -3.58      7.72
    4   16    2      0.46      4.79
    4   16    3    -12.45     12.55
    4   16    4     -2.56     -0.13
    4   16    5     11.91    -12.15
    4   16    6     -6.70     -0.33
    4   16    7     18.77      5.99
    4   16    8      0.56     -3.22
    4   16    9     -8.78      0.14
    4   16   10      2.76     -8.02
    4   16   11     -7.79      9.48
    4   16   12     -2.47      9.77
    4   16   13      4.44     -3.99
    4   16   14      6.76     -4.91
    4   16   15     -2.03     -1.74
    4   16   16     -1.22     -9.36
    4   16   17      2.68      0.08
    4   16   18     -2.70      3.47
    4   16   19     -3.77      1.83
    4   16   20      5.43      2.24
    5   16    0     -3.76      0.07
    5   16    1     -9.04      3.10
    5   16    2      1.67      0.45
    5   16    3      0.21     12.52
    5   16    4      3.15      4.52
    5   16    5      6.31     -0.26
    5   16    6     -1.70      0.37
    5   16    7      1.49     -1.54
    5   16    8     10.66     -1.00
    5   16    9     -1.01     -1.51
    5   16   10     -9.63     -8.98
    5   16   11      0.14      6.16
    5   16   12     -4.70     11.66
    5   16   13      1.06     -3.23
    5   16   14     -1.21     -8.76
    5   16   15     -1.17      3.98
    5   16   16     -0.71     -5.97
    5   16   17      3.61     -6.21
    5   16   18      3.88      5.68
    5   16   19      0.12     -1.07
    5   16   20      0.67     -0.81
    6   16    0     10.07     -1.24
    6   16    1      9.60     -3.79
    6   16    2     -2.85      8.05
    6   16    3      8.27      8.56
    6   16    4     -1.68      0.90
    6   16    5    -11.70      3.01
    6   16    6      8.40     -6.88
    6   16    7     -7.44     -1.39
    6   16    8      2.57      2.83
    6   16    9      2.91     -2.57
    6   16   10     -5.02      2.66
    6   16   11      5.55     -5.59
    6   16   12     -3.83      4.12
    6   16   13     -1.39      3.10
    6   16   14     -0.60     -3.08
    6   16   15      2.63     -2.54
    6   16   16      0.24      7.24
    6   16   17     -2.78      0.09
    6   16   18      0.68     -2.50
    6   16   19      3.17     -3.14
    6   16   20      0.46     -2.24
    7   16    0     13.59     -1.03
    7   16    1      1.56     -0.69
    7   16    2     -0.84      2.42
    7   16    3      4.49      3.17
    7   16    4     -5.49     -3.48
    7   16    5    -13.28     -2.10
    7   16    6      3.01     -4.15
    7   16    7     -4.70      5.60
    7   16    8     -0.46     10.22
    7   16    9      3.43     -6.43
    7   16   10      2.51      0.09
    7   16   11      1.17      0.20
    7   16   12      1.98      3.35
    7   16   13      2.86     -6.25
    7   16   14      3.05     -3.12
    7   16   15     -6.86      1.41
    7   16   16     -4.00      5.07
    7   16   17      4.87      1.23
    7   16   18     -0.32     -0.54
    7   16   19     -5.54      0.55
    8   16    0     -0.58      0.21
    8   16    1     -6.50      3.06
    8   16    2      1.95     -0.12
    8   16    3     -9.36      1.31
    8   16    4     -5.88     -3.20
    8   16    5      4.81     -1.31
    8   16    6      1.69      5.36
    8   16    7     -4.05      4.30
    8   16    8      3.91      3.49
    8   16    9      4.53     -4.04
    8   16   10     -5.06      0.89
    8   16   11     -0.62      2.28
    8   16   12      6.27     -2.02
    8   16   13     -1.07     -3.09
    8   16   14     -1.58     -0.73
    8   16   15     -1.44      1.89
    8   16   16     -2.84     -6.27
    8   16   17     -0.09      1.35
    8   16   18      0.19      5.06
    8   16   19      1.23     -2.70
    9   16    0     -5.45      1.70
    9   16    1      1.18     -1.17
    9   16    2     -1.69      4.80
    9   16    3     -1.61      1.71
    9   16    4     -1.57      0.61
    9   16    5      3.09      3.46
    9   16    6      5.15     -2.25
    9   16    7      3.78      1.04
    9   16    8     -0.44      2.88
    9   16    9      2.46     -2.36
    9   16   10     -6.66     -5.40
    9   16   11     -2.49     -0.86
    9   16   12      2.06      4.57
    9   16   13     -0.33      3.45
    9   16   14     -1.45     -3.64
    9   16   15      1.23      1.49
    9   16   16     -1.93      1.06
    9   16   17     -1.38      1.26
    9   16   18      3.27     -3.21
    9   16   19      2.46     -3.64
   10   16    0    -13.82      0.74
   10   16    1      7.97     -5.24
   10   16    2      7.83      1.89
   10   16    3      5.29     -0.38
   10   16    4      0.88     -0.48
   10   16    5     -1.67      0.69
   10   16    6      0.20     -3.01
   10   16    7      7.27      1.82
   10   16    8     -3.51      0.68
   10   16    9     -1.41      0.34
   10   16   10      1.98     -4.93
   10   16   11      0.06     -3.52
   10   16   12      2.29      2.81
   10   16   13     -4.85      0.76
   10   16   14     -2.41     -0.25
   10   16   15      5.63      2.07
   10   16   16     -0.53      1.76
   10   16   17     -4.46      1.33
   10   16   18      4.79     -4.40
   11   16    0     -0.52     -0.83
   11   16    1     -8.29     -1.16
   11   16    2     -2.62     -2.28
   11   16    3      6.79     -6.98
   11   16    4     11.39     -3.77
   11   16    5     -2.71      0.37
   11   16    6     -6.38      7.80
   11   16    7      5.09     -1.14
   11   16    8      1.63     -5.85
   11   16    9     -0.28      3.05
   11   16   10      5.51     -0.07
   11   16   11     -2.00     -1.89
   11   16   12      0.24      0.00
   11   16   13     -0.17     -0.33
   11   16   14      0.87     -3.82
   11   16   15      0.15     -2.67
   11   16   16     -1.94     -0.80
   11   16   17     -0.96      1.35
   11   16   18      2.71     -0.99
   12   16    0     -1.83     -1.45
   12   16    1      5.31      0.84
   12   16    2     -0.56     -1.36
   12   16    3     -7.01     -4.53
   12   16    4     -1.16     -2.63
   12   16    5     -0.55      1.47
   12   16    6      3.62      4.63
   12   16    7      3.45     -1.97
   12   16    8      1.77     -4.73
   12   16    9      0.76     -0.24
   12   16   10     -2.45      2.78
   12   16   11     -1.77      3.51
   12   16   12      0.48     -2.66
   12   16   13      3.89      1.57
   12   16   14      2.29      6.49
   12   16   15     -2.80     -6.25
   12   16   16      1.02     -9.32
   12   16   17      0.59      0.87
   13   16    0      0.54     -2.58
   13   16    1      6.97      1.86
   13   16    2      0.98     -4.53
   13   16    3     -2.82     -2.88
   13   16    4     -5.84     -0.93
   13   16    5     -1.66      2.57
   13   16    6     -2.93     -1.63
   13   16    7      1.62     -2.31
   13   16    8      3.25      2.27
   13   16    9     -1.97      2.32
   13   16   10     -5.19     -4.69
   13   16   11      1.57      0.52
   13   16   12     -2.02      7.99
   13   16   13      1.28      2.92
   13   16   14      5.53      4.95
   13   16   15     -1.55     -4.60
   13   16   16     -1.76     -1.46
   14   16    0      5.90     -1.52
   14   16    1     -5.04      3.26
   14   16    2     -0.13     -5.94
   14   16    3      1.03     -1.65
   14   16    4     -5.09     -4.04
   14   16    5      8.12     -2.69
   14   16    6     -1.32      8.29
   14   16    7     -5.96      0.77
   14   16    8     -3.34     -4.26
   14   16    9     -2.91      1.34
   14   16   10      0.98      1.10
   14   16   11      2.83      0.55
   14   16   12     -2.39      1.79
   14   16   13     -3.44     -1.77
   14   16   14      0.42      1.36
   14   16   15      1.75      1.90
   15   16    0      6.01      2.14
   15   16    1    -12.14      0.11
   15   16    2     -3.66      0.14
   15   16    3      2.10      6.08
   15   16    4      1.53     -1.49
   15   16    5      2.33     -6.56
   15   16    6      0.91      5.46
   15   16    7      2.51     -0.46
   15   16    8      0.13     -2.83
   15   16    9     -4.03      2.05
   15   16   10     -1.20      2.52
   15   16   11      2.46     -2.14
   15   16   12     -1.31     -5.70
   15   16   13     -1.92      1.23
   15   16   14     -1.76      0.10
   16   16    0     -1.73      6.22
   16   16    1     -6.65     -1.97
   16   16    2      2.21      3.09
   16   16    3      0.30      2.39
   16   16    4     -1.34      0.26
   16   16    5     -4.40     -0.44
   16   16    6      2.67      0.60
   16   16    7      5.73     -0.94
   16   16    8      2.45     -1.58
   16   16    9      0.23     -0.04
   16   16   10      0.08      0.80
   16   16   11      3.38     -0.27
   16   16   12     -2.26     -2.54
   16   16   13     -3.15      0.91
   17   16    0      3.89      2.12
   17   16    1      3.79      0.46
   17   16    2     -2.44     -2.49
   17   16    3      0.59    -10.07
   17   16    4      3.77      1.94
   17   16    5      0.73      6.06
   17   16    6     -2.86      0.58
   17   16    7     -1.33      0.08
   17   16    8      2.62     -0.69
   17   16    9      0.52     -1.42
   17   16   10      2.10      2.13
   17   16   11      2.06      0.57
   17   16   12     -0.22      0.85
   18   16    0      8.43      0.05
   18   16    1     14.83     -1.72
   18   16    2     -9.43     -1.86
   18   16    3     -2.87     -3.25
   18   16    4     11.55     -2.93
   18   16    5      5.26     -1.60
   18   16    6     -4.26      3.27
   18   16    7     -5.15      3.96
   18   16    8     -1.53      0.28
   18   16    9      0.03     -3.01
   18   16   10      1.96      2.76
   18   16   11     -2.30      0.67
   19   16    0     -4.01     -0.07
   19   16    1      7.31     -0.02
   19   16    2     -1.22      3.49
   19   16    3     -2.48     -0.28
   19   16    4      8.32     -5.56
   19   16    5     -3.88      0.22
   19   16    6     -4.56      2.28
   19   16    7      3.67     -0.77
   19   16    8      0.46     -0.29
   19   16    9     -2.84     -0.47
   20   16    0     -5.78      0.88
   20   16    1     -7.97      1.82
   20   16    2      1.56     -1.53
   20   16    3      1.54     -0.62
   20   16    4      2.00      0.90
   20   16    5     -3.28      1.74
   20   16    6     -1.76      0.70
   20   16    7      2.83     -3.63
   21   16    0     -6.70      0.33
   21   16    1     -5.74     -0.33
   21   16    2      1.69     -1.62
   21   16    3      5.48      2.83
    0   17    0    -16.67      1.09
    0   17    1     -1.46     -2.51
    0   17    2     10.44     -0.46
    0   17    3     -5.16      1.70
    0   17    4     -4.82     -0.89
    0   17    5     -1.27      1.14
    0   17    6      6.20      1.40
    0   17    7     -5.90     -0.26
    0   17    8     -5.27     -0.26
    0   17    9      3.69     -0.42
    0   17   10      1.23      0.39
    0   17   11     -7.34     -0.01
    0   17   12      3.26     -0.74
    0   17   13      1.34     -1.14
    0   17   14     -3.78     -0.25
    0   17   15      3.44     -0.03
    0   17   16      4.73     -0.50
    0   17   17     -2.65      2.64
    0   17   18     -2.19     -0.22
    0   17   19     -1.47     -4.64
    0   17   20     -5.43      0.08
    1   17    0     16.40      0.97
    1   17    1    -16.57    -12.25
    1   17    2     -6.86      2.59
    1   17    3      4.75      1.70
    1   17    4      0.48      8.84
    1   17    5     -5.72     11.57
    1   17    6      3.83     11.75
    1   17    7     -4.72     -8.85
    1   17    8     -4.37    -13.84
    1   17    9      4.56      2.74
    1   17   10     -0.34      3.56
    1   17   11     -8.04      1.22
    1   17   12      0.31      2.18
    1   17   13      7.05      2.83
    1   17   14      0.22     -0.03
    1   17   15     -1.59     -0.92
    1   17   16     -0.23     -5.60
    1   17   17     -1.41     -1.69
    1   17   18      1.71      6.00
    1   17   19      0.91      0.32
    1   17   20     -1.96      2.65
    2   17    0      4.91      0.44
    2   17    1      3.93    -21.23
    2   17    2     14.21     15.18
    2   17    3     -7.31      0.22
    2   17    4    -18.68     10.32
    2   17    5     -0.26      1.29
    2   17    6     13.06     -0.69
    2   17    7     -5.47      4.28
    2   17    8     -8.97      0.60
    2   17    9      3.38    -10.67
    2   17   10     -0.83     -8.28
    2   17   11     -2.27      7.62
    2   17   12      1.51      6.77
    2   17   13      7.59      0.99
    2   17   14      0.73     -4.62
    2   17   15     -3.45      3.90
    2   17   16     -1.29      5.26
    2   17   17      0.03      1.46
    2   17   18     -0.06     -1.86
    2   17   19      1.73     -2.27
    2   17   20      4.84      4.43
    3   17    0     -3.18     -0.36
    3   17    1     -5.22    -15.28
    3   17    2      7.37      6.57
    3   17    3      8.51     -9.80
    3   17    4      8.30      2.53
    3   17    5     -8.49      0.16
    3   17    6    -11.53      3.02
    3   17    7      0.52     -1.48
    3   17    8      2.04     -3.68
    3   17    9      0.30      0.12
    3   17   10     -5.29      2.11
    3   17   11      3.23     -6.72
    3   17   12      4.07     -2.02
    3   17   13      0.05      9.69
    3   17   14      3.38     -0.53
    3   17   15      1.60     -0.47
    3   17   16     -2.50      2.70
    3   17   17      1.22      2.31
    3   17   18     -5.77     -2.67
    3   17   19     -1.73      0.52
    3   17   20      9.76     -1.19
    4   17    0    -18.86     -0.60
    4   17    1      2.92     -5.92
    4   17    2     13.58    -16.11
    4   17    3     -2.00     -5.81
    4   17    4      1.16     -2.23
    4   17    5      6.82     -2.45
    4   17    6      4.73      8.24
    4   17    7     -8.23      1.81
    4   17    8    -13.63      0.69
    4   17    9      6.29     -2.17
    4   17   10      2.41      0.52
    4   17   11     -4.01     -4.28
    4   17   12      2.87      2.43
    4   17   13     -0.07      4.06
    4   17   14     -2.38     -8.45
    4   17   15      4.00      0.19
    4   17   16     -1.52      4.14
    4   17   17     -0.04     -5.61
    4   17   18     -0.22     -6.31
    4   17   19     -0.70      5.47
    4   17   20      1.94      2.36
    5   17    0      4.67     -0.80
    5   17    1     -3.62     -2.90
    5   17    2     -7.35    -11.81
    5   17    3      5.66      5.92
    5   17    4     -1.24     -5.65
    5   17    5      1.26     -3.93
    5   17    6      8.82      2.87
    5   17    7     -3.01      7.78
    5   17    8     -7.63     13.29
    5   17    9     -2.07    -10.98
    5   17   10      1.01     -7.50
    5   17   11     -1.37      4.59
    5   17   12     -1.19     -2.03
    5   17   13     -0.28     -3.10
    5   17   14      0.22     -3.20
    5   17   15      4.39      0.63
    5   17   16     -5.40      2.55
    5   17   17     -1.90     -3.87
    5   17   18      8.40     -2.39
    5   17   19      0.10      1.52
    5   17   20     -4.52      2.00
    6   17    0      2.85     -0.20
    6   17    1      7.19      1.22
    6   17    2     -6.86      2.18
    6   17    3     -0.95      3.53
    6   17    4     -1.99     -2.03
    6   17    5      2.18      4.53
    6   17    6      0.50      0.07
    6   17    7     -3.36     -9.63
    6   17    8      6.12      2.66
    6   17    9     -2.78      8.63
    6   17   10     -1.62     -3.38
    6   17   11      4.49     -7.02
    6   17   12     -0.22     -4.40
    6   17   13     -4.41      3.64
    6   17   14      4.67      3.59
    6   17   15      4.21     -5.58
    6   17   16     -2.26     -0.17
    6   17   17     -3.04      5.06
    6   17   18      2.38      2.06
    6   17   19      0.53     -1.33
    7   17    0      6.46     -0.09
    7   17    1     -0.18      4.13
    7   17    2    -10.44      0.02
    7   17    3     -5.91      3.21
    7   17    4     15.62      5.54
    7   17    5      0.63     -7.79
    7   17    6    -12.80     -2.99
    7   17    7      0.62      4.68
    7   17    8     11.79     -8.29
    7   17    9      7.36      1.31
    7   17   10     -1.99      2.18
    7   17   11     -1.80      0.35
    7   17   12      1.23      4.23
    7   17   13      1.07      0.40
    7   17   14      4.67     -1.54
    7   17   15     -6.19     -3.84
    7   17   16      1.39      2.02
    7   17   17      2.79      5.02
    7   17   18     -2.43     -4.85
    7   17   19      0.86     -0.12
    8   17    0     -9.85      0.49
    8   17    1     -4.54      5.26
    8   17    2      6.70     -2.58
    8   17    3     -6.65     -6.39
    8   17    4      0.77      4.38
    8   17    5      3.89      4.08
    8   17    6      2.01     -9.47
    8   17    7      0.49      3.04
    8   17    8      0.44      4.98
    8   17    9      5.98     -2.11
    8   17   10      0.94     -0.82
    8   17   11      0.92      1.10
    8   17   12     -1.34      2.20
    8   17   13     -0.98      2.85
    8   17   14      0.19      3.51
    8   17   15     -4.76     -0.84
    8   17   16      4.62     -5.99
    8   17   17      2.63      2.06
    8   17   18     -4.15      0.07
    8   17   19      2.28     -3.19
    9   17    0      7.82     -0.46
    9   17    1     -9.18      0.03
    9   17    2     -8.56      6.31
    9   17    3      8.82     -0.21
    9   17    4     -0.45     -5.60
    9   17    5      5.49     10.10
    9   17    6     -0.02      1.44
    9   17    7    -10.74     -7.44
    9   17    8     -1.46      4.62
    9   17    9      2.66     -0.76
    9   17   10      0.04      0.44
    9   17   11     -0.17     -2.27
    9   17   12     -0.72     -2.17
    9   17   13      0.50      3.10
    9   17   14     -1.56      4.49
    9   17   15      0.98      1.65
    9   17   16      0.90     -4.10
    9   17   17      0.92     -0.62
    9   17   18     -0.29     -0.61
   10   17    0      3.76     -0.63
   10   17    1      2.76     -2.60
   10   17    2     -2.01      3.92
   10   17    3      4.97      9.54
   10   17    4     -9.27     -0.50
   10   17    5      2.27      1.11
   10   17    6      0.92      7.09
   10   17    7     -8.83     -5.91
   10   17    8     -8.43     -1.68
   10   17    9     -2.46     -1.33
   10   17   10      7.33     -0.97
   10   17   11     -0.87     -2.60
   10   17   12     -1.19      1.48
   10   17   13      1.07     -0.78
   10   17   14     -5.45      1.62
   10   17   15      4.92     -1.43
   10   17   16      1.42     -2.63
   10   17   17     -3.11      2.08
   10   17   18      0.27     -1.80
   11   17    0      5.70     -0.50
   11   17    1      8.33     -1.21
   11   17    2     -2.23     -5.81
   11   17    3     -6.48      8.30
   11   17    4     -3.60      4.26
   11   17    5     -2.69     -2.16
   11   17    6     -6.97      3.42
   11   17    7      0.70      0.03
   11   17    8      5.19     -2.88
   11   17    9     -2.54     -1.75
   11   17   10     -3.76      1.71
   11   17   11      2.11      0.02
   11   17   12      4.33     -3.06
   11   17   13     -0.15     -2.39
   11   17   14     -8.71      2.36
   11   17   15      3.60     -2.13
   11   17   16      2.68     -1.10
   11   17   17     -4.15     -0.27
   12   17    0     -7.17     -0.38
   12   17    1     -1.72      0.09
   12   17    2     11.54     -6.22
   12   17    3     -0.86      0.25
   12   17    4    -17.51     -1.01
   12   17    5      2.03      2.54
   12   17    6      9.32     -2.79
   12   17    7     -4.96      0.95
   12   17    8     -1.15      4.47
   12   17    9      6.51     -2.27
   12   17   10     -3.50     -2.89
   12   17   11     -0.09      2.78
   12   17   12      1.28     -0.03
   12   17   13      3.20      0.35
   12   17   14      1.05     -1.97
   12   17   15     -1.41     -1.48
   12   17   16     -2.83      4.57
   13   17    0      6.86     -0.16
   13   17    1     -3.78     -0.44
   13   17    2     -1.39     -0.68
   13   17    3      5.64     -5.12
   13   17    4     -3.60     -1.07
   13   17    5      4.59      3.78
   13   17    6      3.29     -3.46
   13   17    7     -2.28      1.07
   13   17    8     -2.71      2.16
   13   17    9     -0.86     -0.07
   13   17   10     -0.44      0.41
   13   17   11      4.54      0.65
   13   17   12      2.65     -2.07
   13   17   13     -3.17     -0.28
   13   17   14      3.51      4.68
   13   17   15      4.74      0.95
   13   17   16     -1.77     -2.17
   14   17    0     -2.72      0.41
   14   17    1     14.70     -6.06
   14   17    2      2.32      3.00
   14   17    3    -11.91      7.15
   14   17    4      1.51      3.58
   14   17    5     10.16     -5.53
   14   17    6     -0.24     -2.65
   14   17    7     -1.13      3.68
   14   17    8      1.37      2.83
   14   17    9     -3.72      1.84
   14   17   10      3.47     -3.17
   14   17   11     -2.23     -1.62
   14   17   12      1.78      2.06
   14   17   13      1.75     -2.59
   14   17   14      0.98      2.00
   14   17   15     -0.94      2.83
   15   17    0     -8.97      0.80
   15   17    1     -5.94     -6.91
   15   17    2      3.46      2.31
   15   17    3      3.37     19.35
   15   17    4     -1.98     -1.47
   15   17    5     -8.57    -10.49
   15   17    6      3.26      4.14
   15   17    7      9.66      0.15
   15   17    8      6.12     -2.43
   15   17    9     -8.92      1.60
   15   17   10     -0.40      1.22
   15   17   11      0.94     -0.54
   15   17   12      3.74     -0.69
   15   17   13     -2.74      0.09
   15   17   14     -2.44     -0.59
   16   17    0      0.96      0.37
   16   17    1     -8.79      2.80
   16   17    2     -2.86     -2.84
   16   17    3      6.82      3.46
   16   17    4     -0.85     -1.25
   16   17    5     -6.74     -1.84
   16   17    6      2.06     -1.34
   16   17    7      2.97     -1.51
   16   17    8      0.72      2.69
   16   17    9      0.45     -2.82
   16   17   10      1.11     -1.21
   16   17   11      0.60      1.86
   16   17   12     -0.83      1.96
   16   17   13     -4.52      1.22
   17   17    0      2.86     -0.28
   17   17    1     -1.67      3.28
   17   17    2     -0.50     -0.47
   17   17    3      2.13     -5.76
   17   17    4      1.53      1.96
   17   17    5     -1.16     -2.31
   17   17    6     -2.40     -5.13
   17   17    7      0.50      3.74
   17   17    8     -0.92      6.73
   17   17    9      2.75     -1.00
   17   17   10     -1.01     -3.43
   17   17   11     -0.25     -3.49
   17   17   12     -0.84      2.29
   18   17    0     -2.87      0.00
   18   17    1      6.21     -1.29
   18   17    2      4.93      4.39
   18   17    3     -6.11     -0.37
   18   17    4     -1.12      3.23
   18   17    5      2.65     -3.03
   18   17    6      0.76     -2.19
   18   17    7      1.59      2.10
   18   17    8     -2.53      4.34
   18   17    9     -3.35      1.80
   18   17   10      0.40     -2.12
   19   17    0      6.36      0.32
   19   17    1      2.55      1.03
   19   17    2     -3.31      7.36
   19   17    3     -2.62      1.44
   19   17    4      1.17     -5.33
   19   17    5     -0.49      0.52
   19   17    6     -2.07      9.30
   19   17    7      2.03     -1.50
   19   17    8     -0.64     -6.47
   20   17    0      2.61      0.26
   20   17    1      2.57      3.89
   20   17    2     -0.45     -1.80
   20   17    3      0.67      1.63
   20   17    4     -3.95      3.88
   20   17    5     -2.85     -3.40
   20   17    6     -2.37     -0.89
    0   18    0     -0.76      9.47
    0   18    1     -6.18     -2.82
    0   18    2    -16.85     -1.95
    0   18    3     11.03      2.73
    0   18    4      5.81      0.15
    0   18    5     -3.29     -1.81
    0   18    6     -0.95      0.28
    0   18    7     23.77      0.99
    0   18    8     -5.37     -0.11
    0   18    9     -8.78     -0.29
    0   18   10     -4.77     -2.22
    0   18   11      0.31     -0.58
    0   18   12     10.16      0.74
    0   18   13      3.36     -0.32
    0   18   14     -0.80     -0.08
    0   18   15      4.12      0.06
    0   18   16      1.88     -0.35
    0   18   17      4.24     -0.14
    0   18   18     -3.82      0.05
    0   18   19      3.00     -0.42
    0   18   20     -0.04      0.08
    1   18    0    -13.35      8.95
    1   18    1      4.85      5.35
    1   18    2      1.86      0.54
    1   18    3     -3.95      3.05
    1   18    4    -11.74     -2.29
    1   18    5      9.70    -15.68
    1   18    6      5.44      2.57
    1   18    7      9.10     24.85
    1   18    8     -6.85     -6.73
    1   18    9     -2.60     -5.41
    1   18   10     -1.30     -2.83
    1   18   11      3.65      8.76
    1   18   12      3.45      5.38
    1   18   13     -3.91     -2.42
    1   18   14      6.23     -4.75
    1   18   15      7.49     -2.49
    1   18   16     -4.86      3.27
    1   18   17     -5.12     -8.97
    1   18   18      1.62     -0.02
    1   18   19      3.12      7.47
    1   18   20      0.45      2.30
    2   18    0      8.59      0.93
    2   18    1      4.19      2.25
    2   18    2    -13.27      6.73
    2   18    3      2.80     -1.44
    2   18    4     -0.46     -5.11
    2   18    5     -1.47      2.34
    2   18    6     -5.89      2.85
    2   18    7      3.11      7.27
    2   18    8      7.33     -7.21
    2   18    9      0.25      0.32
    2   18   10     -5.62     -2.68
    2   18   11     -0.25      4.71
    2   18   12      5.20      0.94
    2   18   13     -0.14      1.82
    2   18   14     -2.53     -0.10
    2   18   15     -1.61     -2.97
    2   18   16      1.75      0.35
    2   18   17     -4.32      2.15
    2   18   18      0.50     -1.21
    2   18   19     -1.02      1.50
    2   18   20      1.77      1.98
    3   18    0     -9.29     -3.30
    3   18    1      2.21      0.46
    3   18    2      3.42     -1.92
    3   18    3     14.41    -10.24
    3   18    4    -11.80     -0.93
    3   18    5    -13.66     16.79
    3   18    6     13.47      4.30
    3   18    7      0.09    -10.12
    3   18    8     -5.12      0.88
    3   18    9     -2.54      3.58
    3   18   10     15.25     -3.85
    3   18   11     -3.40     -1.46
    3   18   12    -11.47      1.09
    3   18   13      2.10     -0.79
    3   18   14     -0.43      2.95
    3   18   15     -1.04      3.86
    3   18   16      0.24     -7.10
    3   18   17     -0.14      3.70
    3   18   18      0.99      3.09
    3   18   19     -0.67     -0.26
    3   18   20     -1.74      0.88
    4   18    0      6.05     -1.48
    4   18    1      7.07     -2.20
    4   18    2     -3.99     -5.32
    4   18    3     -1.09     -5.59
    4   18    4      0.60     -5.95
    4   18    5      3.68      2.61
    4   18    6      0.69     10.64
    4   18    7     -9.20      3.11
    4   18    8      4.98      4.78
    4   18    9     -3.77      0.27
    4   18   10      7.57      2.72
    4   18   11      1.01     -9.07
    4   18   12     -5.96     -2.23
    4   18   13      0.75      0.56
    4   18   14     -5.11      5.69
    4   18   15     -1.65      3.32
    4   18   16      3.32     -7.79
    4   18   17      1.57     -2.76
    4   18   18     -6.58      7.53
    4   18   19      1.56     -0.41
    5   18    0      0.92      1.26
    5   18    1      0.12     -7.99
    5   18    2      5.35      1.76
    5   18    3     -5.98      1.69
    5   18    4     -5.08     -4.33
    5   18    5      7.50     -2.07
    5   18    6     -3.75      1.83
    5   18    7     -5.52      6.62
    5   18    8      2.41      6.15
    5   18    9      3.12     -4.94
    5   18   10     -2.67      2.22
    5   18   11     -1.97     -1.34
    5   18   12      4.20     -4.42
    5   18   13      1.32     -4.63
    5   18   14     -4.18      2.49
    5   18   15     -5.16      6.92
    5   18   16      1.44      5.62
    5   18   17     -0.25     -6.16
    5   18   18     -2.58     -0.15
    5   18   19      2.28      0.88
    6   18    0      9.35      0.54
    6   18    1      4.69     -8.25
    6   18    2    -13.33      4.31
    6   18    3     -2.73      2.90
    6   18    4     10.27      4.85
    6   18    5      1.75     -1.43
    6   18    6     -8.12     -5.85
    6   18    7      5.93     -4.70
    6   18    8     -7.77     -2.92
    6   18    9      2.75     -4.33
    6   18   10      4.14     -0.07
    6   18   11     -4.80      7.84
    6   18   12     -0.34     -5.56
    6   18   13      0.72     -0.88
    6   18   14      0.24      2.39
    6   18   15     -0.25     -1.76
    6   18   16      3.85      6.55
    6   18   17     -2.54      5.43
    6   18   18     -2.25     -6.49
    6   18   19      2.53     -1.09
    7   18    0     -1.93      0.73
    7   18    1     -4.76      0.53
    7   18    2     -7.10     -4.54
    7   18    3      6.81     -6.41
    7   18    4      5.54      6.15
    7   18    5      1.41     -3.72
    7   18    6      2.58     -5.54
    7   18    7      8.18     -4.42
    7   18    8    -12.64     -4.58
    7   18    9     -5.33     -1.94
    7   18   10      9.29     -4.82
    7   18   11      0.33     10.75
    7   18   12     -6.78      1.93
    7   18   13      2.95     -2.38
    7   18   14      4.74     -0.04
    7   18   15     -2.10      1.23
    7   18   16     -1.14     -2.66
    7   18   17      6.11     -1.11
    7   18   18      2.45      1.73
    7   18   19     -5.32      4.37
    8   18    0      8.20      0.63
    8   18    1      3.45      1.02
    8   18    2     -6.71     -7.67
    8   18    3     -2.98     -6.72
    8   18    4      6.11     -3.43
    8   18    5      8.23     -3.36
    8   18    6      1.14      0.40
    8   18    7     -5.90      1.56
    8   18    8     -0.48     -3.89
    8   18    9      0.76      5.11
    8   18   10     -3.59      5.79
    8   18   11      3.01     -1.98
    8   18   12      2.44     -7.01
    8   18   13     -2.46      3.45
    8   18   14     -1.11      4.69
    8   18   15      2.73      0.70
    8   18   16      0.34     -3.20
    8   18   17      0.24     -4.05
    8   18   18     -0.34      5.10
    9   18    0      1.21     -0.95
    9   18    1      9.25     -1.43
    9   18    2      2.20     -1.16
    9   18    3     -2.96      0.20
    9   18    4      3.21     -2.87
    9   18    5     -1.60      2.37
    9   18    6     -1.26     -1.20
    9   18    7     -6.19     -3.61
    9   18    8     -0.28      5.98
    9   18    9      1.68      6.81
    9   18   10      0.38      0.89
    9   18   11      2.18     -4.22
    9   18   12     -1.05     -1.71
    9   18   13     -3.70      2.77
    9   18   14      3.28     -2.73
    9   18   15      1.61      0.72
    9   18   16     -1.60      6.36
    9   18   17     -1.49     -0.94
    9   18   18     -0.84     -2.14
   10   18    0     -7.88     -1.29
   10   18    1     -3.71      2.33
   10   18    2      7.54      1.72
   10   18    3      0.56      5.14
   10   18    4     -3.83      3.02
   10   18    5     -0.04     -0.47
   10   18    6     -4.59      1.10
   10   18    7     -6.44     -1.79
   10   18    8      1.86      2.57
   10   18    9     -0.34     -1.38
   10   18   10      2.05     -0.29
   10   18   11      0.71      3.61
   10   18   12      0.89      2.25
   10   18   13      1.08     -1.31
   10   18   14      1.46     -1.67
   10   18   15     -1.81      1.56
   10   18   16     -1.30      0.14
   10   18   17      1.18     -0.71
   11   18    0     -2.28      1.22
   11   18    1    -13.70      6.72
   11   18    2      3.96     -4.73
   11   18    3      0.06     -3.81
   11   18    4    -11.27      3.86
   11   18    5     -0.14      6.30
   11   18    6      0.56      2.10
   11   18    7      1.99      1.01
   11   18    8     -0.95     -1.58
   11   18    9     -6.90     -4.48
   11   18   10      4.29     -1.45
   11   18   11      5.98      5.35
   11   18   12     -2.17      4.96
   11   18   13     -1.30     -2.51
   11   18   14      3.49     -2.93
   11   18   15     -0.50      1.18
   11   18   16     -4.04      1.23
   11   18   17      2.39     -1.37
   12   18    0      7.43      2.80
   12   18    1      7.24     -0.76
   12   18    2     -8.21     -4.47
   12   18    3     -7.44      1.12
   12   18    4      4.27      0.32
   12   18    5      2.40      1.46
   12   18    6     -2.81      0.75
   12   18    7      0.99      4.34
   12   18    8     -0.14     -1.93
   12   18    9      0.19     -2.67
   12   18   10     -0.62      2.33
   12   18   11     -1.70     -1.13
   12   18   12     -1.78     -5.23
   12   18   13      0.47     -0.66
   12   18   14      0.80      4.66
   12   18   15      0.34      0.25
   12   18   16      0.76     -2.47
   13   18    0     -0.78      2.65
   13   18    1      6.35     -2.17
   13   18    2     -4.70      2.39
   13   18    3      4.53      3.40
   13   18    4     14.38      5.16
   13   18    5     -2.28     -3.89
   13   18    6     -2.85     -5.72
   13   18    7      1.77     -0.55
   13   18    8     -1.25      2.28
   13   18    9      0.86      2.41
   13   18   10      1.75     -0.03
   13   18   11     -3.33     -9.66
   13   18   12     -8.58     -0.92
   13   18   13      1.27      3.29
   13   18   14      6.93     -1.18
   13   18   15      1.07     -0.98
   14   18    0     -3.03      1.31
   14   18    1     -0.73      2.50
   14   18    2      2.34      9.39
   14   18    3      1.00     -0.40
   14   18    4      3.92      2.03
   14   18    5      1.26     -3.16
   14   18    6      5.14     -0.34
   14   18    7     -3.66      0.36
   14   18    8     -1.24     -4.37
   14   18    9      3.16     -1.37
   14   18   10      4.19      3.36
   14   18   11     -0.43     -1.93
   14   18   12     -5.27      1.06
   14   18   13      0.68     -1.50
   14   18   14      4.04     -2.11
   15   18    0      0.43     -2.30
   15   18    1     -2.00      0.59
   15   18    2      1.60      4.74
   15   18    3     -2.72      0.84
   15   18    4     -2.87     -0.29
   15   18    5     -1.77      0.72
   15   18    6      2.04     -2.25
   15   18    7     -3.27      1.40
   15   18    8      1.34      0.94
   15   18    9      1.32      0.14
   15   18   10      4.84     -1.05
   15   18   11      1.22      3.97
   15   18   12     -1.51     -0.99
   15   18   13      0.33     -2.39
   16   18    0      4.60     -3.38
   16   18    1      2.85     -3.19
   16   18    2     -3.11      0.58
   16   18    3      1.65      2.34
   16   18    4     -4.08     -6.34
   16   18    5      0.46      0.89
   16   18    6      0.11     -0.47
   16   18    7     -5.73      3.08
   16   18    8     -1.45      2.95
   16   18    9      2.15      0.06
   16   18   10      0.55     -0.88
   16   18   11     -2.37      3.46
   16   18   12      0.73     -3.93
   17   18    0     -0.82     -3.11
   17   18    1      1.81      1.09
   17   18    2     -0.59     -2.55
   17   18    3      2.70     -4.02
   17   18    4     -7.82     -1.93
   17   18    5      1.78      4.62
   17   18    6      5.86     -3.19
   17   18    7     -0.79     -0.26
   17   18    8     -4.00      4.33
   17   18    9      0.85     -2.72
   17   18   10     -2.61     -0.39
   17   18   11     -1.74      3.07
   18   18    0     -1.81     -0.35
   18   18    1     -1.88     -0.87
   18   18    2     -3.57      0.44
   18   18    3     -5.15      6.90
   18   18    4      2.35     -1.65
   18   18    5      3.79     -3.56
   18   18    6     -3.13      0.34
   18   18    7     -0.28     -0.57
   18   18    8      3.25      0.93
   18   18    9      4.50     -2.02
   19   18    0     -3.63      0.42
   19   18    1     -9.64     -1.46
   19   18    2      3.58      4.31
   19   18    3      2.00      6.73
   19   18    4      0.21     -3.07
   19   18    5     -2.17     -1.38
   19   18    6     -5.41      1.63
   19   18    7      1.94     -2.02
   20   18    0      6.88      0.57
   20   18    1     -3.64      1.08
   20   18    2      2.67      1.02
   20   18    3      2.07     -1.78
   20   18    4     -5.24      1.21
    0   19    0    -16.30     -2.22
    0   19    1      3.67      0.08
    0   19    2     14.73      1.56
    0   19    3      0.74      0.36
    0   19    4     -6.46      0.10
    0   19    5     18.34     -3.00
    0   19    6     -2.65     -0.04
    0   19    7    -12.68      0.18
    0   19    8      1.69     -1.94
    0   19    9      0.20      0.78
    0   19   10     13.19      3.47
    0   19   11      4.68      1.11
    0   19   12     -5.51     -1.65
    0   19   13      0.66     -0.62
    0   19   14     -4.19      0.25
    0   19   15     -6.54     -0.73
    0   19   16      2.81      0.28
    0   19   17     11.42      0.82
    0   19   18     -3.68      0.30
    0   19   19      0.49      0.85
    1   19    0     -4.41     -1.74
    1   19    1     -1.94     12.56
    1   19    2     -0.62    -11.93
    1   19    3      7.83     -1.27
    1   19    4      1.55     -6.64
    1   19    5      3.23      5.29
    1   19    6     -6.20      0.38
    1   19    7     -2.66     -2.99
    1   19    8      3.29      4.53
    1   19    9      3.48     -2.47
    1   19   10      8.13      3.20
    1   19   11      0.39     -2.32
    1   19   12     -4.29     -0.80
    1   19   13      0.80     -0.93
    1   19   14     -1.08      0.81
    1   19   15     -5.07      0.49
    1   19   16      0.97      3.80
    1   19   17      1.08     -1.47
    1   19   18     -1.23     -0.15
    1   19   19      2.84     -1.93
    2   19    0    -18.39     -0.42
    2   19    1     15.60      3.96
    2   19    2      7.75     -8.88
    2   19    3     -4.39     13.62
    2   19    4    -10.57    -12.29
    2   19    5     -1.98      5.84
    2   19    6      7.64     -9.87
    2   19    7      6.32     -4.60
    2   19    8     -3.46     19.55
    2   19    9      4.85     -5.81
    2   19   10      0.49     -8.69
    2   19   11     -2.23      5.82
    2   19   12     -3.13      2.91
    2   19   13     -4.42     -5.95
    2   19   14      1.50     -6.38
    2   19   15      4.24      0.23
    2   19   16      1.08      7.07
    2   19   17    -12.65      3.17
    2   19   18      0.89     -3.45
    2   19   19      5.02     -1.67
    3   19    0     -8.25      0.69
    3   19    1      0.33     -0.26
    3   19    2     -3.27      0.02
    3   19    3      4.21     15.21
    3   19    4      3.60     -7.02
    3   19    5     -2.84      2.11
    3   19    6     -3.00     -3.40
    3   19    7      9.44     -6.36
    3   19    8     11.73      0.13
    3   19    9     -1.02      4.70
    3   19   10     -9.54      4.56
    3   19   11     -2.08      2.03
    3   19   12     -7.08     -7.22
    3   19   13     -3.09     -2.06
    3   19   14     10.47      4.23
    3   19   15      4.08     -0.15
    3   19   16     -5.92     -5.56
    3   19   17     -1.47      1.72
    3   19   18      2.00      3.59
    3   19   19     -1.49      1.58
    4   19    0     -4.10      1.24
    4   19    1     -7.16     11.53
    4   19    2      2.43      5.48
    4   19    3      0.36     -4.94
    4   19    4     -0.37      4.83
    4   19    5      7.87     -0.67
    4   19    6     -0.56     -0.17
    4   19    7     -0.75      2.83
    4   19    8     10.43     -9.83
    4   19    9      1.79      1.52
    4   19   10     -4.53      1.92
    4   19   11     -3.85      5.45
    4   19   12     -1.91      5.85
    4   19   13      2.08     -2.93
    4   19   14      5.00     -2.58
    4   19   15     -1.59      1.36
    4   19   16     -4.93      5.34
    4   19   17      5.47     -1.53
    4   19   18      1.04     -2.70
    4   19   19     -2.85     -1.95
    5   19    0      7.52      1.10
    5   19    1    -13.18     10.90
    5   19    2     -2.66      8.37
    5   19    3      5.87     -6.51
    5   19    4      6.82      1.07
    5   19    5     -6.17     -7.83
    5   19    6     -4.93     -2.82
    5   19    7      3.27     12.65
    5   19    8      2.63     -4.01
    5   19    9      2.11     -6.24
    5   19   10     -0.42     -2.41
    5   19   11     -2.79      8.47
    5   19   12      6.53      4.85
    5   19   13      0.48     -2.12
    5   19   14     -3.70      2.12
    5   19   15     -3.54     -1.81
    5   19   16     -0.32      3.73
    5   19   17      3.78      2.17
    5   19   18      2.53     -0.90
    5   19   19     -4.05     -4.64
    6   19    0     -4.69      0.59
    6   19    1      6.51      1.41
    6   19    2      4.67      0.44
    6   19    3     -4.30     -3.04
    6   19    4     -0.56     -1.42
    6   19    5     -2.30     -2.31
    6   19    6      2.49     -2.65
    6   19    7     -3.41      0.57
    6   19    8     -8.95     -3.40
    6   19    9      2.79      7.04
    6   19   10      1.22      2.90
    6   19   11     -3.32     -6.61
    6   19   12      4.79     -1.96
    6   19   13     -1.48      5.92
    6   19   14     -6.95      6.06
    6   19   15      2.16     -3.63
    6   19   16      6.88     -7.81
    6   19   17      0.12      2.75
    6   19   18     -1.90      3.12
    7   19    0      4.02     -0.54
    7   19    1      7.10     -1.35
    7   19    2     -3.95     -4.81
    7   19    3     -1.91      0.38
    7   19    4     -5.84      3.33
    7   19    5      0.42     -7.39
    7   19    6      1.45     -1.18
    7   19    7     -1.99      4.71
    7   19    8     -3.16      0.86
    7   19    9     -3.04     -0.22
    7   19   10     -0.37      3.35
    7   19   11     -3.65     -3.10
    7   19   12     -3.05      0.32
    7   19   13      6.19     -1.03
    7   19   14     -0.35     -2.68
    7   19   15     -3.22      2.30
    7   19   16      3.82      0.09
    7   19   17      4.81     -2.18
    7   19   18     -5.25     -5.30
    8   19    0      0.47     -0.28
    8   19    1      0.96      1.50
    8   19    2      5.11     -0.20
    8   19    3      1.63     -5.78
    8   19    4    -16.11      1.87
    8   19    5     -5.79      2.86
    8   19    6      6.29      1.66
    8   19    7      6.90     -3.19
    8   19    8     -1.36      8.32
    8   19    9     -4.50     -1.01
    8   19   10      2.63     -2.68
    8   19   11      0.94     -0.10
    8   19   12     -5.32     -2.70
    8   19   13      1.70     -3.43
    8   19   14      3.31     -1.86
    8   19   15     -3.50     -0.58
    8   19   16     -1.47      5.44
    8   19   17      1.34      0.74
    8   19   18     -3.20     -0.25
    9   19    0      8.40     -0.05
    9   19    1     -0.58     -3.17
    9   19    2     -3.15      4.93
    9   19    3     -2.71     -1.68
    9   19    4      6.81     -4.25
    9   19    5      0.55      3.98
    9   19    6     -0.40      6.84
    9   19    7     -0.43     -0.85
    9   19    8      1.37     -1.84
    9   19    9      6.49      0.10
    9   19   10     -0.69     -1.03
    9   19   11     -2.15     -2.48
    9   19   12      3.38     -2.10
    9   19   13     -0.98      2.29
    9   19   14     -2.96     -4.78
    9   19   15     -1.09     -3.09
    9   19   16      0.90      8.82
    9   19   17     -3.20      2.78
   10   19    0     -9.28      0.50
   10   19    1      3.98     -1.22
   10   19    2      6.76      4.05
   10   19    3     -6.71     -5.33
   10   19    4      9.50     -1.65
   10   19    5      7.04      1.39
   10   19    6      3.91     -3.31
   10   19    7      0.37      9.17
   10   19    8     -2.32     -5.01
   10   19    9      0.55     -2.60
   10   19   10      2.33      2.85
   10   19   11      0.75     -1.61
   10   19   12      1.38      2.77
   10   19   13     -0.74      5.16
   10   19   14     -1.04     -4.54
   10   19   15      3.14     -1.52
   10   19   16      2.64      2.31
   10   19   17     -5.28      1.89
   11   19    0     -0.03      0.47
   11   19    1      0.30      3.54
   11   19    2     -4.15      1.78
   11   19    3     -0.62     -7.88
   11   19    4     13.39     -1.64
   11   19    5     -2.01     -0.26
   11   19    6     -8.99     -6.44
   11   19    7     10.01      3.48
   11   19    8     11.37     -0.16
   11   19    9     -7.21      2.61
   11   19   10     -5.18      5.16
   11   19   11      3.12      3.57
   11   19   12      0.04     -0.86
   11   19   13     -2.21     -1.20
   11   19   14      2.79      1.72
   11   19   15      2.78      1.26
   11   19   16      1.45     -1.42
   12   19    0      1.14      0.24
   12   19    1     -7.17      2.33
   12   19    2     -0.84     -0.82
   12   19    3      5.73     -1.50
   12   19    4     -0.23     -0.55
   12   19    5     -3.65     -5.07
   12   19    6     -1.15     -1.35
   12   19    7      0.95     -6.41
   12   19    8      0.32      6.77
   12   19    9     -0.98      3.23
   12   19   10      2.61     -7.72
   12   19   11      0.49     12.87
   12   19   12     -6.76      2.92
   12   19   13     -3.38     -9.66
   12   19   14      4.18     -1.22
   12   19   15     -1.36      2.71
   13   19    0      3.56      0.22
   13   19    1     -0.70      0.17
   13   19    2     -1.35      1.58
   13   19    3      2.86      4.88
   13   19    4      0.12      0.62
   13   19    5      3.67     -9.29
   13   19    6      0.77      1.26
   13   19    7     -8.34     -4.99
   13   19    8     -5.63      2.19
   13   19    9     -2.48     -0.10
   13   19   10      2.70     -7.20
   13   19   11      6.27      5.40
   13   19   12     -2.12      0.74
   13   19   13     -5.30     -2.46
   13   19   14     -3.74     -0.02
   13   19   15      0.32      0.21
   14   19    0     -2.17      0.09
   14   19    1     10.91     -0.32
   14   19    2      0.56      0.87
   14   19    3     -6.94      0.56
   14   19    4      2.36      0.75
   14   19    5      3.37      0.81
   14   19    6     -1.54     -0.25
   14   19    7     -4.38     -0.82
   14   19    8     -0.58     -0.79
   14   19    9      1.99     -0.20
   14   19   10     -1.96      1.07
   14   19   11     -0.06     -7.91
   14   19   12     -0.34     -0.71
   14   19   13      2.88      5.24
   14   19   14     -1.56     -0.64
   15   19    0      5.86     -0.51
   15   19    1      0.54     -4.46
   15   19    2     -8.21     -3.06
   15   19    3     -2.85      0.17
   15   19    4      5.74      0.75
   15   19    5    -11.06      5.41
   15   19    6     -0.94      2.21
   15   19    7     13.39      1.42
   15   19    8      0.70     -0.85
   15   19    9     -1.73      3.85
   15   19   10     -3.76      4.37
   15   19   11     -0.92    -10.99
   15   19   12      0.91     -2.71
   15   19   13      2.18      5.78
   16   19    0      6.94     -0.24
   16   19    1      3.28      1.03
   16   19    2     -6.72     -0.96
   16   19    3     -9.59     -5.47
   16   19    4      4.05      2.67
   16   19    5      5.11      3.32
   16   19    6     -0.77     -2.55
   16   19    7      0.24      2.56
   16   19    8     -3.64      2.95
   16   19    9      2.23     -1.41
   16   19   10      0.93     -2.65
   16   19   11     -1.51      1.86
   17   19    0     -3.42      0.44
   17   19    1      0.32      4.51
   17   19    2      5.07      2.85
   17   19    3     -1.57     -1.49
   17   19    4     -1.89     -1.08
   17   19    5      8.62     -3.22
   17   19    6     -2.41     -3.38
   17   19    7     -7.77      2.53
   17   19    8     -1.98     -1.26
   17   19    9      3.43     -1.95
   17   19   10      1.03     -1.63
   18   19    0     -1.99      0.40
   18   19    1     -1.77     -0.48
   18   19    2      1.82     -1.28
   18   19    3      6.33      0.60
   18   19    4     -1.10     -2.83
   18   19    5     -2.36      3.19
   18   19    6      0.22     -0.76
   18   19    7     -1.00     -2.22
   18   19    8      0.37     -0.59
   19   19    0      7.17     -0.27
   19   19    1      4.97     -5.96
   19   19    2     -8.90      3.29
   19   19    3      1.94      0.06
   19   19    4      4.71    -10.38
   19   19    5     -2.63      5.29
   19   19    6      2.20      7.14
   20   19    0      1.44     -0.33
   20   19    1      5.05     -3.29
    0   20    0     14.83     -7.52
    0   20    1    -14.39     -1.46
    0   20    2     -9.05     -3.07
    0   20    3      0.12      5.35
    0   20    4     22.46      0.26
    0   20    5    -15.18     -4.53
    0   20    6     -9.48      2.71
    0   20    7      6.33      1.12
    0   20    8      1.24     -0.81
    0   20    9     -8.37     -0.30
    0   20   10      5.00     -1.07
    0   20   11     -3.10      0.42
    0   20   12     -4.97      2.39
    0   20   13      3.84     -0.49
    0   20   14     -2.82     -0.19
    0   20   15     -5.75      0.29
    0   20   16      1.82     -0.63
    0   20   17      6.83      0.48
    0   20   18      0.99      0.39
    0   20   19     -7.54     -0.36
    1   20    0    -15.46     -3.36
    1   20    1      9.48      5.27
    1   20    2     19.86     -3.60
    1   20    3    -16.75      2.80
    1   20    4     -5.33      7.63
    1   20    5      4.57     -6.11
    1   20    6      6.95     -4.45
    1   20    7     -6.71     -7.49
    1   20    8     -6.86      0.19
    1   20    9     -3.50      2.56
    1   20   10      7.82      0.50
    1   20   11      1.65      2.27
    1   20   12     -6.27      8.62
    1   20   13     -6.53     -6.30
    1   20   14      4.06      0.29
    1   20   15      4.14      7.38
    1   20   16     -1.52     -2.52
    1   20   17     -4.23     -5.17
    1   20   18      0.98      2.14
    1   20   19      2.59      1.47
    2   20    0      5.73     -0.57
    2   20    1      7.59     -2.26
    2   20    2     -2.09      5.65
    2   20    3     -7.92      0.51
    2   20    4      9.74     -2.01
    2   20    5      6.20      5.79
    2   20    6     -9.27     -4.09
    2   20    7     -5.49    -10.96
    2   20    8      6.22      4.36
    2   20    9      2.61      7.54
    2   20   10     -6.46      0.24
    2   20   11     -0.08     -7.25
    2   20   12      6.53      0.26
    2   20   13     -4.00      0.18
    2   20   14     -3.86      0.06
    2   20   15     -0.08      1.43
    2   20   16      4.19     -0.71
    2   20   17     -1.36      2.12
    2   20   18     -2.72      1.83
    2   20   19      5.24     -2.81
    3   20    0     -8.98      0.65
    3   20    1    -10.69     -2.21
    3   20    2     11.04      4.17
    3   20    3      8.44     -3.05
    3   20    4      0.19     -2.09
    3   20    5     -5.85      1.82
    3   20    6     -2.99     -6.08
    3   20    7      6.20      0.74
    3   20    8     -3.43      3.18
    3   20    9      0.05     -0.81
    3   20   10      1.60     -1.09
    3   20   11      3.36     -2.84
    3   20   12     -4.99     -1.28
    3   20   13     -0.65      2.25
    3   20   14      1.00     -1.69
    3   20   15      3.92     -0.35
    3   20   16      0.50      1.22
    3   20   17     -4.32      0.38
    3   20   18     -0.07     -1.87
    3   20   19      7.37     -2.83
    4   20    0      8.96      0.28
    4   20    1     -1.83      9.05
    4   20    2     -0.54     -1.16
    4   20    3     -2.00     -2.51
    4   20    4      0.01      2.07
    4   20    5      0.94    -14.46
    4   20    6     -2.67     -3.13
    4   20    7     -1.73      6.81
    4   20    8      2.80     -7.68
    4   20    9      0.31     -7.32
    4   20   10     -4.38      6.82
    4   20   11      4.03      8.74
    4   20   12     -3.67     -2.86
    4   20   13      7.24      1.52
    4   20   14      4.92      2.91
    4   20   15      0.72     -4.90
    4   20   16     -0.66     -0.31
    4   20   17     -3.62     -0.54
    4   20   18     -0.52     -5.24
    4   20   19      2.69     -2.43
    5   20    0      0.77     -0.52
    5   20    1     -0.74      7.99
    5   20    2      6.46     -4.55
    5   20    3      0.97      3.69
    5   20    4    -11.73      4.08
    5   20    5     -3.11     -7.83
    5   20    6     11.12     -1.39
    5   20    7     -5.05      0.60
    5   20    8     -0.20     -1.67
    5   20    9      2.16     -4.89
    5   20   10     -2.81      1.68
    5   20   11      1.67     14.09
    5   20   12      3.94     -0.28
    5   20   13      4.03     -8.32
    5   20   14      1.34     -0.38
    5   20   15     -2.01     -1.89
    5   20   16     -1.34      0.54
    5   20   17     -1.22      1.77
    5   20   18      2.41     -2.67
    6   20    0      6.48     -1.08
    6   20    1     -0.45     -2.79
    6   20    2     -7.10     -3.06
    6   20    3      0.90     11.19
    6   20    4     10.36      2.11
    6   20    5     -1.77      7.87
    6   20    6     -3.00      3.14
    6   20    7     -3.95     -0.56
    6   20    8      6.38      1.69
    6   20    9      4.61      4.25
    6   20   10     -0.94      0.55
    6   20   11     -0.81     -3.35
    6   20   12      5.63     -3.27
    6   20   13     -4.47     -1.77
    6   20   14     -9.70      0.84
    6   20   15     -0.56     -3.74
    6   20   16      6.80     -2.42
    6   20   17      0.20      8.17
    6   20   18     -3.89     -0.02
    7   20    0     -6.09     -0.19
    7   20    1    -10.52     -1.74
    7   20    2      3.85      2.04
    7   20    3      6.62      9.81
    7   20    4      3.01      3.21
    7   20    5     -2.91      6.90
    7   20    6     -2.60     -0.75
    7   20    7      3.27      4.56
    7   20    8      3.74      4.84
    7   20    9     -1.15      1.01
    7   20   10      1.59     -1.65
    7   20   11      0.08     -9.00
    7   20   12     -4.38      1.09
    7   20   13     -1.53      2.86
    7   20   14     -0.96      2.38
    7   20   15     -4.91     -1.34
    7   20   16      1.63     -3.40
    7   20   17      5.89      0.44
    7   20   18     -0.71      0.71
    8   20    0      1.90     -0.10
    8   20    1      6.17      2.15
    8   20    2     -3.47      4.52
    8   20    3     -4.28      4.61
    8   20    4      1.58      1.08
    8   20    5      2.43     -1.95
    8   20    6     -3.73      0.52
    8   20    7      2.11      1.75
    8   20    8      3.18     -1.35
    8   20    9      0.64     -5.86
    8   20   10     -4.72      3.30
    8   20   11     -3.46      0.48
    8   20   12      1.76     -2.23
    8   20   13      3.41      0.81
    8   20   14      0.80      3.57
    8   20   15     -2.47     -4.24
    8   20   16     -0.61      0.00
    8   20   17      1.97      0.49
    9   20    0     -9.89      0.37
    9   20    1     11.03     -2.16
    9   20    2      1.53     -0.68
    9   20    3     -6.69     -0.58
    9   20    4     -0.35      0.77
    9   20    5     -2.75     -2.97
    9   20    6      1.37     -1.23
    9   20    7      9.67     -1.35
    9   20    8     -0.92     -0.60
    9   20    9     -6.85     -6.75
    9   20   10      0.91     -4.72
    9   20   11      2.91      8.85
    9   20   12     -1.13      3.55
    9   20   13      0.05     -6.40
    9   20   14      3.04     -5.90
    9   20   15      2.15     -0.38
    9   20   16     -5.07      4.54
    9   20   17     -2.28      2.85
   10   20    0      0.21      2.26
   10   20    1     -4.61     -5.50
   10   20    2     -3.12      0.28
   10   20    3     -0.97      0.18
   10   20    4      2.72     -2.47
   10   20    5      3.53     -4.59
   10   20    6      0.56     -1.92
   10   20    7     -3.27      1.81
   10   20    8      6.24     -2.67
   10   20    9     -0.01     -0.59
   10   20   10     -3.23      0.17
   10   20   11      0.77      1.46
   10   20   12     -0.12     -2.37
   10   20   13      2.31     -1.65
   10   20   14     -0.90      0.95
   10   20   15     -0.08      1.97
   10   20   16     -0.86     -3.30
   11   20    0      4.85      0.29
   11   20    1    -10.17      1.44
   11   20    2      4.13      1.75
   11   20    3      8.79     -6.76
   11   20    4     -6.42     -1.38
   11   20    5     -2.64      4.73
   11   20    6      4.06     -2.43
   11   20    7      0.17     -4.13
   11   20    8      0.61      1.52
   11   20    9     -4.60      3.92
   11   20   10     -0.08      1.59
   11   20   11      4.52     -3.92
   11   20   12     -0.99      1.52
   11   20   13     -3.51      3.74
   11   20   14      0.70     -1.11
   11   20   15      1.99     -1.39
   11   20   16     -0.15      0.64
   12   20    0      7.23     -6.20
   12   20    1      2.94      2.13
   12   20    2     -1.01     -0.28
   12   20    3     -1.67     -3.34
   12   20    4      2.31     -2.02
   12   20    5      1.33      2.71
   12   20    6     -5.10      6.58
   12   20    7     -0.07     -1.51
   12   20    8     -0.37     -2.45
   12   20    9      1.60      0.45
   12   20   10      0.28      3.33
   12   20   11     -4.70     -0.52
   12   20   12      4.95      1.19
   12   20   13      0.80      1.77
   12   20   14     -4.72     -1.70
   12   20   15     -2.56     -1.23
   13   20    0      1.88     -6.47
   13   20    1     -3.88      0.08
   13   20    2     -5.47     -5.53
   13   20    3     -0.25     -2.09
   13   20    4      3.96      3.78
   13   20    5     -1.32      0.79
   13   20    6     -2.75      0.26
   13   20    7      4.86      0.56
   13   20    8     -0.71      0.55
   13   20    9     -1.08      2.42
   13   20   10      1.74     -2.12
   13   20   11      0.35     -0.86
   13   20   12     -1.60      1.47
   13   20   13     -1.03      2.22
   13   20   14      0.98     -2.44
   14   20    0      4.93     -0.11
   14   20    1     -3.55      0.91
   14   20    2     -5.93     -0.10
   14   20    3      4.39     -6.03
   14   20    4     -2.88     -1.70
   14   20    5     -2.37      3.90
   14   20    6      2.54     -0.38
   14   20    7      2.14     -1.41
   14   20    8      0.12     -2.57
   14   20    9      3.35      2.67
   14   20   10     -4.93      0.91
   14   20   11      1.65     -0.80
   14   20   12      0.44     -0.99
   14   20   13     -0.90      2.02
   15   20    0     -1.16      2.84
   15   20    1     -5.13      0.79
   15   20    2      3.44     -2.81
   15   20    3     10.93     -6.06
   15   20    4     -1.38      4.74
   15   20    5     -9.55      5.45
   15   20    6     -4.88     -4.90
   15   20    7      5.75     -3.09
   15   20    8      1.08      0.47
   15   20    9      3.29      0.02
   15   20   10     -3.67      0.64
   15   20   11     -1.14     -1.45
   15   20   12      1.83      2.23
   16   20    0     -4.57      2.85
   16   20    1     -0.22     -0.49
   16   20    2      3.40     -1.92
   16   20    3     -0.76     -0.13
   16   20    4      9.57      2.91
   16   20    5     -2.25     -0.19
   16   20    6    -11.79      1.20
   16   20    7     -0.89     -1.83
   16   20    8      5.51     -2.71
   16   20    9      3.54      0.57
   16   20   10     -0.81      2.96
   16   20   11     -4.89     -3.99
   17   20    0     -8.16      2.22
   17   20    1     -0.08      4.42
   17   20    2      5.68     -3.05
   17   20    3     -3.64     -4.77
   17   20    4      3.17      3.71
   17   20    5     -0.21      0.73
   17   20    6      0.66     -2.06
   17   20    7     -1.45     -2.54
   17   20    8      1.34      2.44
   17   20    9     -2.86      0.85
   18   20    0      2.08      1.09
   18   20    1      4.79      2.04
   18   20    2     -2.02     -1.97
   18   20    3     -3.40     -1.43
   18   20    4      3.19      0.63
   18   20    5      3.86     -2.82
   18   20    6      0.33      0.97
   18   20    7     -3.04      0.57
   19   20    0      1.22     -1.12
   19   20    1      1.38     -1.86
   19   20    2     -1.80      0.88
   19   20    3      3.75     -1.44
   19   20    4      0.11      0.69
    0   21    0     -7.37     -0.28
    0   21    1      9.90     -0.69
    0   21    2      7.59      0.50
    0   21    3     -1.92     -2.58
    0   21    4      3.08      0.02
    0   21    5    -17.33      5.00
    0   21    6     -2.48      2.02
    0   21    7      3.17     -0.44
    0   21    8      2.28     -2.71
    0   21    9      4.14     -0.95
    0   21   10      0.96      1.25
    0   21   11     -2.44     -0.40
    0   21   12     -6.70     -1.37
    0   21   13     -1.88      0.90
    0   21   14     -0.75      1.04
    0   21   15      8.02     -0.33
    0   21   16      0.63      0.57
    0   21   17     -5.89     -0.60
    0   21   18      5.91     -1.96
    1   21    0      3.76      1.07
    1   21    1     -1.74     -6.07
    1   21    2     -2.23      3.30
    1   21    3      0.68     -6.46
    1   21    4      8.84      6.22
    1   21    5     -8.83     -7.60
    1   21    6     -7.07      0.39
    1   21    7      1.16      2.49
    1   21    8      8.96     -1.79
    1   21    9     -1.74      2.27
    1   21   10     -7.50     -0.66
    1   21   11     -0.88      2.11
    1   21   12     -1.26     -4.23
    1   21   13      1.38      6.08
    1   21   14      4.85      6.12
    1   21   15      2.54      0.94
    1   21   16     -2.90     -4.89
    1   21   17     -1.24     -3.97
    1   21   18      2.34      1.26
    2   21    0     -1.65      0.33
    2   21    1     -2.10     -9.04
    2   21    2      1.55      0.26
    2   21    3     -8.17     -5.36
    2   21    4      2.48      4.04
    2   21    5      7.68     -2.99
    2   21    6     -2.64     10.62
    2   21    7     -1.33     -5.01
    2   21    8      5.21      0.69
    2   21    9     -9.16      5.13
    2   21   10    -11.13     -9.07
    2   21   11      3.86      4.43
    2   21   12     11.65      1.71
    2   21   13      0.55      1.72
    2   21   14      0.81     -2.14
    2   21   15     -0.11      1.81
    2   21   16     -1.64      1.57
    2   21   17      2.22     -1.69
    2   21   18     -2.26     -2.54
    3   21    0    -17.42     -0.67
    3   21    1    -11.67     -3.88
    3   21    2     14.36      0.29
    3   21    3     -0.66     -7.69
    3   21    4    -12.17     -2.58
    3   21    5     -1.01      6.67
    3   21    6      4.17     15.26
    3   21    7      3.37     -4.91
    3   21    8     -9.69     -4.72
    3   21    9     -9.21      0.55
    3   21   10      4.14      1.93
    3   21   11      5.79     -4.46
    3   21   12      8.06     -9.26
    3   21   13      1.64      2.38
    3   21   14     -4.86      6.98
    3   21   15     -4.92      2.06
    3   21   16     -0.77     -6.60
    3   21   17      6.06     -1.62
    3   21   18      1.30      6.69
    4   21    0     -3.99     -1.29
    4   21    1      1.89      2.54
    4   21    2      8.51      0.62
    4   21    3     -4.58    -10.71
    4   21    4    -14.29      0.90
    4   21    5      2.14      6.81
    4   21    6      3.24     -3.02
    4   21    7     -6.16     -0.02
    4   21    8    -12.31      3.77
    4   21    9     -0.92     -5.95
    4   21   10     10.93     -0.17
    4   21   11      5.35     -8.45
    4   21   12     -3.87      0.88
    4   21   13      1.38      2.31
    4   21   14     -3.29     -1.76
    4   21   15     -2.68     -0.63
    4   21   16      3.02      0.73
    4   21   17      0.08      1.11
    4   21   18      1.26      1.97
    5   21    0      9.52     -0.91
    5   21    1      2.17     -3.94
    5   21    2     -4.29     -3.58
    5   21    3      2.84      6.44
    5   21    4      2.06      4.36
    5   21    5     -0.22    -10.18
    5   21    6     -3.11     -4.69
    5   21    7     -1.16      5.44
    5   21    8     -0.01      0.22
    5   21    9     -0.81     -4.69
    5   21   10      4.84      1.26
    5   21   11      2.81     -1.93
    5   21   12    -12.00      3.08
    5   21   13      1.13     -5.58
    5   21   14      5.27     -0.61
    5   21   15     -1.32      3.93
    5   21   16      0.18     -1.52
    5   21   17     -2.44     -2.63
    5   21   18      0.72     -0.80
    6   21    0     -7.90     -0.41
    6   21    1     -1.60     -3.39
    6   21    2      3.75     -6.38
    6   21    3     -0.08      4.02
    6   21    4      6.14      5.00
    6   21    5      4.12     -0.07
    6   21    6      3.88      2.66
    6   21    7      0.47     -2.13
    6   21    8      3.01     -7.49
    6   21    9      4.48      4.85
    6   21   10     -1.66      3.25
    6   21   11     -4.98     -4.03
    6   21   12     -0.31      1.17
    6   21   13      1.15      0.07
    6   21   14     -2.65     -1.48
    6   21   15      1.17      4.72
    6   21   16      0.43     -1.41
    6   21   17     -5.06     -5.77
    7   21    0     -3.08      0.28
    7   21    1     -6.83      0.48
    7   21    2      0.20      0.22
    7   21    3     -1.91     -2.44
    7   21    4      8.17      1.65
    7   21    5      3.48     10.74
    7   21    6      1.58     -3.13
    7   21    7     -2.65     -2.05
    7   21    8     -0.38      0.34
    7   21    9      3.57     -0.61
    7   21   10     -1.16     -1.00
    7   21   11     -3.71      1.91
    7   21   12      9.94      2.47
    7   21   13      2.06      3.61
    7   21   14     -7.12     -6.68
    7   21   15     -0.34     -0.09
    7   21   16      0.09      4.86
    7   21   17      0.43     -0.78
    8   21    0      0.70      0.27
    8   21    1     -2.81      0.22
    8   21    2     -0.24      0.76
    8   21    3      0.74      1.95
    8   21    4      3.89      1.52
    8   21    5     -1.49      5.42
    8   21    6     -9.17     -8.11
    8   21    7     -2.53     -5.61
    8   21    8     -0.05      8.37
    8   21    9     -1.92      2.65
    8   21   10      3.17     -3.20
    8   21   11      2.49      3.78
    8   21   12      3.60      0.21
    8   21   13     -1.10     -0.54
    8   21   14      1.13     -0.36
    8   21   15      2.79     -2.66
    8   21   16     -2.00     -2.81
    8   21   17      1.63      3.35
    9   21    0      3.36     -0.15
    9   21    1      0.07     -0.21
    9   21    2     -4.89     -4.55
    9   21    3      1.95      6.72
    9   21    4     -0.88      1.23
    9   21    5      1.24     -6.59
    9   21    6     -9.67      1.56
    9   21    7     -4.27     -3.43
    9   21    8      5.49      2.02
    9   21    9      2.03      5.03
    9   21   10     -3.39     -1.05
    9   21   11     -1.09     -1.05
    9   21   12      1.81      2.29
    9   21   13      0.22     -2.36
    9   21   14     -0.37     -2.95
    9   21   15      1.10      1.60
    9   21   16      1.53     -0.08
   10   21    0     -3.20     -0.23
   10   21    1     -1.12      2.32
   10   21    2      2.40     -3.25
   10   21    3      3.86     -2.79
   10   21    4    -13.76      0.85
   10   21    5     -0.26      1.63
   10   21    6      7.46      2.51
   10   21    7     -1.06     -2.84
   10   21    8     -0.47      2.86
   10   21    9     -0.05     -2.70
   10   21   10     -6.41     -2.37
   10   21   11      2.25     -0.58
   10   21   12     -0.33      2.59
   10   21   13     -1.15      1.02
   10   21   14      0.03     -2.37
   10   21   15     -0.77     -0.48
   10   21   16     -0.17      1.55
   11   21    0      3.53     -0.52
   11   21    1      1.51     -0.06
   11   21    2     -2.61      2.71
   11   21    3      2.85     -2.01
   11   21    4      0.23     -1.18
   11   21    5     -3.98      7.39
   11   21    6     -1.86      0.91
   11   21    7      1.46     -5.15
   11   21    8      1.72     -0.70
   11   21    9     -0.23     -1.50
   11   21   10     -5.09      2.18
   11   21   11      2.61     -4.29
   11   21   12     -2.21     -3.48
   11   21   13      0.33      3.49
   11   21   14      2.91      5.47
   11   21   15     -1.27     -3.29
   12   21    0     -1.92     -0.64
   12   21    1     -0.26     -0.71
   12   21    2     -1.67      0.37
   12   21    3      0.09      2.54
   12   21    4      6.92      4.44
   12   21    5     -2.35      2.27
   12   21    6     -5.33     -4.93
   12   21    7      1.02      5.23
   12   21    8      0.69     -2.61
   12   21    9      5.10     -5.23
   12   21   10      4.34     -0.33
   12   21   11     -6.19     -3.30
   12   21   12     -5.64      1.36
   12   21   13      4.90      0.42
   12   21   14      5.84      3.10
   13   21    0     -1.87     -0.08
   13   21    1     -0.17     -1.66
   13   21    2     -3.61     -0.38
   13   21    3     -1.36      5.10
   13   21    4     -0.03      2.59
   13   21    5      0.00     -1.73
   13   21    6      5.21     -4.58
   13   21    7      2.73     12.42
   13   21    8     -1.38     -1.15
   13   21    9     -1.02     -7.48
   13   21   10      3.53     -3.47
   13   21   11     -2.30     -0.76
   13   21   12      1.83      4.21
   13   21   13      1.06      3.16
   14   21    0     -3.57      0.29
   14   21    1      2.16      1.13
   14   21    2      2.89      1.41
   14   21    3      2.06     -2.64
   14   21    4     -5.85     -6.19
   14   21    5     -0.02      3.31
   14   21    6      4.72      5.36
   14   21    7     -0.69      2.72
   14   21    8     -3.65     -2.96
   14   21    9     -2.36     -2.83
   14   21   10      3.96      1.23
   14   21   11      1.79      6.30
   14   21   12      1.22     -0.28
   15   21    0     -1.42      0.05
   15   21    1     -2.11      4.04
   15   21    2      9.55      2.88
   15   21    3      7.07     -4.39
   15   21    4     -6.66     -6.77
   15   21    5     -6.85     -1.05
   15   21    6     -1.22      6.91
   15   21    7      5.77     -3.66
   15   21    8     -4.73     -1.49
   15   21    9     -6.75      4.87
   15   21   10      6.28      4.08
   15   21   11      5.58     -0.07
   16   21    0      0.96      0.12
   16   21    1     -2.76      3.71
   16   21    2      6.66      5.54
   16   21    3     -1.63     -4.14
   16   21    4     -6.31     -2.05
   16   21    5      1.58     -1.27
   16   21    6      0.97     -0.89
   16   21    7     -0.06      0.26
   16   21    8      0.40      5.54
   16   21    9     -2.41     -2.72
   16   21   10      2.52     -0.64
   17   21    0     -3.51     -0.12
   17   21    1     -3.53     -3.38
   17   21    2      1.28      4.74
   17   21    3     -1.31      4.06
   17   21    4     -2.55     -2.87
   17   21    5      4.02     -2.18
   17   21    6      2.72      1.63
   17   21    7     -3.45      1.72
   17   21    8      4.56      1.96
   18   21    0     -5.16     -0.20
   18   21    1     -1.09     -0.72
   18   21    2     -0.24     -4.19
   18   21    3      3.23      1.54
   18   21    4      2.01      1.84
   18   21    5     -0.34     -0.32
   18   21    6     -0.85      0.75
   19   21    0     -0.04     -0.04
   19   21    1      2.68      4.42
    0   22    0     22.58      1.17
    0   22    1    -15.93     -0.03
    0   22    2    -28.17     17.52
    0   22    3     13.29     -0.36
    0   22    4      4.17    -11.98
    0   22    5      0.04     -1.27
    0   22    6    -17.03      3.72
    0   22    7     10.75      1.44
    0   22    8     11.33     -1.48
    0   22    9     -4.75     -0.30
    0   22   10      0.15      0.21
    0   22   11      8.34     -0.51
    0   22   12      6.78      0.05
    0   22   13     -4.77     -0.06
    0   22   14     -4.55     -0.20
    0   22   15     -2.21      0.06
    0   22   16      1.60     -0.81
    0   22   17      2.32      0.64
    0   22   18     -3.11      1.19
    1   22    0     -7.05      1.79
    1   22    1      6.76      4.24
    1   22    2      4.41      9.43
    1   22    3     -1.34     -7.28
    1   22    4    -15.13     -2.72
    1   22    5      4.89    -10.25
    1   22    6      7.93     -5.95
    1   22    7      5.11     18.93
    1   22    8     -6.00     -0.73
    1   22    9     -0.75    -15.44
    1   22   10      4.64      1.70
    1   22   11      2.81     11.52
    1   22   12     -2.73      0.84
    1   22   13     -3.05     -9.16
    1   22   14      3.24     -3.77
    1   22   15      6.10      2.85
    1   22   16     -2.82     -0.12
    1   22   17     -4.65     -0.65
    1   22   18      1.51     -0.07
    2   22    0     11.04      0.87
    2   22    1      2.38      0.68
    2   22    2     -5.77    -11.42
    2   22    3      1.72     -3.17
    2   22    4      3.22      0.01
    2   22    5     -1.05      4.09
    2   22    6      7.11      3.03
    2   22    7     -1.68      3.77
    2   22    8     -3.94     -0.40
    2   22    9      4.53      1.61
    2   22   10     -4.95      0.99
    2   22   11     -8.76     -0.45
    2   22   12      0.47     -0.28
    2   22   13     10.33     -3.05
    2   22   14      1.69     -1.19
    2   22   15     -2.97     -3.14
    2   22   16     -3.92     -2.53
    2   22   17      4.74      1.58
    2   22   18      6.24      3.74
    3   22    0     -2.55      0.71
    3   22    1     -5.08     -5.37
    3   22    2      1.75     -9.58
    3   22    3      6.93      5.33
    3   22    4     -2.81      3.00
    3   22    5     -4.43     10.88
    3   22    6      6.22      3.65
    3   22    7     -3.25     -3.44
    3   22    8     -0.28      4.00
    3   22    9     -1.19      7.31
    3   22   10     -1.59     -4.25
    3   22   11      1.38     -8.30
    3   22   12      0.26      0.93
    3   22   13     -1.60      5.81
    3   22   14     -0.63     -0.11
    3   22   15     -0.58     -3.54
    3   22   16     -2.18      0.52
    3   22   17      0.21      1.28
    3   22   18      3.03      3.36
    4   22    0     -0.27      0.66
    4   22    1     10.40     -6.16
    4   22    2     -5.80      7.80
    4   22    3      0.33      2.85
    4   22    4     -0.50      7.12
    4   22    5      2.53      3.62
    4   22    6     -4.26     -2.93
    4   22    7     -4.38     -0.71
    4   22    8      6.59     -2.11
    4   22    9      0.96      0.98
    4   22   10     -2.76      3.12
    4   22   11      0.70     -5.99
    4   22   12      1.55     -4.52
    4   22   13     -5.00     11.82
    4   22   14     -1.47      3.14
    4   22   15     -0.67     -3.44
    4   22   16      0.71      2.84
    4   22   17     -1.49      3.50
    5   22    0     -5.28      0.84
    5   22    1     -1.05     -4.62
    5   22    2     -0.67      3.67
    5   22    3      5.67     -4.66
    5   22    4     -3.10      6.46
    5   22    5      0.42     -5.59
    5   22    6      0.13     -4.74
    5   22    7      4.29      3.12
    5   22    8     -4.90     -1.02
    5   22    9     -0.14     -4.92
    5   22   10      3.53      2.62
    5   22   11     -3.52      2.17
    5   22   12     -1.39     -0.25
    5   22   13      0.45      3.31
    5   22   14      2.48      0.56
    5   22   15      0.99      0.29
    5   22   16     -2.40     -0.34
    5   22   17     -0.42      0.57
    6   22    0     -0.33      0.72
    6   22    1     -7.22     -1.25
    6   22    2     -5.93     -2.89
    6   22    3     -1.99     -9.89
    6   22    4      6.11     -7.68
    6   22    5      4.67     -6.24
    6   22    6     -5.62      6.85
    6   22    7      2.11      4.44
    6   22    8      0.52     -2.59
    6   22    9      0.63     -4.89
    6   22   10     -3.23      4.35
    6   22   11     -1.30     -0.45
    6   22   12      6.44     -1.96
    6   22   13     -0.96     -0.21
    6   22   14     -3.51      0.33
    6   22   15      5.52     -0.11
    6   22   16      2.80     -1.81
    6   22   17     -2.37     -0.13
    7   22    0     -4.33      0.18
    7   22    1     -7.67     -1.32
    7   22    2      1.48      1.63
    7   22    3      4.88     -3.75
    7   22    4     -2.38     -9.54
    7   22    5     -8.66     -7.78
    7   22    6      0.72      3.33
    7   22    7      4.97      7.83
    7   22    8      2.66      1.27
    7   22    9     -1.17     -7.88
    7   22   10     -5.57     -1.17
    7   22   11      1.60      2.43
    7   22   12      5.25     -0.14
    7   22   13     -2.65     -1.43
    7   22   14     -0.90     -1.45
    7   22   15      3.27      2.13
    7   22   16     -0.02      0.74
    8   22    0      7.95      0.04
    8   22    1      4.55     -1.89
    8   22    2     -1.77      2.62
    8   22    3      0.13      3.00
    8   22    4     -1.93     -2.87
    8   22    5     -3.53     -2.47
    8   22    6      1.00     -0.29
    8   22    7     -2.42     -0.19
    8   22    8     -2.50     -2.15
    8   22    9      3.78      1.89
    8   22   10      1.04     -0.63
    8   22   11     -3.46      2.53
    8   22   12      3.28      0.04
    8   22   13      3.52      0.54
    8   22   14     -4.55      0.36
    8   22   15     -3.17      0.81
    8   22   16      2.83     -0.15
    9   22    0      0.65     -0.48
    9   22    1     -1.56      1.88
    9   22    2      3.89     -2.00
    9   22    3     -0.13      1.95
    9   22    4      0.12      1.30
    9   22    5     -0.50      4.35
    9   22    6     -3.85     -2.24
    9   22    7      3.84     -2.73
    9   22    8     -6.46      3.92
    9   22    9     -5.94      4.54
    9   22   10      9.94     -7.45
    9   22   11      3.92      2.46
    9   22   12     -4.38      6.93
    9   22   13     -0.07     -1.47
    9   22   14      0.27     -3.64
    9   22   15     -2.24      1.03
    9   22   16     -0.17      3.84
   10   22    0      1.25     -0.60
   10   22    1     -0.87      3.85
   10   22    2     -4.55      2.70
   10   22    3     -1.58      0.85
   10   22    4      9.23     -2.74
   10   22    5      4.37      1.58
   10   22    6     -7.20      1.51
   10   22    7     -3.39      1.59
   10   22    8     -1.37      2.87
   10   22    9      2.08     -1.10
   10   22   10      1.53     -1.94
   10   22   11     -2.61      1.79
   10   22   12     -4.17     -1.73
   10   22   13      1.97     -1.24
   10   22   14      4.29      3.34
   10   22   15     -1.73      1.32
   11   22    0     -5.33      0.76
   11   22    1      3.99      1.61
   11   22    2     -0.15      1.64
   11   22    3      4.65     -0.28
   11   22    4      2.78      2.97
   11   22    5     -5.93     -1.90
   11   22    6      2.66     -2.18
   11   22    7      4.10     -1.51
   11   22    8     -3.09      1.96
   11   22    9     -6.21      0.27
   11   22   10     -1.35     -0.91
   11   22   11      4.54      0.80
   11   22   12     -4.69     -0.52
   11   22   13     -1.31     -0.10
   11   22   14      5.49      0.51
   12   22    0     -2.85      2.23
   12   22    1     -0.69     -2.05
   12   22    2      3.51     -2.80
   12   22    3      1.04      4.69
   12   22    4     -3.39      2.89
   12   22    5      1.82     -5.07
   12   22    6      4.55      0.28
   12   22    7     -3.71     -1.41
   12   22    8     -1.70     -2.18
   12   22    9     -0.15      2.36
   12   22   10      1.95      1.88
   12   22   11      0.99     -1.75
   12   22   12     -0.88      0.51
   12   22   13      3.37     -0.92
   13   22    0     -0.07      2.67
   13   22    1    -11.65     -2.04
   13   22    2      3.20     -6.54
   13   22    3      2.59      4.29
   13   22    4     -4.31      5.33
   13   22    5      0.20      1.07
   13   22    6      2.35     -5.82
   13   22    7     -0.53      0.68
   13   22    8     -0.08      6.27
   13   22    9      0.04     -0.75
   13   22   10      5.34     -1.84
   13   22   11      0.05     -1.70
   13   22   12     -1.40      0.63
   13   22   13     -1.12     -1.15
   14   22    0      0.97      1.07
   14   22    1      0.42      0.56
   14   22    2     -0.30      3.04
   14   22    3     -2.13     -2.16
   14   22    4     -2.03     -2.75
   14   22    5      0.00      5.91
   14   22    6      2.56      0.71
   14   22    7      0.42      0.78
   14   22    8      1.36      2.44
   14   22    9      0.76     -1.76
   14   22   10     -0.69      0.30
   14   22   11     -4.99      0.12
   15   22    0     -4.28     -1.54
   15   22    1     -0.77      2.01
   15   22    2      2.03      0.90
   15   22    3      6.07     -1.15
   15   22    4     -2.97      4.14
   15   22    5     -5.46     -1.44
   15   22    6      3.65     -3.48
   15   22    7      5.20      4.26
   15   22    8      0.81      2.75
   15   22    9     -5.26     -3.55
   15   22   10     -1.84     -2.64
   16   22    0     -0.91     -2.67
   16   22    1      5.54     -1.07
   16   22    2     -3.04      1.61
   16   22    3     -1.39      8.45
   16   22    4      3.64     -2.18
   16   22    5      2.25     -7.68
   16   22    6     -4.39      2.75
   16   22    7      0.67      3.28
   16   22    8      4.34     -4.02
   16   22    9     -1.11     -1.01
   17   22    0      1.41     -1.86
   17   22    1      1.03     -0.32
   17   22    2     -2.39      0.32
   17   22    3     -3.04      3.28
   17   22    4      0.27     -2.90
   17   22    5      0.79     -0.30
   17   22    6     -2.37     -0.46
   17   22    7      3.24     -1.21
   18   22    0      8.45     -0.27
   18   22    1      0.22      0.75
   18   22    2     -3.64     -0.29
   18   22    3     -5.49     -1.40
   18   22    4     -1.46     -1.56
    0   23    0      3.11     -1.23
    0   23    1      1.24     -0.16
    0   23    2     -4.95      1.31
    0   23    3     -7.32      1.47
    0   23    4    -12.25     -3.90
    0   23    5      4.22     -1.34
    0   23    6      6.68      1.22
    0   23    7      3.74     -0.69
    0   23    8     -6.87      0.15
    0   23    9      3.03      0.89
    0   23   10     -2.75      1.31
    0   23   11      2.39     -0.19
    0   23   12      8.07     -1.16
    0   23   13     -1.89     -0.08
    0   23   14     -3.14      0.49
    0   23   15     -3.00      0.83
    0   23   16     -3.97      0.28
    0   23   17     -0.02     -0.29
    1   23    0     -3.33     -1.31
    1   23    1      2.22      8.41
    1   23    2      2.02      2.95
    1   23    3     -1.93     -5.45
    1   23    4    -10.88     -2.23
    1   23    5      1.89     -0.80
    1   23    6      9.87     -3.18
    1   23    7      2.72      2.79
    1   23    8     -7.54      3.94
    1   23    9      5.29     -2.24
    1   23   10      2.56     -2.25
    1   23   11     -2.22      0.07
    1   23   12     -1.80     -2.66
    1   23   13      0.70     -2.91
    1   23   14      1.03      3.85
    1   23   15     -2.42     -2.41
    1   23   16     -2.34     -3.97
    1   23   17      1.85      4.87
    2   23    0      3.65     -1.47
    2   23    1     17.63     12.43
    2   23    2     -0.16     -4.61
    2   23    3     -1.45     -3.97
    2   23    4     -0.84     -0.43
    2   23    5      2.37      0.92
    2   23    6      7.96     -3.60
    2   23    7     -1.82      2.80
    2   23    8     -3.86     -1.64
    2   23    9      4.13      0.76
    2   23   10      7.57     -3.05
    2   23   11     -3.56      0.31
    2   23   12     -8.97      7.81
    2   23   13      0.52     -3.65
    2   23   14      0.65     -5.77
    2   23   15      1.39     -5.43
    2   23   16      4.41      6.83
    2   23   17      0.65      3.94
    3   23    0     -3.61      1.33
    3   23    1      8.38      4.81
    3   23    2      6.88     -4.46
    3   23    3      9.63      5.68
    3   23    4     -4.39     -4.45
    3   23    5     -6.27      1.27
    3   23    6     11.60     -1.50
    3   23    7      3.30      1.22
    3   23    8     -6.68     -5.89
    3   23    9     -0.35      1.90
    3   23   10      9.08      4.93
    3   23   11     -4.53      1.49
    3   23   12     -5.23     -0.76
    3   23   13      2.96     -0.98
    3   23   14      1.70      1.89
    3   23   15     -1.39     -1.59
    3   23   16      1.48      0.07
    3   23   17     -1.69     -3.07
    4   23    0      0.65      2.33
    4   23    1      7.98     -0.70
    4   23    2     -4.53     -0.22
    4   23    3      0.05      3.95
    4   23    4      7.29     -0.79
    4   23    5      4.18      6.71
    4   23    6     -0.77     -3.09
    4   23    7     -2.41     -5.52
    4   23    8      4.77      0.34
    4   23    9      5.64      4.56
    4   23   10     -7.52     -0.67
    4   23   11     -7.34     -0.76
    4   23   12      8.63      1.91
    4   23   13      1.51      6.94
    4   23   14     -1.82     -4.66
    4   23   15     -0.43     -3.52
    4   23   16     -0.82      1.54
    4   23   17     -4.83      1.64
    5   23    0     -2.75      1.25
    5   23    1     -2.69     -0.96
    5   23    2     -3.62      0.88
    5   23    3     -4.10      4.74
    5   23    4      2.81      2.17
    5   23    5      5.34     -2.67
    5   23    6     -2.27      2.20
    5   23    7     -0.09      1.86
    5   23    8      4.62     -3.48
    5   23    9      2.18     -0.26
    5   23   10     -8.64      2.61
    5   23   11     -1.89      4.12
    5   23   12      5.50     -0.04
    5   23   13     -0.66     -0.78
    5   23   14      0.59     -3.02
    5   23   15     -0.23      0.99
    5   23   16     -2.40     -0.86
    5   23   17      0.64      1.27
    6   23    0      0.29      0.00
    6   23    1     -6.95      3.12
    6   23    2      1.10      2.72
    6   23    3     -3.16     -1.16
    6   23    4    -10.36     -0.96
    6   23    5      0.03     -3.49
    6   23    6      1.52      2.64
    6   23    7      2.82      4.41
    6   23    8      0.44     -0.14
    6   23    9     -2.39     -3.40
    6   23   10     -3.87      5.04
    6   23   11      1.27      1.61
    6   23   12      1.87     -4.69
    6   23   13      0.50     -2.85
    6   23   14     -1.72      2.25
    6   23   15      0.67      0.72
    6   23   16      1.20      1.47
    7   23    0      6.68      0.82
    7   23    1      3.96      2.51
    7   23    2     -0.71      3.24
    7   23    3      0.38     -6.17
    7   23    4     -6.83     -3.17
    7   23    5     -1.81      1.29
    7   23    6      1.92     -0.04
    7   23    7      2.68     -0.47
    7   23    8     -0.14      5.30
    7   23    9     -4.45     -3.35
    7   23   10     -3.12     -1.38
    7   23   11      2.51     -2.89
    7   23   12      0.22     -1.65
    7   23   13     -2.25      3.47
    7   23   14     -4.11      3.08
    7   23   15      2.71     -2.76
    7   23   16      3.74      3.41
    8   23    0      0.43     -0.54
    8   23    1      9.44     -0.84
    8   23    2     -0.01     -2.76
    8   23    3      2.09     -3.13
    8   23    4      8.70      4.80
    8   23    5     -0.21     -2.77
    8   23    6     -3.36     -4.87
    8   23    7      0.37      0.30
    8   23    8      3.48      1.61
    8   23    9     -3.35      0.49
    8   23   10     -2.14     -3.33
    8   23   11      3.29     -0.50
    8   23   12     -3.83      2.66
    8   23   13     -6.00      2.40
    8   23   14      0.37      3.23
    8   23   15      4.94     -1.28
    9   23    0     -3.75     -1.45
    9   23    1      2.58     -2.40
    9   23    2      2.57      0.00
    9   23    3     -2.13      1.79
    9   23    4      5.85      0.75
    9   23    5      1.21     -6.32
    9   23    6     -0.90     -2.04
    9   23    7     -2.25      4.68
    9   23    8      2.59     -3.68
    9   23    9      2.30      2.70
    9   23   10      1.72      1.17
    9   23   11     -0.96      3.88
    9   23   12     -1.22      2.08
    9   23   13     -1.96     -3.30
    9   23   14      0.43     -1.98
    9   23   15      2.01      2.11
   10   23    0      5.90      0.12
   10   23    1     -4.17     -2.55
   10   23    2     -2.96      3.28
   10   23    3     -1.14      2.30
   10   23    4     -4.21     -5.05
   10   23    5     -4.19     -2.22
   10   23    6      2.37     -0.21
   10   23    7      5.08      5.44
   10   23    8      1.11      1.30
   10   23    9     -0.46     -3.96
   10   23   10      2.28     -2.46
   10   23   11     -0.61      7.43
   10   23   12      3.76      0.99
   10   23   13     -1.70     -2.75
   10   23   14     -0.13     -1.77
   11   23    0     12.21      1.70
   11   23    1      0.43     -3.52
   11   23    2     -8.05     -1.02
   11   23    3     -2.63      4.33
   11   23    4     -1.20     -1.58
   11   23    5      0.02     -2.66
   11   23    6      0.99      4.07
   11   23    7      3.56      1.33
   11   23    8     -1.18     -3.59
   11   23    9     -2.41     -0.59
   11   23   10      1.24      0.17
   11   23   11      2.07     -0.62
   11   23   12      3.99      0.05
   11   23   13     -3.35      3.04
   12   23    0      4.52      0.88
   12   23    1     -2.20     -1.03
   12   23    2     -1.80     -4.43
   12   23    3      0.33      1.15
   12   23    4      3.06      5.33
   12   23    5      0.67     -4.91
   12   23    6      0.88      2.64
   12   23    7     -1.83      3.28
   12   23    8     -3.00     -3.70
   12   23    9      1.43     -0.60
   12   23   10      1.32      4.97
   12   23   11      0.28     -1.48
   12   23   12     -1.61     -2.04
   12   23   13      0.49     -0.93
   13   23    0      0.01     -0.20
   13   23    1     -1.21      0.77
   13   23    2      2.73     -0.45
   13   23    3      0.73     -0.86
   13   23    4     -0.24      1.07
   13   23    5     -3.75     -4.22
   13   23    6      5.69      0.50
   13   23    7      1.98      1.68
   13   23    8     -4.19      5.29
   13   23    9     -0.34      0.18
   13   23   10     -1.30      0.50
   13   23   11      0.59     -2.58
   13   23   12     -0.74     -2.20
   14   23    0     -0.58     -0.35
   14   23    1      1.82      3.19
   14   23    2     -1.02      0.73
   14   23    3     -0.69     -6.16
   14   23    4      4.33     -4.72
   14   23    5      1.56      2.54
   14   23    6     -0.36      4.05
   14   23    7     -2.15     -4.47
   14   23    8     -0.05      0.22
   14   23    9      1.82      0.11
   14   23   10     -2.68     -1.13
   14   23   11     -1.93      2.20
   15   23    0      1.50     -0.35
   15   23    1      2.39      0.30
   15   23    2     -5.85     -1.91
   15   23    3      2.11     -3.00
   15   23    4      7.80     -0.55
   15   23    5      3.45      4.73
   15   23    6     -4.01      1.92
   15   23    7     -4.23     -8.56
   15   23    8     -0.28     -5.76
   15   23    9     -0.09      7.89
   16   23    0      5.56      0.19
   16   23    1      0.96     -2.63
   16   23    2     -8.30     -2.83
   16   23    3      2.04      1.42
   16   23    4      5.83      5.05
   16   23    5      0.60      3.96
   16   23    6     -2.81     -4.23
   16   23    7     -1.68     -2.42
   17   23    0      1.02      0.26
   17   23    1      0.85     -2.61
   17   23    2     -2.82     -0.39
   17   23    3     -4.65      3.98
   17   23    4      1.97      2.80
   17   23    5      0.61     -0.79
    0   24    0     19.00     -1.61
    0   24    1     -9.03     -0.29
    0   24    2     -6.13     -2.36
    0   24    3      5.72     -1.09
    0   24    4     11.57     -1.29
    0   24    5     -3.47      2.67
    0   24    6     -2.90      2.33
    0   24    7     -8.14     -1.01
    0   24    8      6.20     -1.05
    0   24    9     -5.20     -0.50
    0   24   10     -9.84      1.66
    0   24   11     -1.68      0.94
    0   24   12      4.27     -1.17
    0   24   13      4.37      0.26
    0   24   14     -1.47      0.40
    0   24   15     -3.58     -0.68
    0   24   16     -1.56      0.03
    0   24   17      4.51      0.08
    1   24    0     -9.34     -1.57
    1   24    1      7.35    -11.01
    1   24    2     13.31     -1.72
    1   24    3     -3.56     13.13
    1   24    4     -4.38      8.36
    1   24    5     -2.48     -1.90
    1   24    6      4.02     -7.96
    1   24    7      0.68      2.59
    1   24    8     -3.06      9.16
    1   24    9     -5.03    -15.41
    1   24   10      4.03     -6.04
    1   24   11      0.48      7.51
    1   24   12     -3.00      5.14
    1   24   13     -4.42      2.87
    1   24   14     -0.15     -1.85
    1   24   15      4.52      1.67
    1   24   16     -0.60      2.57
    1   24   17     -4.77     -1.11
    2   24    0     -2.98     -1.38
    2   24    1     -2.06     -1.73
    2   24    2     -1.57      0.10
    2   24    3      1.55      9.21
    2   24    4      1.61     -2.24
    2   24    5     -5.46    -10.98
    2   24    6     -2.93      1.84
    2   24    7      8.67     -3.21
    2   24    8     -3.36      2.52
    2   24    9     -1.73     -2.55
    2   24   10      8.94      0.32
    2   24   11      0.12      1.32
    2   24   12     -4.77      1.63
    2   24   13     -2.73      2.81
    2   24   14      2.63      1.25
    2   24   15     -1.36     -0.20
    2   24   16     -2.64     -0.56
    3   24    0      2.09     -0.04
    3   24    1     -7.33      4.91
    3   24    2     -5.05      0.13
    3   24    3     -1.31      3.60
    3   24    4      2.05     -6.86
    3   24    5      0.32    -14.80
    3   24    6      1.29      2.05
    3   24    7      1.80     -1.49
    3   24    8     -3.71     -1.59
    3   24    9     -0.48      3.91
    3   24   10      0.25      2.50
    3   24   11      6.27      0.70
    3   24   12      2.15     -0.27
    3   24   13     -3.72     -4.73
    3   24   14      1.48      0.20
    3   24   15      0.79      1.11
    3   24   16     -0.47      1.31
    4   24    0     -1.08      0.49
    4   24    1     -0.60      2.16
    4   24    2      2.54      1.17
    4   24    3     -3.15      0.69
    4   24    4      3.93     -3.91
    4   24    5     -0.36      2.41
    4   24    6      2.72     -0.38
    4   24    7     -3.13     -1.59
    4   24    8     -0.37     -7.08
    4   24    9      6.66      2.33
    4   24   10     -5.79      2.01
    4   24   11     -0.68     -2.00
    4   24   12      5.01     -0.39
    4   24   13     -1.51     -2.75
    4   24   14     -3.62     -3.14
    4   24   15      4.12      0.56
    4   24   16      5.08      5.94
    5   24    0      3.26      0.04
    5   24    1      0.68      0.56
    5   24    2      3.97      1.31
    5   24    3      3.06      4.96
    5   24    4      2.55     -3.43
    5   24    5     -7.32      6.84
    5   24    6      2.99      1.61
    5   24    7      3.29      3.55
    5   24    8     -2.10     -4.51
    5   24    9      0.70     -1.48
    5   24   10      2.86     -3.69
    5   24   11     -1.00     -1.21
    5   24   12     -5.19      5.03
    5   24   13     -0.35      2.31
    5   24   14      0.20     -6.07
    5   24   15      2.60     -0.80
    5   24   16      1.37      2.60
    6   24    0      2.63     -0.53
    6   24    1      6.77      3.13
    6   24    2      4.83      0.16
    6   24    3     -4.79      4.14
    6   24    4     -4.14     -3.88
    6   24    5      2.06      3.09
    6   24    6      0.52      6.43
    6   24    7     -1.37     -0.69
    6   24    8      0.89     -4.55
    6   24    9     -6.88      4.20
    6   24   10      2.05      3.77
    6   24   11      7.42      0.90
    6   24   12     -1.60     -1.10
    6   24   13     -1.79      2.25
    6   24   14     -2.33     -1.76
    6   24   15      0.12     -0.93
    6   24   16      1.97     -1.49
    7   24    0     -2.30     -1.10
    7   24    1     -3.20      1.13
    7   24    2      1.36     -3.26
    7   24    3      1.84      5.00
    7   24    4     -1.17      4.52
    7   24    5     -2.41     -4.44
    7   24    6     -4.04      0.93
    7   24    7      1.74      0.20
    7   24    8      4.12      0.56
    7   24    9     -5.63      0.38
    7   24   10      1.56      3.12
    7   24   11      4.36      3.69
    7   24   12     -0.32     -3.31
    7   24   13     -0.88     -2.10
    7   24   14      0.73      2.53
    7   24   15     -0.39      1.34
    8   24    0     -1.95     -0.16
    8   24    1     -2.09      1.44
    8   24    2     -2.23      0.42
    8   24    3      1.25      0.18
    8   24    4      1.30      0.92
    8   24    5      0.81     -0.86
    8   24    6      1.03      5.40
    8   24    7     -1.95     -0.79
    8   24    8      1.18     -3.59
    8   24    9      4.49      1.31
    8   24   10      2.21      2.46
    8   24   11     -7.05     -7.54
    8   24   12     -2.30     -2.82
    8   24   13      4.15      2.23
    8   24   14      1.69      5.62
    8   24   15     -2.37     -0.36
    9   24    0     -1.44      0.06
    9   24    1      0.31      1.62
    9   24    2      0.61      1.60
    9   24    3      2.65     -3.96
    9   24    4     -1.59     -1.43
    9   24    5     -2.58      3.42
    9   24    6      5.12      4.09
    9   24    7      2.34      1.54
    9   24    8      0.71     -2.42
    9   24    9     -3.18     -0.16
    9   24   10     -2.33      0.30
    9   24   11      0.79     -8.75
    9   24   12     -0.62      2.84
    9   24   13      0.88      1.68
    9   24   14      1.19     -2.31
   10   24    0     -1.10     -0.64
   10   24    1      0.68     -0.96
   10   24    2      0.91     -2.41
   10   24    3     -0.38     -3.02
   10   24    4     -0.70      0.87
   10   24    5      0.87      3.17
   10   24    6      4.11      0.25
   10   24    7     -2.70      2.52
   10   24    8     -1.74     -2.83
   10   24    9      3.67     -5.17
   10   24   10     -0.69      3.58
   10   24   11     -3.48      4.10
   10   24   12      0.76     -1.39
   10   24   13      2.00     -5.24
   11   24    0      2.50     -0.68
   11   24    1     -3.81     -0.88
   11   24    2     -3.36     -3.32
   11   24    3      3.48     -0.53
   11   24    4      2.87      2.61
   11   24    5     -4.70     -3.44
   11   24    6      0.40     -3.54
   11   24    7      8.20      3.13
   11   24    8     -0.19      0.62
   11   24    9     -1.24     -4.29
   11   24   10      1.01     -2.04
   11   24   11     -0.76      7.59
   11   24   12     -2.33      0.15
   11   24   13     -2.81     -3.66
   12   24    0      5.68     -0.26
   12   24    1     -3.19      3.14
   12   24    2     -2.46      3.80
   12   24    3      1.83     -3.32
   12   24    4     -3.77     -2.29
   12   24    5      1.26     -5.19
   12   24    6      3.23      0.58
   12   24    7      0.62      0.56
   12   24    8     -0.23     -2.08
   12   24    9      3.76      3.54
   12   24   10     -0.35     -0.05
   12   24   11     -1.50      0.03
   12   24   12     -2.35     -0.44
   13   24    0      1.70     -0.60
   13   24    1      1.11      2.19
   13   24    2      1.45     -0.51
   13   24    3     -0.51     -2.98
   13   24    4     -6.28      3.81
   13   24    5     -0.10     -0.81
   13   24    6      1.19     -4.17
   13   24    7     -0.74     -2.28
   13   24    8     -2.19      1.17
   13   24    9      0.08      1.65
   13   24   10      1.92      1.09
   13   24   11      4.15      0.71
   14   24    0     -1.50     -1.08
   14   24    1      6.98     -3.13
   14   24    2      1.79     -0.28
   14   24    3     -5.56      2.55
   14   24    4     -0.53     -4.55
   14   24    5     -0.85      2.80
   14   24    6     -2.67      2.71
   14   24    7      0.64     -4.67
   14   24    8     -2.57     -2.34
   14   24    9     -1.07     -0.68
   15   24    0     -0.01      0.54
   15   24    1     -6.56     -3.97
   15   24    2      1.97     -3.73
   15   24    3      6.44      2.93
   15   24    4     -0.32      0.64
   15   24    5     -8.89     -0.10
   15   24    6      1.67     -3.18
   15   24    7      4.98      0.81
   15   24    8     -2.59      3.92
   16   24    0     -1.30      2.02
   16   24    1      0.97     -1.10
   16   24    2      3.03     -0.19
   16   24    3      0.21     -0.51
   16   24    4     -0.53      2.65
   16   24    5     -0.34     -2.70
   16   24    6      1.26      1.64
   17   24    0     -3.64      1.42
   17   24    1      1.00      1.46
   17   24    2      2.98      2.00
    0   25    0      2.50     -1.06
    0   25    1      0.50      2.39
    0   25    2      5.06      0.61
    0   25    3      4.41     -1.04
    0   25    4      9.11      0.67
    0   25    5     -2.35     -0.30
    0   25    6     -7.56      0.79
    0   25    7      1.71     -0.22
    0   25    8      9.33     -1.69
    0   25    9    -12.33      0.29
    0   25   10     -6.14      0.59
    0   25   11      6.47     -0.05
    0   25   12      3.01      0.33
    0   25   13      3.92     -0.13
    0   25   14      5.65     -1.02
    0   25   15     -4.83      0.15
    0   25   16     -2.17      0.38
    1   25    0     -6.28      3.38
    1   25    1     -7.12     -3.80
    1   25    2     10.15      0.36
    1   25    3      4.19      3.32
    1   25    4     -0.67      6.80
    1   25    5     -4.67      4.47
    1   25    6     -2.39     -7.30
    1   25    7      2.56     -0.66
    1   25    8     -0.79      0.05
    1   25    9     -5.17     -0.95
    1   25   10      2.58     -2.50
    1   25   11      1.56      2.79
    1   25   12     -2.10     -0.57
    1   25   13      1.95     -0.36
    1   25   14      4.21      1.94
    1   25   15     -2.62      2.27
    1   25   16     -0.51     -1.44
    2   25    0     10.26      1.37
    2   25    1     -6.53     -3.09
    2   25    2    -12.43     -0.26
    2   25    3     -6.85     -1.45
    2   25    4      8.58      5.36
    2   25    5      0.43     -0.30
    2   25    6    -10.43     -1.02
    2   25    7     -0.21      0.64
    2   25    8     -1.21      2.53
    2   25    9      1.39      0.50
    2   25   10      3.09     -4.81
    2   25   11     -0.73     -3.92
    2   25   12     -2.84      4.71
    2   25   13     -2.58      4.88
    2   25   14     -1.60     -3.22
    2   25   15      3.12     -2.32
    2   25   16      2.16     -0.34
    3   25    0     -4.28     -1.65
    3   25    1     -7.52     -4.05
    3   25    2      0.34     -1.09
    3   25    3     -3.75     -2.61
    3   25    4     -7.03      3.91
    3   25    5     -2.70     -7.31
    3   25    6      4.11      6.40
    3   25    7     -0.45     -0.43
    3   25    8     -3.71      1.18
    3   25    9     -1.98      0.19
    3   25   10     -0.40     -0.43
    3   25   11     -0.15      0.75
    3   25   12     -1.34     -0.71
    3   25   13      1.28     -4.52
    3   25   14     -0.24      2.59
    3   25   15      2.53      2.65
    3   25   16     -2.59     -6.22
    4   25    0     -2.82     -2.18
    4   25    1      3.35     -3.98
    4   25    2      0.33     -3.62
    4   25    3     -4.55     -3.35
    4   25    4     -1.73      7.97
    4   25    5     -0.65     -0.42
    4   25    6      1.43      0.33
    4   25    7     -3.00     -6.02
    4   25    8      5.18      1.33
    4   25    9     -0.53      4.32
    4   25   10     -7.41     -0.46
    4   25   11     -0.73     -1.67
    4   25   12      5.48     -1.64
    4   25   13      1.62     -2.42
    4   25   14     -1.78      1.81
    4   25   15      0.11      0.48
    5   25    0     -2.76     -0.56
    5   25    1      5.02     -2.44
    5   25    2      4.99     -2.81
    5   25    3     -2.28      0.63
    5   25    4     -0.52      4.03
    5   25    5      1.56      1.31
    5   25    6     -0.83     -4.64
    5   25    7     -2.27      0.83
    5   25    8     -1.06      1.65
    5   25    9      1.77     -1.71
    5   25   10      5.35      0.37
    5   25   11      2.32     -1.38
    5   25   12     -1.32     -2.94
    5   25   13     -4.06      0.49
    5   25   14      1.13      3.92
    5   25   15      0.20      0.34
    6   25    0      1.79     -1.03
    6   25    1     -3.23     -2.25
    6   25    2      3.31     -0.43
    6   25    3      3.01      6.24
    6   25    4      3.35     -2.40
    6   25    5      1.06     -1.57
    6   25    6     -7.90     -3.30
    6   25    7     -3.74      1.97
    6   25    8      0.44      3.00
    6   25    9      4.76     -1.82
    6   25   10      8.40     -1.31
    6   25   11      1.36      1.86
    6   25   12     -5.05     -0.31
    6   25   13     -1.37     -1.41
    6   25   14      3.69      0.69
    6   25   15      0.12     -0.04
    7   25    0     -5.06     -0.19
    7   25    1     -5.67     -2.23
    7   25    2      4.11      1.07
    7   25    3      1.95      5.30
    7   25    4      0.06     -5.52
    7   25    5     -1.11     -0.35
    7   25    6     -3.03      6.59
    7   25    7      0.37     -3.71
    7   25    8      3.27     -4.32
    7   25    9     -0.30      4.48
    7   25   10      1.59     -0.79
    7   25   11      2.83      0.77
    7   25   12     -2.08      3.02
    7   25   13      0.49     -2.22
    7   25   14      2.20     -4.78
    8   25    0      4.04      0.51
    8   25    1     -3.16     -0.28
    8   25    2     -9.37     -2.08
    8   25    3      0.85      1.47
    8   25    4      6.33      3.66
    8   25    5     -4.19     -1.54
    8   25    6     -2.83      1.20
    8   25    7      9.06      3.69
    8   25    8      4.30     -2.55
    8   25    9     -8.05     -3.94
    8   25   10     -3.55     -0.14
    8   25   11      5.31      0.85
    8   25   12     -0.46      1.10
    8   25   13     -0.97     -0.09
    8   25   14      1.23     -1.81
    9   25    0      0.05      1.13
    9   25    1      1.86      1.23
    9   25    2     -1.40     -0.08
    9   25    3      1.23      0.17
    9   25    4     -1.64      1.90
    9   25    5     -2.85      0.69
    9   25    6      3.73     -2.67
    9   25    7      3.56      1.30
    9   25    8     -5.72      2.10
    9   25    9     -3.08     -3.81
    9   25   10      1.56      0.57
    9   25   11      1.87     -1.50
    9   25   12     -2.71     -1.46
    9   25   13      0.05      0.27
   10   25    0     -5.85      0.23
   10   25    1     -5.12      0.80
   10   25    2      7.67     -0.07
   10   25    3     10.28      3.52
   10   25    4     -4.73     -1.96
   10   25    5     -8.90      0.52
   10   25    6      2.53     -1.29
   10   25    7      1.09     -5.94
   10   25    8     -5.11      4.02
   10   25    9     -0.96      3.23
   10   25   10      1.87     -1.91
   10   25   11      0.04     -2.48
   10   25   12     -0.55     -0.26
   10   25   13      1.10     -3.26
   11   25    0     -8.08     -0.81
   11   25    1     -0.35      1.56
   11   25    2      7.33     -2.06
   11   25    3      4.07      1.63
   11   25    4     -2.93     -0.65
   11   25    5     -0.55      3.04
   11   25    6      0.35      1.34
   11   25    7     -2.54     -8.03
   11   25    8     -2.21     -1.70
   11   25    9     -0.79      6.40
   11   25   10      1.24      0.67
   11   25   11      0.31     -5.28
   11   25   12      2.12     -0.31
   12   25    0      3.02     -0.84
   12   25    1      3.18      1.96
   12   25    2     -7.44     -2.22
   12   25    3      0.84     -4.25
   12   25    4      8.73      2.30
   12   25    5      4.00      6.45
   12   25    6     -8.25     -0.85
   12   25    7     -4.26     -0.16
   12   25    8      2.61     -3.71
   12   25    9      3.62     -3.11
   12   25   10     -0.79      2.51
   12   25   11     -1.93      2.69
   13   25    0      2.80     -0.02
   13   25    1      0.17      0.07
   13   25    2     -5.82      0.58
   13   25    3      1.35     -2.44
   13   25    4      0.73      0.97
   13   25    5     -3.41      4.27
   13   25    6      1.59     -1.41
   13   25    7      2.62      1.25
   13   25    8     -2.35      0.12
   13   25    9      1.88      0.49
   13   25   10      0.74     -1.26
   14   25    0     -4.82      0.15
   14   25    1     -9.89      2.23
   14   25    2      4.96      3.04
   14   25    3      1.34     -2.82
   14   25    4    -10.36     -0.72
   14   25    5     -5.27      2.25
   14   25    6      7.92      0.48
   14   25    7      6.31      0.66
   14   25    8     -0.41      0.03
   15   25    0     -8.31     -0.52
   15   25    1     -4.72      3.20
   15   25    2     10.58      1.05
   15   25    3     -2.38     -4.30
   15   25    4    -10.40      0.41
   15   25    5      1.83      3.07
   15   25    6      4.67     -0.83
   16   25    0      0.92     -0.20
   16   25    1      3.10      1.02
   16   25    2      2.67     -3.14
   16   25    3      0.83     -2.98
    0   26    0      3.54      0.59
    0   26    1     -6.28      0.76
    0   26    2     -4.46      0.92
    0   26    3      4.85     -1.57
    0   26    4     -3.71      1.03
    0   26    5     -3.47      0.69
    0   26    6      4.92      1.13
    0   26    7      0.13     -0.37
    0   26    8     -0.37     -1.51
    0   26    9      4.75      0.12
    0   26   10      2.16      0.13
    0   26   11     -0.80     -0.96
    0   26   12     -5.23     -0.54
    0   26   13      1.89      0.90
    0   26   14      4.72      0.45
    0   26   15     -0.68     -0.52
    1   26    0     -6.55      1.00
    1   26    1      3.79      3.27
    1   26    2      1.21      0.24
    1   26    3     -4.26     -2.31
    1   26    4     -3.70      1.70
    1   26    5      4.61      5.47
    1   26    6      2.53      4.60
    1   26    7     -1.72      2.03
    1   26    8      0.48     -7.96
    1   26    9      1.58      5.42
    1   26   10      0.63      0.89
    1   26   11      1.22     -1.24
    1   26   12     -0.10     -1.73
    1   26   13      1.66     -4.87
    1   26   14     -2.74     -3.21
    1   26   15      0.35      2.79
    2   26    0     -0.64      0.14
    2   26    1     -7.44      4.92
    2   26    2     -2.63      8.73
    2   26    3      5.38     -5.03
    2   26    4      2.73     -8.62
    2   26    5      4.93      4.09
    2   26    6     -4.30     10.66
    2   26    7     -2.98     -1.66
    2   26    8      3.05    -11.86
    2   26    9      1.28      7.59
    2   26   10     -0.48      6.10
    2   26   11     -2.16     -2.60
    2   26   12     -0.49     -2.40
    2   26   13      6.10      0.87
    2   26   14     -0.96     -0.95
    2   26   15     -3.78      0.72
    3   26    0      6.93     -0.14
    3   26    1      4.45     -1.07
    3   26    2     -1.90      6.25
    3   26    3     -0.05     -1.19
    3   26    4      0.78     -4.74
    3   26    5      8.24      0.06
    3   26    6     -2.28      1.18
    3   26    7     -6.51     -0.76
    3   26    8      0.81      4.41
    3   26    9      3.34     -0.72
    3   26   10     -0.48     -2.19
    3   26   11     -2.27      1.24
    3   26   12     -1.31      2.64
    3   26   13      0.82      2.01
    3   26   14      2.71     -1.64
    3   26   15     -0.11     -1.21
    4   26    0     -8.51      0.15
    4   26    1      3.55     -5.70
    4   26    2      9.15     -3.39
    4   26    3      0.32     -3.28
    4   26    4     -8.81      5.71
    4   26    5     -0.81      7.46
    4   26    6      3.52     -4.64
    4   26    7     -0.56     -4.93
    4   26    8     -3.75     11.49
    4   26    9      0.59      0.11
    4   26   10      1.94     -5.50
    4   26   11      0.97     -1.76
    4   26   12      1.59      1.78
    4   26   13     -5.13     -1.59
    4   26   14     -0.17     -2.75
    4   26   15      2.99      0.33
    5   26    0      2.19     -0.42
    5   26    1     -3.70     -4.85
    5   26    2     -8.61     -2.17
    5   26    3      1.26     -1.81
    5   26    4      2.33      4.24
    5   26    5     -4.96     -0.78
    5   26    6     -4.20     -0.94
    5   26    7      4.69      0.04
    5   26    8      0.17      3.64
    5   26    9     -3.50     -0.61
    5   26   10      2.01     -0.49
    5   26   11      2.74     -3.13
    5   26   12     -0.31     -2.30
    5   26   13     -3.15     -1.56
    5   26   14      3.49      2.37
    6   26    0     -5.87     -0.44
    6   26    1     -0.59      1.16
    6   26    2     -0.49      3.76
    6   26    3     -2.21     -5.04
    6   26    4     -1.23     -3.27
    6   26    5      3.29     -1.99
    6   26    6     -1.63      3.17
    6   26    7      0.03     -3.14
    6   26    8      0.91     -6.43
    6   26    9     -2.31      2.25
    6   26   10     -3.54      5.86
    6   26   11      1.64     -2.69
    6   26   12      2.40     -4.35
    6   26   13     -0.39      1.77
    6   26   14      0.86      4.50
    7   26    0     -1.45      0.67
    7   26    1      1.38      0.59
    7   26    2      0.15      1.62
    7   26    3      0.19     -3.18
    7   26    4      4.82     -1.50
    7   26    5      2.94      0.92
    7   26    6     -2.98     -1.85
    7   26    7     -0.86     -0.79
    7   26    8     -1.87     -0.91
    7   26    9     -0.58     -0.82
    7   26   10     -2.56     -1.51
    7   26   11     -0.73      2.66
    7   26   12      1.42      2.36
    7   26   13      1.19     -0.44
    8   26    0      1.81      2.00
    8   26    1     -0.10     -2.35
    8   26    2      0.18      0.68
    8   26    3      1.42     -1.66
    8   26    4      1.32     -2.68
    8   26    5     -0.39      3.42
    8   26    6      1.90     -0.32
    8   26    7     -0.24     -2.47
    8   26    8     -5.90      1.87
    8   26    9      1.65      2.88
    8   26   10      1.88     -3.14
    8   26   11     -0.67      2.37
    8   26   12     -1.73      2.34
    8   26   13      0.01     -1.18
    9   26    0      6.52      0.80
    9   26    1     -3.48     -0.92
    9   26    2     -3.43      0.35
    9   26    3      2.77     -0.21
    9   26    4      0.06     -1.43
    9   26    5     -5.15     -3.34
    9   26    6     -1.61     -0.67
    9   26    7      4.02     -1.40
    9   26    8      4.31      2.59
    9   26    9      0.70      4.21
    9   26   10     -5.70     -0.70
    9   26   11      2.02      0.86
    9   26   12      1.60      0.91
   10   26    0     -5.64     -0.21
   10   26    1     -7.24      3.71
   10   26    2      8.10     -2.03
   10   26    3      0.76     -2.72
   10   26    4     -9.21      3.03
   10   26    5     -0.27     -2.32
   10   26    6      3.34     -1.44
   10   26    7     -2.11      2.32
   10   26    8      1.39      0.62
   10   26    9      5.85     -1.17
   10   26   10     -1.38      1.60
   10   26   11     -2.85      0.63
   10   26   12      0.59     -0.39
   11   26    0     -1.01      0.00
   11   26    1     -2.97     -0.49
   11   26    2      1.35     -0.03
   11   26    3     -0.61      4.71
   11   26    4     -2.71      1.75
   11   26    5     -0.02     -0.43
   11   26    6      0.46     -0.77
   11   26    7      0.58      5.80
   11   26    8     -2.09      0.00
   11   26    9     -2.79     -6.08
   11   26   10      4.52      0.66
   11   26   11      1.62      0.31
   12   26    0      0.93      0.68
   12   26    1      1.92     -4.16
   12   26    2     -2.90      5.25
   12   26    3      0.58      6.04
   12   26    4      2.69     -3.58
   12   26    5      1.35      5.04
   12   26    6      0.34     -0.32
   12   26    7     -3.50     -2.57
   12   26    8     -4.44     -0.81
   12   26    9     -0.98     -0.44
   12   26   10      5.66      2.29
   13   26    0     -4.32      1.06
   13   26    1      4.14     -0.68
   13   26    2      2.34      1.09
   13   26    3     -0.28      0.34
   13   26    4      2.95      3.61
   13   26    5      2.29      2.72
   13   26    6     -0.04     -5.57
   13   26    7     -3.94     -2.48
   13   26    8     -0.37      3.65
   14   26    0     -6.26      0.18
   14   26    1      2.17      1.94
   14   26    2      4.43     -0.20
   14   26    3     -3.75      0.06
   14   26    4      0.39      1.11
   14   26    5      6.86     -2.70
   14   26    6     -0.66      3.62
   14   26    7     -4.02      0.52
   15   26    0      0.68     -0.45
   15   26    1     -8.46      0.32
   15   26    2     -3.29     -4.20
   15   26    3      4.89      2.77
   15   26    4      1.00      0.53
    0   27    0      4.37     -1.05
    0   27    1      7.15      0.18
    0   27    2     -4.08      0.89
    0   27    3      3.11      0.20
    0   27    4     -3.46     -1.32
    0   27    5      1.18      0.15
    0   27    6     -0.12      0.47
    0   27    7     -3.35     -0.01
    0   27    8      3.27      0.32
    0   27    9      3.15     -0.02
    0   27   10     -2.92      0.08
    0   27   11     -4.51     -0.22
    0   27   12     -2.37     -0.30
    0   27   13      2.19     -0.12
    0   27   14     -0.92      0.35
    1   27    0    -12.95     -2.53
    1   27    1      2.10     -1.87
    1   27    2     10.93     -2.22
    1   27    3      3.90      1.46
    1   27    4    -13.83     -2.05
    1   27    5      1.98      2.34
    1   27    6      8.69     -2.48
    1   27    7     -4.60     -0.75
    1   27    8     -3.25      0.82
    1   27    9      4.94     -0.28
    1   27   10      0.77      4.32
    1   27   11     -3.80      1.10
    1   27   12      1.71     -3.00
    1   27   13      1.85     -6.41
    1   27   14     -3.25      2.25
    2   27    0      7.52     -2.09
    2   27    1      2.92      0.77
    2   27    2     -5.76     -1.23
    2   27    3     -5.31     -0.19
    2   27    4      3.04     -1.26
    2   27    5     10.48      0.58
    2   27    6      1.43     -6.63
    2   27    7     -5.22      0.55
    2   27    8      0.39      1.44
    2   27    9      4.38      2.59
    2   27   10     -3.06      1.30
    2   27   11      1.47     -3.69
    2   27   12      8.77     -0.52
    2   27   13     -2.03      3.08
    2   27   14     -5.94      1.98
    3   27    0     -2.01      0.40
    3   27    1     -0.68      2.25
    3   27    2      6.41     -0.91
    3   27    3     -2.44      3.75
    3   27    4     -5.08     -0.08
    3   27    5      8.58     -1.48
    3   27    6     11.11     -3.14
    3   27    7     -1.18      3.19
    3   27    8     -5.31     -0.47
    3   27    9      2.39      0.79
    3   27   10     -0.21     -2.63
    3   27   11      2.31      1.79
    3   27   12      0.47      1.32
    3   27   13     -2.73      0.19
    3   27   14      0.10      2.52
    4   27    0      1.29      3.17
    4   27    1     -4.84      1.21
    4   27    2     -1.47      0.89
    4   27    3      6.25      6.37
    4   27    4      5.19     -1.88
    4   27    5     -1.81      0.95
    4   27    6     -2.22      3.04
    4   27    7      3.44      0.52
    4   27    8      2.80     -2.34
    4   27    9     -1.22      3.46
    4   27   10     -2.04     -0.18
    4   27   11      0.93     -1.22
    4   27   12     -2.53      0.98
    4   27   13     -0.35      1.10
    4   27   14      0.97     -1.22
    5   27    0     -1.60      4.16
    5   27    1      2.61      0.99
    5   27    2     -2.07      3.95
    5   27    3      1.78     -1.52
    5   27    4      1.04     -4.93
    5   27    5     -3.31      3.10
    5   27    6     -2.44      2.29
    5   27    7      4.10     -0.50
    5   27    8      2.58     -0.93
    5   27    9     -6.85     -1.55
    5   27   10     -1.18      5.17
    5   27   11      2.78      1.94
    5   27   12      0.62     -2.17
    5   27   13     -0.03     -0.35
    6   27    0      5.74      0.44
    6   27    1      3.25      0.37
    6   27    2     -6.58     -0.52
    6   27    3      1.79     -5.27
    6   27    4     -0.24      0.99
    6   27    5     -1.89      0.52
    6   27    6      1.56     -4.29
    6   27    7      0.70     -1.35
    6   27    8      1.84      3.77
    6   27    9     -3.01     -2.82
    6   27   10     -3.73      1.77
    6   27   11     -1.74      4.12
    6   27   12      1.57     -0.67
    6   27   13      2.80     -1.20
    7   27    0     -8.60     -1.36
    7   27    1      0.02      0.32
    7   27    2      9.32      1.20
    7   27    3      4.19     -2.23
    7   27    4    -11.05     -2.33
    7   27    5     -0.81     -0.20
    7   27    6      9.38      3.57
    7   27    7     -3.45     -3.06
    7   27    8     -5.38     -3.65
    7   27    9      5.06      4.22
    7   27   10      1.13      0.10
    7   27   11     -4.30     -2.36
    7   27   12     -2.74      1.21
    7   27   13      1.09      1.09
    8   27    0      2.20     -0.78
    8   27    1     -0.87      0.40
    8   27    2      1.00      3.24
    8   27    3      1.30      0.22
    8   27    4     -2.34     -0.62
    8   27    5     -1.39     -0.65
    8   27    6     -2.14      0.17
    8   27    7      0.91      1.55
    8   27    8     -0.45     -3.14
    8   27    9      2.27     -0.37
    8   27   10      1.65     -0.12
    8   27   11     -1.01      0.01
    8   27   12     -0.39     -0.27
    9   27    0     -2.99      0.21
    9   27    1      5.39     -0.02
    9   27    2      4.73      1.27
    9   27    3     -8.73     -1.58
    9   27    4     -3.07      1.62
    9   27    5      6.25      1.79
    9   27    6     -0.08     -2.93
    9   27    7      0.26     -0.18
    9   27    8     -0.90      0.62
    9   27    9     -1.62     -1.89
    9   27   10      1.63     -0.09
    9   27   11      0.82      2.83
   10   27    0     -0.07      0.10
   10   27    1     -3.32     -1.86
   10   27    2     -2.92     -3.04
   10   27    3     -0.03      1.11
   10   27    4      7.23      4.57
   10   27    5      1.43     -3.93
   10   27    6     -0.14     -1.84
   10   27    7      0.53      4.95
   10   27    8      0.98      3.86
   10   27    9     -1.96     -1.93
   10   27   10     -2.22     -1.81
   11   27    0     -2.57      0.53
   11   27    1     -3.05     -1.45
   11   27    2     -0.25     -1.95
   11   27    3      0.11      0.64
   11   27    4     -0.20      2.11
   11   27    5      1.05     -4.99
   11   27    6      6.53      1.05
   11   27    7     -3.02      6.08
   11   27    8     -2.54      2.80
   11   27    9      1.40      0.16
   12   27    0      4.07      0.51
   12   27    1     -4.14     -0.88
   12   27    2     -1.66     -1.41
   12   27    3     -1.36     -0.46
   12   27    4     -1.63     -0.05
   12   27    5      2.21     -3.51
   12   27    6     -1.20     -1.35
   12   27    7     -2.45      2.36
   12   27    8      2.67      3.40
   13   27    0     -1.53     -0.03
   13   27    1      0.54     -1.71
   13   27    2      6.66     -0.69
   13   27    3     -3.22      2.08
   13   27    4     -4.14     -0.85
   13   27    5      3.20     -3.06
   13   27    6     -1.02     -2.30
   13   27    7      0.29     -2.76
   14   27    0     -0.14      0.06
   14   27    1      1.91     -1.34
   14   27    2      2.56      2.30
   14   27    3      0.08      2.00
   14   27    4      1.27     -0.86
    0   28    0     -5.56      0.47
    0   28    1     -4.43     -0.67
    0   28    2      2.80     -3.94
    0   28    3     11.24     -0.08
    0   28    4      5.63      0.18
    0   28    5    -10.33      0.91
    0   28    6     -1.15     -0.15
    0   28    7      4.71      0.18
    0   28    8     -3.16      0.49
    0   28    9     -0.17     -0.21
    0   28   10      0.13      0.99
    0   28   11     -0.69      0.05
    0   28   12     -4.22     -0.43
    0   28   13      0.34      0.43
    1   28    0      2.51     -0.77
    1   28    1      5.37      0.37
    1   28    2     -0.23     -2.92
    1   28    3     -3.09     -2.99
    1   28    4      1.05      6.83
    1   28    5      0.12     -3.89
    1   28    6     -0.63    -13.93
    1   28    7     -1.52      1.51
    1   28    8      0.54     16.98
    1   28    9     -0.57     -2.21
    1   28   10     -2.08    -11.14
    1   28   11      0.60      0.56
    1   28   12      2.00      6.26
    1   28   13     -0.03     -2.88
    2   28    0      8.28     -0.69
    2   28    1     -9.36      3.45
    2   28    2     -2.67      3.94
    2   28    3      1.52     -5.40
    2   28    4     -2.81      4.95
    2   28    5     -3.85     -2.41
    2   28    6      1.69     -9.19
    2   28    7      0.91     -0.39
    2   28    8      1.21      1.56
    2   28    9     -2.24     -2.98
    2   28   10      1.25     -1.38
    2   28   11     -0.29     -1.05
    2   28   12     -0.83      1.78
    2   28   13     -0.09      1.85
    3   28    0      4.15      0.20
    3   28    1      0.71      1.76
    3   28    2     -3.79     -0.01
    3   28    3     -6.43      1.44
    3   28    4      1.53      2.24
    3   28    5      0.81     -1.38
    3   28    6      1.89      0.79
    3   28    7      1.83      2.32
    3   28    8     -1.40     -8.62
    3   28    9     -0.78     -4.43
    3   28   10      1.82      5.57
    3   28   11     -0.57      1.49
    3   28   12     -1.29     -3.04
    3   28   13     -1.29      2.42
    4   28    0    -13.55      0.45
    4   28    1     -2.34      1.98
    4   28    2      9.16     -7.76
    4   28    3      0.42      2.64
    4   28    4     -3.93     -1.12
    4   28    5     -0.14      4.25
    4   28    6      5.23      6.07
    4   28    7      3.10     -1.86
    4   28    8     -5.22     -2.96
    4   28    9     -2.26      3.18
    4   28   10      1.69      1.36
    4   28   11      2.64      1.19
    4   28   12      0.85     -1.10
    4   28   13     -1.36     -0.79
    5   28    0     10.47      0.23
    5   28    1      2.13      2.18
    5   28    2     -8.97     -3.62
    5   28    3      1.20      4.83
    5   28    4     10.68     -4.83
    5   28    5      1.53     -1.86
    5   28    6     -5.00      2.58
    5   28    7     -2.69      0.65
    5   28    8      1.65      3.24
    5   28    9      1.24      2.20
    5   28   10     -0.24     -5.44
    5   28   11     -0.55      2.66
    5   28   12     -2.39      3.70
    6   28    0      1.01      0.63
    6   28    1      2.78      2.22
    6   28    2      3.90      2.27
    6   28    3      1.52     -0.57
    6   28    4      0.04     -5.48
    6   28    5     -1.75      2.56
    6   28    6      2.16      1.81
    6   28    7     -1.57     -2.39
    6   28    8      1.77     -0.53
    6   28    9      1.35      0.94
    6   28   10     -1.30     -2.91
    6   28   11     -2.21      1.15
    6   28   12     -0.91      2.68
    7   28    0      2.12     -0.15
    7   28    1      2.38      1.59
    7   28    2      2.47      2.71
    7   28    3     -2.93     -3.36
    7   28    4     -2.74     -1.21
    7   28    5      0.99      4.28
    7   28    6      3.06      0.95
    7   28    7     -0.33      2.42
    7   28    8      1.87     -1.24
    7   28    9     -0.20     -2.96
    7   28   10      1.44      0.24
    7   28   11     -1.32     -0.54
    8   28    0     -4.01     -0.70
    8   28    1     -5.12      3.51
    8   28    2      4.73      0.13
    8   28    3      0.33     -3.78
    8   28    4     -7.67      3.24
    8   28    5      0.93      2.19
    8   28    6      4.26     -1.97
    8   28    7      1.46      2.97
    8   28    8     -0.56     -1.01
    8   28    9     -3.00     -2.36
    8   28   10      4.24      2.44
    8   28   11      1.52     -1.49
    9   28    0      2.90     -0.92
    9   28    1     -2.12      1.26
    9   28    2     -4.06     -2.95
    9   28    3      0.52      2.17
    9   28    4      3.29      2.10
    9   28    5      1.11     -2.16
    9   28    6     -4.37     -0.16
    9   28    7      1.46     -1.52
    9   28    8      2.72     -2.91
    9   28    9     -1.79     -0.35
    9   28   10     -0.96      3.45
   10   28    0     -3.82      0.00
   10   28    1     -1.59     -0.95
   10   28    2      4.05     -3.43
   10   28    3      2.88      0.19
   10   28    4     -1.61      0.70
   10   28    5     -0.49      2.50
   10   28    6      1.19      1.75
   10   28    7     -0.19     -5.63
   10   28    8     -2.89     -1.36
   10   28    9      1.88      1.83
   11   28    0     -1.32      0.05
   11   28    1      4.27     -2.41
   11   28    2      1.67      1.09
   11   28    3     -0.12      1.42
   11   28    4     -2.06     -0.05
   11   28    5     -1.97     -2.59
   11   28    6      2.18      1.43
   11   28    7      0.53      2.79
   11   28    8     -0.52     -0.26
   12   28    0     -5.81     -0.58
   12   28    1      1.19     -0.08
   12   28    2      2.29      0.27
   12   28    3      0.25     -1.38
   12   28    4     -1.84     -0.34
   12   28    5     -1.99     -2.67
   12   28    6      1.58      1.36
   12   28    7     -0.51      2.91
   13   28    0     -2.05     -0.34
   13   28    1      1.19      1.34
   13   28    2      0.25     -3.70
   13   28    3     -1.01     -3.62
   13   28    4      0.42      0.52
    0   29    0     11.78      0.98
    0   29    1     -1.84      1.74
    0   29    2    -12.46     -0.63
    0   29    3     -1.51     -0.21
    0   29    4      9.90      0.85
    0   29    5     -7.50     -0.96
    0   29    6     -1.70     -0.55
    0   29    7     13.89      0.49
    0   29    8     -1.12      0.02
    0   29    9    -10.62      0.23
    0   29   10     -3.07     -0.68
    0   29   11      5.87      0.35
    0   29   12      1.28      0.75
    1   29    0     -7.47      2.40
    1   29    1     -7.30     -0.34
    1   29    2      6.59     -1.66
    1   29    3      3.29     -0.98
    1   29    4     -3.82      7.99
    1   29    5     -5.75      2.91
    1   29    6      4.69     -0.05
    1   29    7      5.37      0.01
    1   29    8     -5.48      5.58
    1   29    9     -5.35     -2.44
    1   29   10      3.19     -4.62
    1   29   11      2.47      0.32
    1   29   12     -1.11      3.23
    2   29    0      7.02      4.78
    2   29    1      2.42     -1.27
    2   29    2     -6.07      0.51
    2   29    3      0.37      3.05
    2   29    4      6.72      4.76
    2   29    5     -0.72     -1.13
    2   29    6     -6.84     -0.74
    2   29    7     -5.16     -2.01
    2   29    8      2.40      5.07
    2   29    9     -0.04      1.65
    2   29   10      2.83     -3.02
    2   29   11      0.16     -5.14
    2   29   12     -1.42      0.92
    3   29    0     -8.38      0.09
    3   29    1      8.34      0.35
    3   29    2      7.39      2.26
    3   29    3     -5.77     -2.11
    3   29    4     -5.23     -3.31
    3   29    5     -0.69     -2.23
    3   29    6     -0.16     -0.75
    3   29    7     -0.79      0.45
    3   29    8     -1.37      0.55
    3   29    9      0.43     -1.15
    3   29   10      3.30      1.68
    3   29   11     -0.50     -0.04
    3   29   12     -2.42     -0.56
    4   29    0     -1.41     -7.46
    4   29    1     -5.86     -2.53
    4   29    2      2.00      1.44
    4   29    3     -3.49     -3.16
    4   29    4     -1.84     -4.85
    4   29    5     -3.42     -1.81
    4   29    6     -4.94     -0.92
    4   29    7      5.69      1.95
    4   29    8      1.62      0.68
    4   29    9     -1.11     -1.09
    4   29   10      1.91      1.85
    4   29   11     -0.01     -1.09
    4   29   12     -1.98     -1.52
    5   29    0     -4.31     -6.08
    5   29    1      1.15     -3.27
    5   29    2      5.49      0.78
    5   29    3     -7.76      1.34
    5   29    4     -4.40     -0.50
    5   29    5      2.69     -1.32
    5   29    6      0.03      1.28
    5   29    7     -1.26      0.17
    5   29    8     -0.54     -0.48
    5   29    9      1.11     -1.72
    5   29   10      1.45     -1.97
    5   29   11      0.20     -0.13
    6   29    0      5.60     -0.50
    6   29    1      5.56      0.10
    6   29    2     -6.23      0.31
    6   29    3     -1.42      4.73
    6   29    4      8.54      4.93
    6   29    5      0.05     -3.37
    6   29    6     -3.61     -0.49
    6   29    7     -3.21      0.03
    6   29    8      1.37     -1.01
    6   29    9      2.68      0.50
    6   29   10     -2.46     -3.41
    6   29   11     -1.34     -1.91
    7   29    0     -6.47      2.57
    7   29    1     -2.88     -0.55
    7   29    2      4.16      3.69
    7   29    3      3.62      5.27
    7   29    4      0.58     -3.04
    7   29    5     -1.56     -2.85
    7   29    6      2.30      3.37
    7   29    7     -0.62      1.43
    7   29    8     -2.44     -2.07
    7   29    9      0.13      2.41
    7   29   10      0.74      1.22
    8   29    0      3.81      1.31
    8   29    1     -6.16     -3.34
    8   29    2     -4.59     -1.96
    8   29    3      2.55      4.55
    8   29    4      3.17     -0.89
    8   29    5     -1.31      0.21
    8   29    6     -0.18     -0.44
    8   29    7      0.92      2.20
    8   29    8      1.30      3.05
    8   29    9     -2.33     -2.67
    9   29    0     -2.59     -0.46
    9   29    1      6.31     -0.28
    9   29    2      1.31     -4.57
    9   29    3     -2.86      0.36
    9   29    4     -3.99      0.51
    9   29    5      0.10      1.49
    9   29    6      4.66      1.96
    9   29    7      0.44     -0.59
    9   29    8     -1.29     -1.54
    9   29    9     -0.81     -2.25
   10   29    0      8.81     -1.12
   10   29    1      5.13      1.73
   10   29    2     -7.28      0.32
   10   29    3      2.09      1.70
   10   29    4      3.62     -1.82
   10   29    5     -4.78     -4.89
   10   29    6     -3.36      2.28
   10   29    7      4.94      1.76
   10   29    8      1.19     -3.64
   11   29    0      0.09     -0.53
   11   29    1      3.81      0.93
   11   29    2      2.66      4.51
   11   29    3     -0.13      3.16
   11   29    4     -3.77     -3.77
   11   29    5     -1.83     -2.99
   11   29    6      1.68      0.86
   12   29    0      0.62     -0.34
   12   29    1     -2.65      1.30
   12   29    2     -1.02      2.02
   12   29    3      1.00      0.94
   12   29    4      0.94     -0.11
    0   30    0     -1.74      0.99
    0   30    1     -8.93      0.53
    0   30    2      0.18      1.11
    0   30    3      2.14      0.44
    0   30    4     -2.07      0.76
    0   30    5      4.21     -1.54
    0   30    6      1.54     -0.23
    0   30    7      4.19     -0.05
    0   30    8     -3.09     -1.18
    0   30    9     -3.03      0.36
    0   30   10      4.48     -0.07
    0   30   11      2.59      0.08
    1   30    0     -1.29      0.00
    1   30    1      3.94    -11.88
    1   30    2      0.86     -6.85
    1   30    3     -3.62     15.77
    1   30    4     -1.66      1.00
    1   30    5      4.16     -2.70
    1   30    6      1.69     -3.50
    1   30    7     -0.81      1.09
    1   30    8     -0.73      9.10
    1   30    9      2.39     -2.08
    1   30   10     -0.16     -3.83
    1   30   11     -0.34      2.59
    2   30    0     -1.21     -0.44
    2   30    1      1.12     -8.39
    2   30    2     -0.57     -3.51
    2   30    3      6.96      8.85
    2   30    4      2.87      3.12
    2   30    5    -11.05      4.53
    2   30    6     -2.18      0.77
    2   30    7      2.52     -0.50
    2   30    8      0.91      3.28
    2   30    9      5.06      0.82
    2   30   10      0.24     -2.08
    2   30   11     -3.86     -1.56
    3   30    0      0.91      0.25
    3   30    1     10.33      0.67
    3   30    2     -3.53      4.37
    3   30    3     -2.74     -2.03
    3   30    4      5.32      2.35
    3   30    5     -2.49     -1.48
    3   30    6     -5.35     -0.01
    3   30    7     -1.36      3.53
    3   30    8      1.29     -1.09
    3   30    9      2.07      0.76
    3   30   10     -1.01     -1.30
    3   30   11     -2.33     -1.55
    4   30    0    -10.64      0.91
    4   30    1     -0.36      4.56
    4   30    2      9.40      5.04
    4   30    3      0.29    -10.91
    4   30    4     -7.44     -1.37
    4   30    5      2.75     -1.34
    4   30    6      2.07     -3.13
    4   30    7     -2.01     -1.14
    4   30    8     -1.18      1.21
    4   30    9     -3.30      2.12
    4   30   10     -0.89      0.73
    5   30    0      6.52     -0.01
    5   30    1     -1.09      0.20
    5   30    2     -5.24      0.86
    5   30    3     -1.40     -5.55
    5   30    4      1.65      1.35
    5   30    5      5.52      1.09
    5   30    6     -3.61     -3.09
    5   30    7     -2.12     -2.58
    5   30    8      2.75      3.87
    5   30    9      0.51     -0.41
    5   30   10      0.92      0.63
    6   30    0     -1.13      0.07
    6   30    1     -4.28     -1.81
    6   30    2     -0.81     -2.56
    6   30    3      2.82      0.62
    6   30    4     -2.77      5.55
    6   30    5     -3.17      2.20
    6   30    6     -0.04     -0.22
    6   30    7      5.93     -3.79
    6   30    8      0.64      0.73
    6   30    9     -0.05      0.54
    7   30    0      2.73      0.22
    7   30    1      2.12     -2.51
    7   30    2     -5.72     -1.70
    7   30    3      0.20      3.71
    7   30    4      2.16      1.07
    7   30    5     -3.48     -3.05
    7   30    6     -0.50      0.73
    7   30    7      2.14     -0.83
    7   30    8     -1.83      0.16
    7   30    9      1.93     -0.26
    8   30    0     -3.29      0.28
    8   30    1     -1.82     -1.22
    8   30    2      0.99     -1.51
    8   30    3      4.38     -1.88
    8   30    4      0.91      0.99
    8   30    5     -4.24      2.51
    8   30    6      0.60     -3.12
    8   30    7     -1.16     -2.02
    8   30    8     -2.86      3.06
    9   30    0      2.20      0.04
    9   30    1      1.70     -1.49
    9   30    2     -1.91      1.66
    9   30    3     -2.50     -0.21
    9   30    4      2.28      2.31
    9   30    5      3.93      1.63
    9   30    6     -1.57     -2.63
    9   30    7     -3.78      1.12
   10   30    0     -2.78      0.54
   10   30    1      0.13     -0.92
   10   30    2      3.88      1.13
   10   30    3     -1.49      0.62
   10   30    4     -4.47      2.30
   10   30    5      2.06     -0.30
   10   30    6      2.23     -2.70
   11   30    0      0.48      0.29
   11   30    1      4.67     -1.21
   11   30    2      0.86     -0.79
   11   30    3     -3.06      2.97
    0   31    0    -11.12      0.44
    0   31    1      2.72      1.11
    0   31    2     -0.20     -0.21
    0   31    3     -1.95     -0.75
    0   31    4      5.68      0.96
    0   31    5      4.55     -0.48
    0   31    6      1.11     -0.62
    0   31    7     -5.53      2.46
    0   31    8     -1.99      0.30
    0   31    9      7.78     -3.17
    0   31   10      1.95     -0.16
    1   31    0    -16.13     -5.38
    1   31    1     -7.54      2.16
    1   31    2     11.07     -1.90
    1   31    3      5.66     -5.09
    1   31    4     -5.11     -4.39
    1   31    5      3.28     -0.75
    1   31    6      4.94      0.01
    1   31    7     -4.99     -0.44
    1   31    8     -2.41     -3.01
    1   31    9      5.89      1.69
    1   31   10      1.38      2.47
    2   31    0      9.58     -3.98
    2   31    1     -1.47     -0.16
    2   31    2     -4.06     -1.33
    2   31    3      0.65      1.23
    2   31    4      2.07     -0.84
    2   31    5      5.29     -1.86
    2   31    6     -4.97      0.24
    2   31    7     -2.87      0.51
    2   31    8      4.67     -0.50
    2   31    9      0.84      3.03
    2   31   10     -1.82      0.28
    3   31    0      1.92      0.74
    3   31    1     15.55      0.66
    3   31    2      0.89      1.89
    3   31    3    -10.02      1.46
    3   31    4     -3.85      1.63
    3   31    5      5.59      2.14
    3   31    6     -0.17     -0.24
    3   31    7     -0.79      0.88
    3   31    8      1.77      0.79
    3   31    9     -1.57     -3.34
    4   31    0      8.03      4.49
    4   31    1      4.79      0.38
    4   31    2     -7.35      1.40
    4   31    3      4.43      3.11
    4   31    4      4.14     -0.94
    4   31    5     -4.17     -0.13
    4   31    6      0.39     -1.28
    4   31    7      2.65     -1.77
    4   31    8      0.37      0.40
    4   31    9     -2.48     -0.04
    5   31    0     -1.99      5.24
    5   31    1     -2.57      1.25
    5   31    2      3.51     -2.11
    5   31    3      8.99      0.13
    5   31    4     -2.58     -2.28
    5   31    5     -3.88      1.11
    5   31    6      5.41      2.11
    5   31    7      3.24     -2.49
    5   31    8     -2.64     -1.67
    6   31    0     -0.49      1.05
    6   31    1     -0.57      2.26
    6   31    2      0.24     -2.93
    6   31    3     -1.00     -4.91
    6   31    4      0.95      1.66
    6   31    5      1.12      4.49
    6   31    6     -2.09      0.35
    6   31    7      3.37     -0.25
    6   31    8      0.89     -0.02
    7   31    0     -8.33     -1.58
    7   31    1      4.77      0.25
    7   31    2      5.61      0.42
    7   31    3     -6.48     -3.69
    7   31    4     -4.62     -1.76
    7   31    5      2.35      0.64
    7   31    6      1.37      1.21
    7   31    7      1.07      1.89
    8   31    0      5.98     -0.97
    8   31    1      2.72     -0.25
    8   31    2     -4.59      0.26
    8   31    3      0.08     -1.43
    8   31    4      2.13     -1.91
    8   31    5     -0.33     -2.70
    8   31    6     -0.57      0.92
    9   31    0     -1.63      0.31
    9   31    1     -4.73      1.04
    9   31    2      3.55      3.70
    9   31    3      2.77     -1.40
    9   31    4     -3.47     -2.10
    9   31    5      0.47     -0.27
   10   31    0      2.79      0.32
   10   31    1    -10.02     -1.08
   10   31    2     -3.27      4.03
    0   32    0      2.59      0.21
    0   32    1     -3.99     -0.26
    0   32    2     -2.08     -0.68
    0   32    3      1.36      0.49
    0   32    4      0.78     -0.33
    0   32    5     -8.36      0.18
    0   32    6     -2.97     -0.77
    0   32    7      2.86      0.55
    0   32    8      2.41      1.03
    1   32    0      0.22      0.70
    1   32    1     -2.00      4.22
    1   32    2      0.85      3.04
    1   32    3     -1.21     -2.54
    1   32    4     -1.06     -3.61
    1   32    5      1.48     -6.05
    1   32    6      0.99      3.16
    1   32    7     -3.67      3.06
    1   32    8     -0.23     -4.78
    2   32    0      5.25      0.22
    2   32    1     -5.21      5.02
    2   32    2     -2.62     -1.17
    2   32    3      2.57     -6.90
    2   32    4      1.86     -2.62
    2   32    5      5.57      1.19
    2   32    6      0.37      4.33
    2   32    7     -4.25      1.03
    2   32    8     -1.44     -3.11
    3   32    0      6.99     -1.11
    3   32    1      2.89     -0.22
    3   32    2     -3.68     -5.14
    3   32    3     -4.23      1.52
    3   32    4     -0.33     -0.49
    3   32    5      6.54      1.29
    3   32    6      0.90      1.25
    3   32    7     -0.99      0.82
    3   32    8      0.88      1.52
    4   32    0     -3.75     -0.63
    4   32    1     -3.48     -1.93
    4   32    2      4.27     -2.31
    4   32    3      0.78      5.58
    4   32    4     -4.61     -0.19
    4   32    5     -2.71      0.10
    4   32    6      4.98     -1.22
    4   32    7      3.60     -1.51
    5   32    0      3.20     -0.39
    5   32    1     -0.60     -0.03
    5   32    2     -3.40      2.16
    5   32    3     -1.19      2.54
    5   32    4      6.20      1.15
    5   32    5     -0.89     -1.59
    5   32    6     -1.70     -3.30
    5   32    7     -2.44      2.69
    6   32    0     -3.19     -0.08
    6   32    1      0.54      2.61
    6   32    2      3.91      0.37
    6   32    3     -0.35     -2.52
    6   32    4     -0.52      2.95
    6   32    5     -0.04      0.47
    6   32    6     -0.55     -2.97
    7   32    0      0.67     -0.01
    7   32    1      2.09      0.48
    7   32    2      1.39     -1.67
    7   32    3     -2.32      1.93
    7   32    4     -1.92     -0.63
    7   32    5      3.72     -2.43
    8   32    0     -1.19      0.06
    8   32    1     -4.99     -0.02
    8   32    2      1.82     -2.83
    8   32    3      3.52      1.81
    0   33    0      6.93      2.81
    0   33    1      3.10     -0.45
    0   33    2      2.01     -2.07
    0   33    3     -6.62      0.05
    0   33    4     -4.94      0.13
    0   33    5      0.69      0.09
    0   33    6     -3.13      0.61
    1   33    0     -0.22      3.54
    1   33    1     -0.43     -0.21
    1   33    2      2.25     -0.97
    1   33    3     -2.33      0.76
    1   33    4     -4.22     -1.25
    1   33    5     -2.21      3.42
    1   33    6      1.01      0.45
    2   33    0      4.90      1.95
    2   33    1      1.42     -2.11
    2   33    2     -9.45     -0.83
    2   33    3     -0.89      2.86
    2   33    4      6.66      1.79
    2   33    5     -2.57     -1.68
    2   33    6      0.44     -3.14
    3   33    0     -4.53     -1.05
    3   33    1      3.22      0.04
    3   33    2      2.18      0.44
    3   33    3     -1.48     -2.54
    3   33    4      0.14      1.97
    3   33    5     -0.68     -0.18
    4   33    0      1.78     -2.74
    4   33    1     -3.98      0.68
    4   33    2     -0.08      1.51
    4   33    3      2.38      0.13
    4   33    4      1.02      0.31
    4   33    5     -1.41     -1.72
    5   33    0     -0.88     -1.57
    5   33    1     -3.55      0.01
    5   33    2      0.45      0.68
    5   33    3     -0.09      1.47
    5   33    4     -1.96     -0.38
    6   33    0      2.82     -0.95
    6   33    1     -0.97     -0.54
    6   33    2     -3.47      0.46
    0   34    0      1.05     -3.50
    0   34    1      6.54      0.60
    0   34    2     -1.98      2.03
    0   34    3     -2.45      0.13
    1   34    0     -3.62     -0.72
    1   34    1     -2.06      2.56
    1   34    2      2.30      0.46
    1   34    3      1.63     -0.70
    2   34    0      0.57      2.69
    2   34    1     -4.93     -0.67
    2   34    2     -1.72     -0.89
    3   34    1      4.60     -3.36
    1    0    0    481.34     -0.66
    4    0    0    208.31     -0.09
    5    0    0    -55.86      0.28
    6    0    0      3.37      0.07
   22    0    0     18.69      0.10
    0    1    0     -1.60     -1.45
   10    1    0     -7.70      0.57
    0    2    0   -134.58      0.26
   18    2    0     -0.66     -3.36
    0    4    0     95.48     -0.10
   24    4    0     -4.08      0.42
   24    5    0     -1.32      0.56
   24    6    0     -0.85     -0.26
   24    7    0     -1.66     -0.37
   24    8    0      4.25      0.54
   24    9    0     -4.86      0.11
   24   10    0     -0.94      0.64
   23   11    0      1.82      0.29
   24   11    0      1.24     -0.07
   23   12    0      0.64      2.48
   24   12    0     -1.09     -2.01
   23   13    0      0.72     -0.31
   24   13    0     -0.84     -0.16
   23   14    0      0.39     -1.89
   24   14    0     -2.97      0.22
   22   15    0     -1.55      0.19
   23   15    0     -0.70      0.25
   24   15    0     -1.00      0.21
   22   16    0     -4.57      0.64
   23   16    0     -0.10      0.60
   24   16    0      3.07      0.80
   21   17    0      0.31     -0.18
   22   17    0     -1.28      0.00
   23   17    0      0.83     -0.09
   24   17    0      0.91     -0.07
   21   18    0      3.22     -0.37
   22   18    0     -1.68     -0.74
   23   18    0      1.47     -0.41
   24   18    0      1.94     -0.05
   21   19    0      1.87     -0.20
   22   19    0      0.15      0.00
   23   19    0      0.11      0.03
   24   19    0      0.96     -0.08
   20   20    0      0.09     -0.58
   21   20    0     -0.80      0.41
   22   20    0     -0.31      0.25
   23   20    0     -0.93      0.02
   24   20    0     -1.95     -0.12
   20   21    0     -0.38      0.00
   21   21    0      1.79      0.05
   22   21    0      0.28      0.05
   23   21    0     -0.69     -0.08
   24   21    0     -0.19     -0.01
   19   22    0      3.61      0.29
   20   22    0     -1.40      0.29
   21   22    0      1.16     -0.09
   22   22    0      2.07     -0.24
   23   22    0      0.56     -0.08
   24   22    0     -0.40      0.00
   18   23    0     -2.24      0.11
   19   23    0      2.39     -0.05
   20   23    0      2.31     -0.15
   21   23    0     -0.27     -0.05
   22   23    0      0.12     -0.01
   23   23    0      1.87     -0.01
   24   23    0      0.47     -0.01
   18   24    0      0.30      0.06
   19   24    0      0.08     -0.25
   20   24    0     -0.56      0.06
   21   24    0      0.69      0.14
   22   24    0     -1.89      0.21
   23   24    0      0.26      0.09
   24   24    0      0.35     -0.16
   17   25    0      3.03     -0.05
   18   25    0      0.68      0.01
   19   25    0      0.20      0.11
   20   25    0      0.65      0.08
   21   25    0     -0.95     -0.11
   22   25    0     -0.03     -0.07
   23   25    0      0.18      0.08
   24   25    0      0.47      0.12
   16   26    0      0.02     -0.59
   17   26    0      0.82     -0.45
   18   26    0      1.58     -0.32
   19   26    0     -0.62      0.05
   20   26    0      0.07      0.07
   21   26    0      1.63     -0.19
   22   26    0     -1.25     -0.08
   23   26    0      1.12      0.04
   24   26    0      0.59      0.06
   15   27    0     -1.24      0.16
   16   27    0     -0.24      0.19
   17   27    0     -2.13     -0.19
   18   27    0      0.72     -0.20
   19   27    0     -0.04     -0.12
   20   27    0     -0.42      0.07
   21   27    0     -0.70      0.13
   22   27    0      0.34      0.03
   23   27    0     -1.35     -0.15
   24   27    0      0.33     -0.17
   14   28    0      2.95      0.10
   15   28    0      2.49      0.30
   16   28    0     -2.76      0.16
   17   28    0      0.32      0.16
   18   28    0      0.18      0.14
   19   28    0     -1.02      0.12
   20   28    0      0.86      0.09
   21   28    0      1.40      0.04
   22   28    0     -0.99      0.06
   23   28    0      0.34      0.00
   24   28    0      0.67     -0.09
   13   29    0     -1.12     -0.27
   14   29    0      2.55     -0.05
   15   29    0     -2.24     -0.15
   16   29    0      0.53     -0.14
   17   29    0      0.84      0.04
   18   29    0      1.35      0.13
   19   29    0      0.57      0.07
   20   29    0      0.65      0.08
   21   29    0     -1.40     -0.02
   22   29    0      0.03     -0.06
   23   29    0      0.70      0.10
   24   29    0     -0.42      0.14
   12   30    0      0.05     -0.04
   13   30    0      0.06      0.16
   14   30    0     -1.93      0.01
   15   30    0     -0.10     -0.08
   16   30    0      1.01     -0.06
   17   30    0      0.01     -0.24
   18   30    0     -1.77     -0.21
   19   30    0      0.30     -0.01
   20   30    0      0.44     -0.09
   21   30    0     -0.01     -0.17
   22   30    0      0.75     -0.10
   23   30    0      0.07     -0.04
   11   31    0     -3.60      0.30
   12   31    0      1.90      0.06
   13   31    0     -0.66      0.07
   14   31    0      0.14      0.01
   15   31    0     -0.91      0.09
   16   31    0     -0.30      0.05
   17   31    0     -0.47     -0.05
   18   31    0      0.83     -0.18
   19   31    0      0.09     -0.02
   20   31    0      0.29      0.00
   21   31    0      0.82     -0.01
   22   31    0     -0.24      0.06
   23   31    0      0.22     -0.06
    9   32    0      1.72     -0.18
   10   32    0     -1.70     -0.08
   11   32    0     -0.05     -0.10
   12   32    0      0.32     -0.07
   13   32    0      0.66      0.03
   14   32    0      0.67     -0.11
   15   32    0      0.13     -0.07
   16   32    0     -0.78      0.07
   17   32    0     -0.28      0.10
   18   32    0      0.35      0.19
   19   32    0     -0.18      0.13
   20   32    0     -0.81      0.00
   21   32    0      0.56      0.14
   22   32    0      0.43      0.10
    7   33    0     -0.37     -0.05
    8   33    0      3.92      0.35
    9   33    0     -2.55      0.13
   10   33    0      1.60     -0.28
   11   33    0     -1.70     -0.03
   12   33    0     -0.27     -0.07
   13   33    0     -0.49      0.02
   14   33    0     -0.05      0.04
   15   33    0      0.68      0.10
   16   33    0      0.13     -0.17
   17   33    0      0.34     -0.04
   18   33    0     -0.80      0.00
   19   33    0     -0.87      0.00
   20   33    0     -0.16     -0.02
   21   33    0      0.35      0.05
    3   34    0      1.45      0.58
    4   34    0     -1.48     -0.49
    5   34    0      2.61      0.17
    6   34    0     -2.38      0.14
    7   34    0      0.04     -0.30
    8   34    0     -1.24     -0.02
    9   34    0     -1.27      0.19
   10   34    0     -0.07      0.08
   11   34    0      1.02     -0.01
   12   34    0      0.29     -0.14
   13   34    0      0.28     -0.03
   14   34    0      0.72      0.16
   15   34    0      0.09      0.12
   16   34    0      1.01     -0.09
   17   34    0      0.20     -0.17
   18   34    0     -0.86     -0.09
   19   34    0      0.30     -0.03
   20   34    0      0.97     -0.05
    1    0    1     -0.30     11.41
    2    1    1      7.53     95.69
   20    1    1      5.51      3.32
   24    4    1     -2.79     -1.06
   24    5    1      1.14      1.55
   24    6    1     -1.59     -1.54
   24    7    1      4.48     -0.65
   24    8    1      1.91      0.48
   24    9    1     -0.29     -1.30
   24   10    1      3.60     -0.41
   23   11    1     -1.18     -0.67
   24   11    1     -0.90      0.44
   23   12    1      4.42      2.02
   24   12    1     -2.55     -2.47
   23   13    1     -0.40      0.97
   24   13    1     -1.70      0.36
   22   14    1     -1.60     -1.70
   23   14    1     -2.20      1.26
   24   14    1     -2.89     -0.21
   22   15    1     -1.12     -0.49
   23   15    1     -1.05      1.10
   24   15    1     -0.25      0.21
   22   16    1      2.56     -1.58
   23   16    1     -1.10     -0.95
   24   16    1     -0.41     -0.22
   21   17    1     -1.47      3.28
   22   17    1     -2.31      0.53
   23   17    1     -0.08     -1.19
   24   17    1     -0.27      0.07
   21   18    1      0.55      2.68
   22   18    1      0.07      0.61
   23   18    1     -0.83     -0.85
   24   18    1      2.68      0.00
   21   19    1     -1.78      0.51
   22   19    1     -1.01     -0.30
   23   19    1      0.77     -1.11
   24   19    1     -1.16      0.47
   20   20    1      2.11     -1.57
   21   20    1     -2.06      0.58
   22   20    1     -1.14     -0.12
   23   20    1     -0.01     -0.70
   24   20    1      0.05     -0.11
   20   21    1     -2.11      2.46
   21   21    1     -2.82      0.36
   22   21    1      0.75      0.94
   23   21    1      0.79      0.15
   24   21    1     -0.51     -0.15
   19   22    1     -2.49      0.18
   20   22    1      0.60     -0.97
   21   22    1     -0.68     -0.18
   22   22    1     -0.47     -0.32
   23   22    1      0.45     -0.73
   24   22    1      0.11      0.32
   18   23    1     -0.93      0.35
   19   23    1     -0.99      0.22
   20   23    1     -0.53     -0.87
   21   23    1      1.39     -0.03
   22   23    1      0.03     -0.04
   23   23    1     -0.58     -0.17
   24   23    1      0.06     -0.14
   18   24    1      1.21      0.62
   19   24    1     -1.05     -0.09
   20   24    1      0.17      0.08
   21   24    1      0.99     -0.35
   22   24    1     -0.44     -0.55
   23   24    1     -0.06      0.58
   24   24    1      0.39      1.05
   17   25    1      2.51     -0.32
   18   25    1     -1.46      0.19
   19   25    1      0.10      0.36
   20   25    1      1.06      0.02
   21   25    1     -0.06      0.71
   22   25    1     -0.67      0.72
   23   25    1      0.57      0.63
   24   25    1      0.33      0.19
   16   26    1      0.10     -0.79
   17   26    1     -0.06     -0.35
   18   26    1      0.56      0.50
   19   26    1      0.26      0.60
   20   26    1     -0.36     -0.09
   21   26    1      0.30      0.08
   22   26    1      0.04      0.56
   23   26    1      0.72     -0.18
   24   26    1     -0.17     -0.52
   15   27    1      3.46     -0.54
   16   27    1      2.15     -0.51
   17   27    1      1.03     -0.17
   18   27    1      0.43      0.02
   19   27    1      0.45      0.07
   20   27    1      0.37     -0.83
   21   27    1     -0.40     -0.99
   22   27    1     -0.04     -0.44
   23   27    1      0.32      0.07
   24   27    1     -0.13     -0.02
   14   28    1      1.94      0.23
   15   28    1     -3.20     -0.72
   16   28    1      0.03     -0.44
   17   28    1      0.02     -1.45
   18   28    1      1.60     -0.62
   19   28    1      0.09      1.05
   20   28    1      0.01      0.43
   21   28    1      1.31     -0.65
   22   28    1      0.09      0.11
   23   28    1     -0.18      0.39
   24   28    1      0.09     -0.37
   13   29    1     -0.95      1.15
   14   29    1      1.51     -0.78
   15   29    1      0.90     -0.37
   16   29    1      0.69      0.51
   17   29    1      0.90     -0.43
   18   29    1      0.32     -0.43
   19   29    1     -0.72      0.45
   20   29    1      0.59      0.12
   21   29    1      0.17      0.11
   22   29    1     -0.54      0.56
   23   29    1     -0.14      0.00
   24   29    1      0.76     -0.13
   12   30    1     -0.43      0.63
   13   30    1     -0.60      0.63
   14   30    1      1.63     -0.27
   15   30    1      0.87      0.06
   16   30    1      0.64      0.87
   17   30    1     -1.10     -0.34
   18   30    1      0.19     -0.35
   19   30    1     -0.25     -0.05
   20   30    1      0.48     -0.10
   21   30    1      1.17     -0.09
   22   30    1      0.27     -0.29
   23   30    1     -0.10     -0.57
   11   31    1     -1.58     -2.75
   12   31    1      1.51     -0.80
   13   31    1      0.97      0.98
   14   31    1      0.99      0.28
   15   31    1     -0.22     -0.15
   16   31    1      0.04      0.36
   17   31    1     -0.87      0.58
   18   31    1      0.65      0.50
   19   31    1      0.79     -0.32
   20   31    1      0.32     -0.45
   21   31    1     -0.45     -0.31
   22   31    1      0.24      0.15
   23   31    1      0.37      0.62
    9   32    1      0.97      0.25
   10   32    1      0.76      0.67
   11   32    1      0.34     -0.71
   12   32    1     -1.05     -0.69
   13   32    1      1.89     -0.09
   14   32    1      0.77      0.35
   15   32    1     -0.58     -0.38
   16   32    1      0.65      0.05
   17   32    1      0.28      0.33
   18   32    1      0.14     -0.05
   19   32    1      0.19     -0.45
   20   32    1      0.12      0.12
   21   32    1     -0.54      0.17
   22   32    1     -0.63      0.16
    7   33    1     -0.69     -0.19
    8   33    1      0.27      0.95
    9   33    1      0.30      0.32
   10   33    1     -0.02      0.16
   11   33    1      0.72      1.53
   12   33    1      0.35      0.40
   13   33    1     -0.36     -0.66
   14   33    1     -0.15     -0.03
   15   33    1     -0.20     -0.04
   16   33    1      0.94     -0.33
   17   33    1     -0.17      0.10
   18   33    1      0.76      0.10
   19   33    1      0.58     -0.22
   20   33    1     -0.15      0.45
   21   33    1     -0.20      0.05
    4   34    1      2.45      0.00
    5   34    1     -0.22      0.17
    6   34    1     -0.64     -1.47
    7   34    1      1.39     -1.66
    8   34    1     -1.63     -0.50
    9   34    1      0.88     -1.37
   10   34    1      0.59     -0.44
   11   34    1      0.02      0.94
   12   34    1     -0.75      0.35
   13   34    1     -0.40     -0.02
   14   34    1      0.43      0.67
   15   34    1      1.08      0.07
   16   34    1     -0.56     -0.19
   17   34    1     -0.45     -0.18
   18   34    1      0.53     -0.32
   19   34    1     -0.04     -0.19
   20   34    1     -0.55      0.10
    0    2    2   -241.30     -2.18
   24    2    2      6.04      5.74
   24    3    2     -1.40     -3.10
   24    4    2      0.77     -1.21
   24    5    2     -0.31      3.85
   24    6    2      2.16      1.63
   24    7    2      1.41     -0.16
   24    8    2     -3.94      1.98
   24    9    2      2.24     -0.63
    0   10    2     -7.25      0.89
   23   10    2     -1.28      0.18
   24   10    2     -0.56      0.18
   23   11    2     -0.85      1.08
   24   11    2      1.44     -2.15
   23   12    2      0.35     -0.47
   24   12    2      1.11      0.00
   23   13    2      0.21      0.48
   24   13    2     -0.25     -1.56
   22   14    2     -8.57      0.10
   23   14    2      3.18      0.30
   24   14    2      1.86     -0.37
   22   15    2     -0.41     -2.32
   23   15    2     -0.22      0.42
   24   15    2     -0.09      0.05
   22   16    2     -0.47      0.89
   23   16    2     -1.02     -0.45
   24   16    2     -1.08     -1.65
   21   17    2     -2.10      0.68
   22   17    2     -1.88      2.82
   23   17    2     -0.05     -0.21
   24   17    2      0.79     -1.87
   21   18    2      1.28      0.05
   22   18    2      0.29      0.34
   23   18    2      0.39      0.00
   24   18    2     -0.38      0.13
   20   19    2     -1.95      0.48
   21   19    2     -0.03     -1.92
   22   19    2      0.20     -2.51
   23   19    2     -0.26      0.00
   24   19    2     -1.47     -0.12
   20   20    2     -1.87      1.68
   21   20    2      0.24      0.11
   22   20    2      0.33      0.51
   23   20    2     -0.73      1.92
   24   20    2      0.25     -0.02
   19   21    2     -0.82     -2.37
   20   21    2      0.42      0.74
   21   21    2     -0.95      2.14
   22   21    2      1.03     -0.75
   23   21    2      0.46      0.02
   24   21    2     -0.19      0.56
   19   22    2     -0.11     -2.24
   20   22    2     -0.34     -0.55
   21   22    2     -1.72      0.32
   22   22    2     -0.18     -0.71
   23   22    2      0.00     -0.38
   24   22    2      0.30      0.71
   18   23    2      1.86      0.44
   19   23    2     -0.54      0.88
   20   23    2     -1.67     -1.06
   21   23    2     -0.22     -0.15
   22   23    2      0.48     -0.11
   23   23    2     -0.49      0.34
   24   23    2     -0.02      0.38
   18   24    2     -0.99      2.24
   19   24    2     -0.33     -2.36
   20   24    2     -0.02     -1.62
   21   24    2     -1.17      0.44
   22   24    2      0.63     -0.12
   23   24    2     -0.65      0.31
   24   24    2     -0.10      1.19
   17   25    2     -0.10     -1.89
   18   25    2      0.10      1.15
   19   25    2     -1.17      0.91
   20   25    2     -1.38     -0.07
   21   25    2      0.92      0.15
   22   25    2      0.11     -0.26
   23   25    2     -0.38      0.31
   24   25    2     -0.78      0.71
   16   26    2     -1.82     -2.32
   17   26    2      0.79      0.06
   18   26    2     -0.92      0.94
   19   26    2     -0.59     -0.78
   20   26    2      0.51      0.03
   21   26    2     -0.63      0.51
   22   26    2      0.37     -0.44
   23   26    2     -0.80     -0.17
   24   26    2     -0.06      0.41
   15   27    2     -1.55      1.46
   16   27    2     -3.48     -0.89
   17   27    2      0.88      0.12
   18   27    2     -0.09     -0.24
   19   27    2      0.26     -1.48
   20   27    2      0.53     -0.02
   21   27    2      0.37      0.00
   22   27    2     -0.87     -0.58
   23   27    2      0.85     -0.10
   24   27    2      0.24     -0.10
   14   28    2     -0.38      0.16
   15   28    2     -0.50      1.53
   16   28    2      2.08      1.21
   17   28    2     -0.28      0.35
   18   28    2     -0.14      0.18
   19   28    2      0.76      0.15
   20   28    2     -0.40      0.01
   21   28    2     -1.04      0.32
   22   28    2      0.32      0.63
   23   28    2     -0.46      0.20
   24   28    2     -0.42     -0.32
   13   29    2     -0.90     -0.33
   14   29    2     -2.15     -0.49
   15   29    2      2.76     -0.96
   16   29    2     -0.40     -0.84
   17   29    2     -0.28     -0.59
   18   29    2      0.26     -0.54
   19   29    2      0.35      0.17
   20   29    2     -1.02      0.69
   21   29    2      0.64      0.23
   22   29    2      0.23      0.16
   23   29    2     -0.85     -0.32
   24   29    2     -0.05     -0.45
   12   30    2      0.22     -1.11
   13   30    2     -0.62      0.66
   14   30    2      0.63      1.30
   15   30    2     -0.04      0.49
   16   30    2     -0.09     -0.07
   17   30    2      0.27     -1.58
   18   30    2      1.15     -0.54
   19   30    2     -0.76      1.08
   20   30    2     -0.59     -0.44
   21   30    2      0.76     -0.34
   22   30    2      0.14      0.25
   23   30    2     -0.19     -0.84
   11   31    2      2.35     -0.58
   12   31    2     -0.70     -1.45
   13   31    2      1.89      0.36
   14   31    2     -0.04     -0.39
   15   31    2      0.19     -0.30
   16   31    2     -0.32      1.10
   17   31    2      0.03     -0.13
   18   31    2     -0.95     -0.35
   19   31    2     -0.48      0.52
   20   31    2     -0.01     -0.23
   21   31    2     -0.21     -0.20
   22   31    2      0.08      0.38
    9   32    2     -1.43     -0.09
   10   32    2     -0.04     -0.86
   11   32    2     -1.67     -0.98
   12   32    2      0.52     -0.05
   13   32    2      0.85     -0.03
   14   32    2     -0.92     -0.28
   15   32    2     -0.37      0.31
   16   32    2      0.87      0.69
   17   32    2     -0.29     -0.24
   18   32    2     -0.60     -0.02
   19   32    2      0.15      0.38
   20   32    2      0.27     -0.15
   21   32    2     -0.68      0.23
   22   32    2     -0.08      0.37
    7   33    2      1.30      0.77
    8   33    2     -3.29     -0.30
    9   33    2      2.07     -0.46
   10   33    2     -0.70     -0.41
   11   33    2      1.63     -0.30
   12   33    2     -0.40      0.41
   13   33    2      0.21      0.31
   14   33    2     -0.62      0.29
   15   33    2     -1.41     -0.12
   16   33    2      0.38      0.16
   17   33    2      0.14      0.15
   18   33    2      0.40     -0.11
   19   33    2      0.92     -0.41
   20   33    2      0.66     -0.09
   21   33    2     -0.56      0.20
    3   34    2     -0.87      1.11
    4   34    2      1.90      1.69
    5   34    2     -3.72      0.35
    6   34    2      0.43      0.17
    7   34    2     -1.04      2.20
    8   34    2     -0.57      0.63
    9   34    2      0.15      0.67
   10   34    2      0.24      0.41
   11   34    2     -0.38      0.91
   12   34    2      0.14      1.03
   13   34    2      0.26      0.09
   14   34    2      0.06      0.55
   15   34    2      0.55      0.28
   16   34    2     -0.37     -0.75
   17   34    2      0.05     -0.93
   18   34    2      0.97      0.06
   19   34    2     -0.02     -0.04
   20   34    2     -0.58     -0.38
   24    0    3      0.52     -4.89
    2    1    3     -6.36    -87.05
   24    1    3     -2.02     -3.86
   24    2    3     -0.47      1.25
    2    3    3      0.99     23.81
   24    3    3      1.35      2.24
    0    4    3     50.37     -1.46
   24    4    3      1.71     -0.23
   24    5    3      0.95     -0.08
    5    6    3     -0.67     -1.19
   24    6    3      0.65      1.29
   24    7    3     -0.21      0.19
   24    8    3     -0.23      0.54
   24    9    3     -3.17     -0.77
   23   10    3      0.17     -1.13
   24   10    3     -1.28      3.13
   23   11    3     -1.59      1.04
   24   11    3      1.57     -0.30
   23   12    3     -3.05     -1.78
   24   12    3      1.21      3.61
   23   13    3      1.80     -1.58
   24   13    3      0.34      0.14
   22   14    3     -1.94      1.44
   23   14    3     -0.67     -0.80
   24   14    3      1.08      0.01
   22   15    3      2.50     -0.93
   23   15    3     -0.39     -1.43
   24   15    3     -0.21     -0.11
   22   16    3      3.14      1.60
   23   16    3      1.38     -0.60
   24   16    3     -0.33     -0.61
   21   17    3      1.90      0.67
   22   17    3      0.02      0.34
   23   17    3     -0.68      0.74
   24   17    3      1.71     -0.07
   21   18    3     -1.30     -4.49
   22   18    3     -1.33     -0.60
   23   18    3      1.28      1.37
   24   18    3     -0.96      0.92
   20   19    3     -0.53     -0.38
   21   19    3      0.58     -1.37
   22   19    3     -1.03     -0.62
   23   19    3     -0.73      1.69
   24   19    3      0.29     -0.13
   20   20    3      1.83     -1.47
   21   20    3      1.96     -0.92
   22   20    3      0.28      1.05
   23   20    3      0.57      1.12
   24   20    3     -0.63      0.21
   19   21    3     -0.77     -1.92
   20   21    3     -1.31     -0.60
   21   21    3      0.14     -1.08
   22   21    3      0.07     -1.18
   23   21    3      0.54      1.06
   24   21    3      0.12      0.17
   19   22    3      0.41     -0.39
   20   22    3      0.39      1.57
   21   22    3      0.24     -0.31
   22   22    3     -0.20      0.29
   23   22    3      0.02      1.06
   24   22    3     -0.03     -0.50
   18   23    3     -4.51     -0.28
   19   23    3      0.63     -1.88
   20   23    3      1.67     -0.19
   21   23    3     -0.82     -0.47
   22   23    3      1.00     -0.37
   23   23    3      1.28     -1.09
   24   23    3     -0.59     -0.96
   17   24    3      1.38     -2.85
   18   24    3      2.54     -0.57
   19   24    3      1.76      0.10
   20   24    3     -2.07     -0.24
   21   24    3     -0.63      0.01
   22   24    3      1.29      0.13
   23   24    3     -0.71     -0.41
   24   24    3     -0.33     -0.47
   17   25    3      1.81      0.40
   18   25    3     -0.13      1.28
   19   25    3     -1.41      0.12
   20   25    3      0.32      0.79
   21   25    3      0.80     -0.10
   22   25    3      0.09     -0.68
   23   25    3     -0.51     -0.89
   24   25    3      0.04      0.25
   16   26    3     -0.18      0.84
   17   26    3     -1.13      0.07
   18   26    3     -1.31      0.62
   19   26    3      0.04     -0.33
   20   26    3      0.55     -0.44
   21   26    3     -0.76      0.21
   22   26    3     -0.65     -0.41
   23   26    3     -0.06     -0.18
   24   26    3      0.74      0.31
   15   27    3     -0.72      0.74
   16   27    3      0.37      1.19
   17   27    3      0.18      0.20
   18   27    3     -0.35     -0.09
   19   27    3     -0.24     -0.32
   20   27    3     -0.12      0.21
   21   27    3     -0.40      0.44
   22   27    3      0.01      0.49
   23   27    3      0.25     -0.64
   24   27    3     -0.33     -0.36
   14   28    3     -1.66     -1.65
   15   28    3      1.06      1.73
   16   28    3     -1.86      0.71
   17   28    3      0.08      0.11
   18   28    3     -0.24     -0.92
   19   28    3     -0.44     -0.55
   20   28    3      0.60      0.53
   21   28    3      0.04      0.76
   22   28    3     -0.33      0.29
   23   28    3     -0.56      0.24
   24   28    3     -0.22      0.26
   13   29    3     -1.02     -0.71
   14   29    3     -1.09      0.03
   15   29    3     -1.29     -0.01
   16   29    3     -1.58      0.05
   17   29    3     -0.46      0.08
   18   29    3      0.51     -0.55
   19   29    3     -0.06     -0.43
   20   29    3     -0.95      0.19
   21   29    3     -0.06      0.06
   22   29    3     -0.08      0.09
   23   29    3     -0.73      0.47
   24   29    3     -0.42     -0.40
   12   30    3     -1.19      1.34
   13   30    3     -0.96      1.37
   14   30    3      0.74      0.42
   15   30    3      0.60      0.63
   16   30    3     -0.25      0.31
   17   30    3      1.22      0.81
   18   30    3     -0.23      0.18
   19   30    3     -0.11      0.85
   20   30    3      0.19      0.39
   21   30    3     -1.03     -0.09
   22   30    3     -0.27      0.36
   23   30    3      0.58     -0.01
   10   31    3      1.14      0.15
   11   31    3     -2.04     -0.83
   12   31    3      0.80     -1.47
   13   31    3      0.74      0.03
   14   31    3     -0.07     -0.04
   15   31    3      0.90     -1.13
   16   31    3     -0.57     -0.18
   17   31    3     -0.30      0.34
   18   31    3     -0.12     -0.91
   19   31    3     -0.04      0.23
   20   31    3     -0.79      0.47
   21   31    3     -0.27     -0.28
   22   31    3      0.00     -0.61
    9   32    3      0.00      1.92
   10   32    3      1.36      0.26
   11   32    3     -0.55     -0.16
   12   32    3     -0.39     -1.65
   13   32    3     -0.95     -0.08
   14   32    3      0.20     -0.32
   15   32    3     -0.62     -0.65
   16   32    3     -0.88     -0.99
   17   32    3     -0.12     -0.07
   18   32    3     -0.28     -0.47
   19   32    3     -0.01      0.06
   20   32    3      0.61      0.35
   21   32    3      0.63      0.01
   22   32    3      0.32     -0.36
    6   33    3     -2.33     -0.05
    7   33    3     -0.07      1.44
    8   33    3      0.35      1.36
    9   33    3      0.62      0.04
   10   33    3      1.13      0.08
   11   33    3      0.24     -0.33
   12   33    3     -0.61      0.63
   13   33    3      0.00      0.95
   14   33    3      0.29      0.79
   15   33    3      0.00      0.49
   16   33    3     -1.71     -0.09
   17   33    3     -0.20     -0.07
   18   33    3      0.03      0.03
   19   33    3     -0.26      0.05
   20   33    3     -0.03     -0.38
   21   33    3      0.33      0.18
    2   34    3      3.40     -1.88
    3   34    3     -1.53      0.81
    4   34    3      0.26     -0.07
    5   34    3     -0.37      0.24
    6   34    3      1.19     -0.49
    7   34    3     -0.78      1.36
    8   34    3      0.00      0.31
    9   34    3     -0.89      0.20
   10   34    3      0.72     -0.07
   11   34    3     -0.56      1.05
   12   34    3     -0.20      1.36
   13   34    3     -0.11      0.16
   14   34    3     -0.23     -0.55
   15   34    3     -0.10      0.57
   16   34    3      1.01      0.40
   17   34    3      0.05      0.79
   18   34    3     -0.57      0.47
   19   34    3     -0.48     -0.38
   20   34    3     -0.12      0.14
   24    0    4      8.47      2.57
   24    1    4      1.03     -1.83
   24    2    4     -5.35     -3.83
   24    3    4     -2.67     -2.47
   24    4    4     -0.35     -1.05
   24    5    4      3.56      0.75
   24    6    4     -2.36      2.62
   24    7    4      0.47      1.76
   24    8    4      1.67     -4.96
    3    9    4     -3.96      4.14
   23    9    4      0.50     -0.35
   24    9    4     -0.05      0.15
   23   10    4      0.72     -0.10
   24   10    4      1.12     -0.41
   23   11    4      0.71     -1.48
   24   11    4     -1.58      2.71
   23   12    4     -1.19      0.20
   24   12    4     -0.60      1.46
   22   13    4     -0.13      0.85
   23   13    4     -0.49     -0.24
   24   13    4     -0.06     -0.48
   22   14    4      2.41      1.50
   23   14    4     -2.85      0.42
   24   14    4      0.02      0.83
   22   15    4     -1.34     -1.03
   23   15    4     -1.97      1.05
   24   15    4      0.11      0.49
   21   16    4      0.21      0.28
   22   16    4      1.85     -1.14
   23   16    4      0.03      1.22
   24   16    4     -0.68     -0.10
   21   17    4     -1.73      1.82
   22   17    4      1.85     -1.58
   23   17    4      0.34      0.21
   24   17    4     -0.10      1.50
   21   18    4     -2.33      1.65
   22   18    4      1.71     -0.22
   23   18    4     -0.81     -0.44
   24   18    4      0.02     -0.75
   20   19    4      2.11     -0.77
   21   19    4      1.45      2.03
   22   19    4      1.04      1.29
   23   19    4     -0.09     -0.01
   24   19    4      0.48      1.20
   20   20    4     -0.82      1.22
   21   20    4      0.11     -0.79
   22   20    4      1.42     -1.88
   23   20    4      0.81     -0.87
   24   20    4     -0.62      0.29
   19   21    4      1.39      1.60
   20   21    4     -1.33      3.43
   21   21    4     -0.77     -0.51
   22   21    4     -0.99     -0.02
   23   21    4     -0.49     -0.14
   24   21    4     -0.28      0.11
   19   22    4     -1.48      1.43
   20   22    4      1.56      0.25
   21   22    4      0.31      0.33
   22   22    4     -0.91      0.56
   23   22    4      0.78     -0.24
   24   22    4      0.12     -0.21
   18   23    4     -0.42      0.41
   19   23    4     -0.70     -2.37
   20   23    4      0.53     -1.61
   21   23    4      0.52     -1.49
   22   23    4      0.00      0.70
   23   23    4      0.96     -0.17
   24   23    4      0.82     -0.37
   17   24    4     -0.28      4.19
   18   24    4      1.27     -0.07
   19   24    4     -0.03     -0.49
   20   24    4      0.66     -1.46
   21   24    4      1.15      0.03
   22   24    4      0.13      1.03
   23   24    4      0.29     -0.99
   24   24    4     -0.51     -0.97
   16   25    4     -0.78      0.66
   17   25    4      1.07     -0.31
   18   25    4     -0.44      0.39
   19   25    4      0.13      1.04
   20   25    4      1.03      0.71
   21   25    4      0.23      0.43
   22   25    4      0.08      0.71
   23   25    4     -0.05     -0.48
   24   25    4      0.26     -0.95
   16   26    4     -0.01     -3.38
   17   26    4     -1.29     -0.80
   18   26    4      0.40      0.43
   19   26    4      0.72      0.31
   20   26    4     -0.40     -0.15
   21   26    4      0.21     -0.20
   22   26    4      0.36     -0.74
   23   26    4      0.12     -0.35
   24   26    4      0.40      0.74
   15   27    4      1.21      1.04
   16   27    4      1.18      1.44
   17   27    4     -0.18      0.29
   18   27    4      0.50      0.40
   19   27    4     -0.20      0.65
   20   27    4     -0.08     -0.09
   21   27    4      0.39      0.49
   22   27    4      0.37     -0.21
   23   27    4     -0.62     -0.97
   24   27    4      0.12      0.02
   14   28    4     -0.25     -1.52
   15   28    4     -0.21      1.29
   16   28    4     -0.86      0.60
   17   28    4     -0.02      0.75
   18   28    4      0.02      1.03
   19   28    4     -0.03     -0.01
   20   28    4      0.35      0.19
   21   28    4      0.45      0.41
   22   28    4      0.21      0.17
   23   28    4      0.03      0.18
   24   28    4      0.36     -0.06
   13   29    4     -0.48      0.94
   14   29    4     -0.09     -0.19
   15   29    4     -1.50      0.58
   16   29    4      0.71      0.12
   17   29    4     -0.38     -0.64
   18   29    4     -0.59      0.80
   19   29    4     -0.15      0.80
   20   29    4      0.63     -0.93
   21   29    4      0.09     -0.38
   22   29    4     -0.30      0.36
   23   29    4     -0.06      0.21
   11   30    4     -0.04     -1.06
   12   30    4      2.19     -0.83
   13   30    4      0.32     -0.16
   14   30    4     -0.74     -1.19
   15   30    4      0.39     -0.06
   16   30    4     -0.35     -0.29
   17   30    4     -0.50     -0.82
   18   30    4     -0.34     -0.42
   19   30    4      0.62      0.01
   20   30    4      0.19      0.36
   21   30    4     -0.93     -0.70
   22   30    4     -0.19     -0.39
   23   30    4     -0.02      0.61
   10   31    4      2.64      0.30
   11   31    4     -1.59      0.83
   12   31    4      1.75     -0.07
   13   31    4     -0.39     -0.51
   14   31    4     -0.01      0.17
   15   31    4     -0.01      0.43
   16   31    4      0.48     -0.13
   17   31    4     -0.31     -0.19
   18   31    4     -0.04     -0.23
   19   31    4      0.63     -0.07
   20   31    4     -0.15      0.30
   21   31    4     -0.54     -0.14
   22   31    4     -0.03     -0.38
    8   32    4      0.06     -0.42
    9   32    4      1.94     -0.81
   10   32    4     -0.19      0.41
   11   32    4      1.09     -0.75
   12   32    4     -0.65     -0.79
   13   32    4     -1.02      0.19
   14   32    4      0.64      0.02
   15   32    4     -0.46      0.61
   16   32    4     -1.16      1.00
   17   32    4      0.47      0.64
   18   32    4     -0.05     -0.17
   19   32    4     -0.10      0.49
   20   32    4      0.70      0.93
   21   32    4      0.05     -0.44
    6   33    4      1.23     -0.10
    7   33    4     -1.30     -1.09
    8   33    4      3.06     -0.30
    9   33    4     -1.35     -0.79
   10   33    4     -0.22     -1.01
   11   33    4     -1.26     -0.69
   12   33    4      0.51     -0.13
   13   33    4     -0.81      0.10
   14   33    4     -0.28     -0.67
   15   33    4      1.21     -0.22
   16   33    4     -0.18      0.20
   17   33    4      0.16      0.06
   18   33    4      0.24     -0.43
   19   33    4     -0.25      0.06
   20   33    4     -0.51      0.44
   21   33    4      0.40      0.27
    0   34    4      2.83      0.21
    1   34    4     -1.77     -0.28
    2   34    4      1.51     -0.26
    3   34    4      1.59      0.94
    4   34    4     -2.23      0.83
    5   34    4      0.31     -0.36
    6   34    4     -1.06      0.30
    7   34    4      0.81     -0.34
    8   34    4      0.51      0.94
    9   34    4     -0.34      0.15
   10   34    4      0.85      0.76
   11   34    4      0.57     -0.38
   12   34    4     -0.55     -1.28
   13   34    4     -0.16      0.03
   14   34    4     -0.21     -0.38
   15   34    4     -0.45      0.05
   16   34    4      0.30      0.61
   17   34    4      0.13      0.42
   18   34    4     -0.54     -0.98
   19   34    4     -0.07     -0.54
   20   34    4     -0.33      0.37
   24    0    5     -0.53      5.79
   24    1    5      1.15      2.78
   24    2    5      1.72     -1.84
   24    3    5     -1.57     -1.21
    0    4    5    -43.18     -0.78
   24    4    5     -3.13     -1.25
   24    5    5     -0.83     -1.94
   24    6    5      3.70     -0.33
   24    7    5     -2.01      1.65
   23    8    5     -1.74     -0.36
   24    8    5     -3.52     -0.30
   23    9    5      1.83      1.72
   24    9    5      0.20      2.66
   23   10    5      1.00     -2.08
   24   10    5     -0.29     -3.82
   23   11    5      0.42      0.07
   24   11    5     -1.00     -0.56
   23   12    5      0.95      1.84
   24   12    5     -0.99     -0.10
   22   13    5      0.14      1.51
   23   13    5      1.77     -0.26
   24   13    5      1.19     -0.93
   22   14    5     -1.61      2.34
   23   14    5      0.34      0.96
   24   14    5      0.76      0.53
   22   15    5     -1.37      0.99
   23   15    5     -0.04      1.93
   24   15    5      0.53     -0.35
   21   16    5     -0.27     -1.74
   22   16    5     -0.14     -0.20
   23   16    5     -0.23     -0.90
   24   16    5     -0.36     -1.13
   21   17    5     -1.35     -3.34
   22   17    5     -1.23      0.15
   23   17    5     -0.70      0.32
   24   17    5     -0.59     -0.59
   20   18    5      0.02      1.47
   21   18    5     -1.29      0.76
   22   18    5     -1.92     -0.05
   23   18    5     -0.07      0.16
   24   18    5      1.89     -0.17
   20   19    5      0.60     -0.15
   21   19    5     -0.56     -0.48
   22   19    5      0.34      1.51
   23   19    5      0.42     -0.10
   24   19    5     -0.61      0.61
   19   20    5     -0.01      1.90
   20   20    5      0.78      2.22
   21   20    5     -0.80     -0.66
   22   20    5     -0.17     -1.08
   23   20    5     -0.77     -0.37
   24   20    5     -0.41     -0.75
   19   21    5     -0.26     -0.34
   20   21    5     -0.04      0.60
   21   21    5     -0.68      1.12
   22   21    5     -0.25      0.27
   23   21    5     -0.69     -0.21
   24   21    5     -0.27      0.17
   18   22    5      2.81      0.09
   19   22    5     -1.29      0.27
   20   22    5     -1.66      1.27
   21   22    5     -0.33      0.93
   22   22    5      1.27      0.01
   23   22    5      0.27     -0.40
   24   22    5     -0.07      0.03
   18   23    5      0.58     -0.96
   19   23    5     -0.57      0.71
   20   23    5      0.32      0.42
   21   23    5      1.37      0.58
   22   23    5     -0.58     -0.28
   23   23    5     -0.76      0.01
   24   23    5      1.06      0.89
   17   24    5      0.61      0.42
   18   24    5     -0.34      1.05
   19   24    5     -0.64     -0.86
   20   24    5      0.87     -1.52
   21   24    5      0.06     -0.29
   22   24    5      0.09      0.24
   23   24    5      0.52     -0.71
   24   24    5     -0.87     -0.49
   16   25    5      0.89      1.40
   17   25    5     -0.47     -0.85
   18   25    5     -0.17     -0.80
   19   25    5     -0.27      0.12
   20   25    5     -0.55     -1.06
   21   25    5      0.45      0.59
   22   25    5      0.40      0.79
   23   25    5      0.39      0.80
   24   25    5      0.06      0.48
   15   26    5      0.87     -2.66
   16   26    5      0.57      1.66
   17   26    5     -0.87      1.95
   18   26    5     -0.38      0.59
   19   26    5      0.11     -0.32
   20   26    5     -0.74      0.04
   21   26    5     -0.40      0.24
   22   26    5     -0.26      0.00
   23   26    5     -0.14      0.08
   24   26    5     -0.09      0.26
   14   27    5      0.33     -0.73
   15   27    5      1.44      1.30
   16   27    5     -0.45     -1.06
   17   27    5     -0.70     -0.32
   18   27    5     -0.12     -0.10
   19   27    5     -0.05     -0.18
   20   27    5     -0.61      0.15
   21   27    5      0.54      0.61
   22   27    5      0.65     -0.44
   23   27    5      0.14      0.00
   24   27    5      0.27     -0.08
   13   28    5     -0.12     -0.31
   14   28    5     -0.06      0.14
   15   28    5     -2.27     -1.43
   16   28    5      0.72     -0.58
   17   28    5      1.29     -1.31
   18   28    5      0.31     -0.51
   19   28    5      0.68     -0.29
   20   28    5     -0.09     -0.27
   21   28    5     -0.25     -0.33
   22   28    5     -0.25     -0.42
   23   28    5      0.29      0.25
   24   28    5      0.40      0.05
   12   29    5     -0.66      2.09
   13   29    5      1.44      1.41
   14   29    5      1.53     -0.11
   15   29    5      1.01      0.80
   16   29    5     -0.75      0.44
   17   29    5     -0.06      0.18
   18   29    5      0.66      0.12
   19   29    5      0.27      0.40
   20   29    5      0.41      0.79
   21   29    5      0.65     -0.16
   22   29    5     -0.07     -0.15
   23   29    5      0.25      0.34
   11   30    5      0.60     -2.61
   12   30    5      0.94      1.36
   13   30    5      1.06      1.30
   14   30    5     -1.39      0.41
   15   30    5      0.06     -1.12
   16   30    5      0.56      0.17
   17   30    5     -0.36      0.62
   18   30    5      0.32      0.49
   19   30    5      0.08     -0.87
   20   30    5     -1.05     -0.22
   21   30    5      0.16      0.16
   22   30    5      0.13     -0.40
   23   30    5     -0.08      0.35
   10   31    5      1.49      0.66
   11   31    5      1.52      0.43
   12   31    5     -0.20     -0.09
   13   31    5      0.79     -0.94
   14   31    5      0.51     -0.46
   15   31    5     -0.64      0.33
   16   31    5      0.66      0.44
   17   31    5      0.56     -0.20
   18   31    5      0.31      0.36
   19   31    5      0.48     -0.32
   20   31    5      0.22     -0.03
   21   31    5     -0.11      0.44
   22   31    5      0.52      0.23
    8   32    5     -0.60     -0.19
    9   32    5      0.52     -1.03
   10   32    5     -1.35     -0.17
   11   32    5      0.59     -1.33
   12   32    5      0.38     -0.64
   13   32    5      0.72     -0.59
   14   32    5     -0.09      0.19
   15   32    5     -0.02     -0.41
   16   32    5     -0.88      0.16
   17   32    5     -0.32     -0.56
   18   32    5     -0.03      0.02
   19   32    5     -0.01     -0.03
   20   32    5      0.14     -0.47
   21   32    5      0.04     -0.12
    5   33    5      0.06     -1.58
    6   33    5      1.37      0.48
    7   33    5     -0.56     -0.10
    8   33    5     -0.58      0.05
    9   33    5     -0.54      0.50
   10   33    5     -0.05      0.81
   11   33    5      0.16      0.40
   12   33    5      0.31     -0.07
   13   33    5     -0.21      1.00
   14   33    5     -0.38      0.67
   15   33    5     -0.75     -0.71
   16   33    5      0.57     -0.29
   17   33    5      0.08     -0.30
   18   33    5     -0.04     -0.06
   19   33    5      0.48      0.24
   20   33    5      0.35      0.32
   21   33    5     -0.02     -0.01
    0   34    5      2.23     -0.24
    1   34    5      0.19     -0.27
    2   34    5     -2.35      1.32
    3   34    5     -0.01     -0.57
    4   34    5     -1.27     -0.07
    5   34    5      0.63     -1.15
    6   34    5     -1.34      0.35
    7   34    5     -0.58     -0.92
    8   34    5     -1.16     -0.28
    9   34    5      0.14     -0.86
   10   34    5     -0.25      0.26
   11   34    5      1.17      0.42
   12   34    5     -0.11     -0.06
   13   34    5     -0.09      0.25
   14   34    5      0.43      0.27
   15   34    5      0.61     -0.55
   16   34    5     -0.13     -0.19
   17   34    5      0.30     -0.36
   18   34    5      0.04      0.42
   19   34    5      0.10      0.64
   20   34    5      0.20     -0.27
    0    0    6    -95.93     -0.42
   24    0    6     -6.50     -0.75
   24    1    6      1.58      0.71
   24    2    6      1.99      6.35
   24    3    6      1.80      1.78
   24    4    6      0.97     -1.41
   24    5    6     -1.58     -2.30
   23    6    6     -0.23      1.67
   24    6    6     -0.12     -1.27
   23    7    6     -2.53      1.00
   24    7    6     -1.40     -0.40
   23    8    6      0.65      2.77
   24    8    6      1.39      1.46
   23    9    6     -0.60      1.81
   24    9    6      0.20     -1.14
   23   10    6      1.00     -0.27
   24   10    6      0.23     -0.33
   23   11    6     -1.48     -0.01
   24   11    6     -0.41     -0.72
   22   12    6      3.93      1.57
   23   12    6     -1.96     -2.03
   24   12    6     -0.47      0.26
   22   13    6     -0.25     -1.80
   23   13    6      1.34     -1.72
   24   13    6     -0.10      0.58
   22   14    6      0.44     -0.41
   23   14    6      1.29      1.03
   24   14    6      0.43      0.18
   21   15    6     -0.42      2.64
   22   15    6      3.62      1.30
   23   15    6      0.28     -0.12
   24   15    6     -0.51      0.16
   21   16    6      0.45      0.18
   22   16    6     -0.13      1.02
   23   16    6     -0.43      0.03
   24   16    6      0.10      0.22
   21   17    6     -0.38     -2.06
   22   17    6     -0.30      0.34
   23   17    6      0.91     -0.10
   24   17    6      0.67     -1.16
   20   18    6      1.14     -0.41
   21   18    6      2.00      0.32
   22   18    6     -0.17      1.67
   23   18    6      1.10      0.31
   24   18    6      0.25      0.60
   20   19    6      0.95     -1.84
   21   19    6     -0.18     -1.94
   22   19    6     -0.54     -0.28
   23   19    6     -0.52     -0.10
   24   19    6     -1.23     -0.50
   19   20    6     -0.28      1.93
   20   20    6      0.77     -0.49
   21   20    6     -0.44     -0.48
   22   20    6     -1.36      0.60
   23   20    6     -0.16     -0.30
   24   20    6      0.05     -0.60
   19   21    6     -0.58      0.15
   20   21    6      0.60     -0.75
   21   21    6     -0.19      2.37
   22   21    6     -0.47     -0.50
   23   21    6      0.51     -0.30
   24   21    6      0.30      0.01
   18   22    6     -0.39     -0.67
   19   22    6      1.86     -0.24
   20   22    6      0.82      0.99
   21   22    6      0.27      0.53
   22   22    6     -0.29     -0.19
   23   22    6     -0.89     -0.14
   24   22    6     -0.26      0.10
   17   23    6     -1.73     -2.84
   18   23    6     -0.62     -0.06
   19   23    6      1.11      1.16
   20   23    6      0.64     -0.53
   21   23    6      0.23     -0.13
   22   23    6     -0.61     -0.32
   23   23    6     -1.38      0.53
   24   23    6     -0.20     -0.04
   17   24    6      0.42      1.74
   18   24    6     -0.23      1.30
   19   24    6      0.29      0.06
   20   24    6     -0.49     -0.05
   21   24    6     -0.38     -0.61
   22   24    6     -0.59      0.29
   23   24    6     -0.01      0.59
   24   24    6      0.25     -0.48
   16   25    6     -0.21     -0.60
   17   25    6     -0.82      0.33
   18   25    6     -1.60     -0.37
   19   25    6     -1.21      0.14
   20   25    6     -0.37      0.89
   21   25    6     -0.98      0.48
   22   25    6     -0.41     -0.18
   23   25    6      0.88     -0.31
   24   25    6      0.26      0.02
   15   26    6     -0.17      1.58
   16   26    6     -0.06      0.30
   17   26    6      0.44     -1.07
   18   26    6     -0.37      0.06
   19   26    6     -0.42      0.04
   20   26    6      0.14     -0.75
   21   26    6     -0.36     -0.45
   22   26    6     -0.83      0.53
   23   26    6      1.06      0.70
   24   26    6      0.18     -0.37
   14   27    6     -1.29     -0.82
   15   27    6      0.50     -1.26
   16   27    6      0.78     -0.66
   17   27    6      0.10      0.42
   18   27    6     -0.56     -0.54
   19   27    6      0.70     -1.49
   20   27    6      0.89     -0.58
   21   27    6     -0.69      0.08
   22   27    6      0.01      0.47
   23   27    6      1.21      0.79
   24   27    6     -0.01      0.28
   13   28    6     -0.65     -1.37
   14   28    6     -0.01      0.14
   15   28    6      1.43     -0.58
   16   28    6      0.35      0.61
   17   28    6     -0.55     -0.58
   18   28    6      0.24     -0.69
   19   28    6     -0.18      0.64
   20   28    6     -0.55     -0.61
   21   28    6      0.37     -0.52
   22   28    6     -0.44      0.25
   23   28    6     -0.38      0.12
   24   28    6     -0.60      0.18
   12   29    6     -0.37     -1.34
   13   29    6      0.53     -0.12
   14   29    6     -0.80      0.63
   15   29    6      0.94     -0.55
   16   29    6      0.32     -0.64
   17   29    6     -0.52      0.61
   18   29    6     -0.16      0.53
   19   29    6     -0.11      0.14
   20   29    6     -0.10      0.26
   21   29    6      0.07      0.14
   22   29    6      0.17      0.31
   23   29    6     -0.48      0.57
   11   30    6      0.26     -0.08
   12   30    6     -0.34      2.49
   13   30    6      0.17      1.24
   14   30    6     -0.40      0.30
   15   30    6     -0.37     -0.77
   16   30    6     -0.13     -0.75
   17   30    6     -0.24     -0.30
   18   30    6      0.66     -0.19
   19   30    6      0.14      0.15
   20   30    6     -0.84      0.04
   21   30    6      0.24      0.20
   22   30    6      0.17     -0.25
    9   31    6      2.13      2.62
   10   31    6     -2.43     -0.57
   11   31    6      1.65     -0.04
   12   31    6     -1.17      0.99
   13   31    6      0.05      0.22
   14   31    6      0.60     -0.04
   15   31    6      0.27      0.75
   16   31    6      0.13      0.27
   17   31    6      0.43     -0.40
   18   31    6      0.28     -0.52
   19   31    6     -0.28     -0.44
   20   31    6      0.24     -0.21
   21   31    6      0.11     -0.21
   22   31    6      0.37     -0.14
    7   32    6      1.39      0.93
    8   32    6      0.57      0.32
    9   32    6     -1.21      0.98
   10   32    6     -0.61      0.19
   11   32    6     -0.52     -0.08
   12   32    6      0.43      0.60
   13   32    6      0.75      0.79
   14   32    6      0.02      0.25
   15   32    6      0.56     -0.79
   16   32    6      1.28      0.11
   17   32    6      0.21      0.24
   18   32    6     -0.19     -0.11
   19   32    6      0.34     -0.17
   20   32    6      0.55     -0.21
   21   32    6      0.41      0.33
    3   33    6      1.63     -1.20
    4   33    6     -2.28      1.87
    5   33    6      1.22      2.00
    6   33    6      0.07     -0.78
    7   33    6      2.12     -0.10
    8   33    6     -0.15     -0.18
    9   33    6      1.11      0.33
   10   33    6     -0.65      0.62
   11   33    6      0.45      0.24
   12   33    6      0.05     -0.52
   13   33    6      0.48      0.05
   14   33    6      0.12     -0.02
   15   33    6     -1.15     -0.57
   16   33    6      0.07      0.36
   17   33    6      0.21      0.26
   18   33    6     -0.14     -0.23
   19   33    6     -0.22     -0.13
   20   33    6      0.39      0.15
    0   34    6     -1.02      0.08
    1   34    6      0.48     -0.21
    2   34    6     -2.27     -0.93
    3   34    6     -1.33     -0.91
    4   34    6      0.83      1.34
    5   34    6     -0.73      1.02
    6   34    6     -0.02     -1.18
    7   34    6     -0.48      0.53
    8   34    6     -1.24      0.55
    9   34    6     -0.10     -0.39
   10   34    6     -0.63     -0.77
   11   34    6      0.26      0.09
   12   34    6      0.63      0.24
   13   34    6     -0.01     -0.01
   14   34    6      0.21      0.76
   15   34    6     -0.71     -1.00
   16   34    6     -0.62     -0.88
   17   34    6      0.55     -0.30
   18   34    6      0.12      0.11
   19   34    6     -0.90     -0.16
   24    0    7      0.24     -2.44
   24    1    7      1.29      1.52
   24    2    7     -1.99     -0.25
   23    3    7     -3.47      0.42
   24    3    7     -1.58     -2.34
   23    4    7     -3.98      1.44
   24    4    7      1.22      1.82
   23    5    7      3.57     -0.97
   24    5    7      1.93      0.80
   23    6    7      3.27      2.04
   24    6    7     -0.17     -0.62
   23    7    7     -0.04      0.15
   24    7    7      0.35     -0.33
   23    8    7      1.15      4.59
   24    8    7      2.43      1.65
   23    9    7      1.58      1.17
   24    9    7      2.00     -0.52
   22   10    7      0.76     -2.62
   23   10    7     -0.75      0.60
   24   10    7     -0.76     -0.95
   22   11    7     -3.98     -1.59
   23   11    7      0.74      0.41
   24   11    7      2.50     -0.12
   22   12    7     -1.53     -4.89
   23   12    7      0.04     -0.69
   24   12    7      1.00      0.14
   22   13    7     -0.91      0.91
   23   13    7      0.48     -0.12
   24   13    7     -0.35      0.62
   21   14    7     -1.13      1.79
   22   14    7      0.39     -2.76
   23   14    7      0.36     -0.22
   24   14    7     -0.94      0.16
   21   15    7     -0.50      2.97
   22   15    7      1.42      0.62
   23   15    7     -0.53     -1.64
   24   15    7     -2.63      0.85
   21   16    7      0.80      0.51
   22   16    7      0.44      1.17
   23   16    7     -0.61      0.03
   24   16    7      0.30     -0.78
   20   17    7      2.79      1.52
   21   17    7     -0.17      0.56
   22   17    7      0.69     -0.06
   23   17    7      1.34      0.04
   24   17    7      0.63     -0.17
   20   18    7     -1.52      1.33
   21   18    7     -0.33      0.90
   22   18    7      0.70     -1.33
   23   18    7      0.27      0.56
   24   18    7     -0.22      0.85
   19   19    7      1.44     -2.71
   20   19    7     -0.04     -0.86
   21   19    7      0.22      0.05
   22   19    7     -0.57     -0.44
   23   19    7     -0.57     -0.57
   24   19    7      0.18     -0.24
   19   20    7      0.64     -0.86
   20   20    7     -0.67      0.33
   21   20    7      1.09      1.53
   22   20    7      0.58     -0.50
   23   20    7     -0.20     -0.48
   24   20    7      0.70     -0.32
   18   21    7      0.17     -1.34
   19   21    7      1.13      0.03
   20   21    7     -1.11     -0.03
   21   21    7     -0.16     -0.30
   22   21    7      0.09      0.29
   23   21    7     -0.11     -0.29
   24   21    7      0.00     -0.60
   18   22    7     -0.55      0.86
   19   22    7     -0.97      0.87
   20   22    7     -0.10     -0.27
   21   22    7      0.95      0.72
   22   22    7     -0.76      0.20
   23   22    7     -0.21      0.63
   24   22    7      0.86      0.35
   17   23    7      1.33      2.76
   18   23    7      0.58      0.30
   19   23    7      0.35     -1.45
   20   23    7      0.27      0.97
   21   23    7     -0.39      0.53
   22   23    7     -0.38     -0.02
   23   23    7     -0.17      0.48
   24   23    7     -0.85     -0.33
   16   24    7     -2.16      2.73
   17   24    7     -1.31     -0.51
   18   24    7      0.16     -1.24
   19   24    7      0.23      0.12
   20   24    7      0.03     -0.05
   21   24    7      0.10      0.31
   22   24    7     -0.06     -0.08
   23   24    7      0.21     -0.04
   24   24    7     -0.08      0.36
   15   25    7      1.92     -2.27
   16   25    7     -0.87     -0.81
   17   25    7     -0.81     -0.29
   18   25    7     -0.29      0.34
   19   25    7     -0.68     -0.31
   20   25    7     -0.68      0.14
   21   25    7     -0.43     -0.80
   22   25    7      0.03     -0.11
   23   25    7     -0.48     -0.15
   24   25    7     -0.34     -0.26
   15   26    7      1.03      0.16
   16   26    7      1.07     -0.85
   17   26    7      0.41      0.89
   18   26    7      0.35      0.38
   19   26    7      0.36      0.91
   20   26    7      1.33      0.34
   21   26    7      0.49     -0.74
   22   26    7     -0.35     -0.09
   23   26    7     -0.40      0.04
   24   26    7      0.05      0.35
   14   27    7      0.04     -0.66
   15   27    7     -3.38     -0.15
   16   27    7     -1.23      0.17
   17   27    7      0.50     -0.94
   18   27    7      0.86      0.79
   19   27    7     -0.04      0.92
   20   27    7     -0.09     -0.01
   21   27    7     -0.45     -0.79
   22   27    7     -0.16     -0.26
   23   27    7     -0.01      0.10
   24   27    7      0.25      0.48
   13   28    7      0.29      0.64
   14   28    7      0.71     -0.53
   15   28    7      1.12     -0.31
   16   28    7      0.22     -0.61
   17   28    7     -1.63      1.30
   18   28    7     -0.51      0.43
   19   28    7     -0.32     -0.73
   20   28    7     -0.08     -0.67
   21   28    7      0.20      0.14
   22   28    7      1.15      0.56
   23   28    7      0.34     -0.41
   11   29    7      2.75      0.43
   12   29    7     -0.15     -0.57
   13   29    7     -0.76      0.62
   14   29    7     -0.64      0.70
   15   29    7     -0.91     -0.43
   16   29    7      0.82     -0.09
   17   29    7     -0.23     -0.46
   18   29    7     -0.39     -0.01
   19   29    7      0.79      0.31
   20   29    7      0.53     -0.68
   21   29    7     -1.03     -0.29
   22   29    7     -0.10     -0.35
   23   29    7      0.23     -0.18
   10   30    7     -0.39      0.60
   11   30    7      0.06      1.11
   12   30    7     -0.81     -0.65
   13   30    7     -0.32     -0.10
   14   30    7      0.75     -0.07
   15   30    7     -0.41      0.58
   16   30    7      0.46     -0.12
   17   30    7      0.46      0.14
   18   30    7      0.54     -0.12
   19   30    7     -0.34      0.35
   20   30    7      0.11      0.48
   21   30    7      0.28      0.02
   22   30    7     -0.05      0.25
    8   31    7     -1.66      1.52
    9   31    7     -2.01      0.39
   10   31    7     -1.00     -0.02
   11   31    7     -0.49     -0.26
   12   31    7     -0.05     -0.66
   13   31    7     -1.10     -0.08
   14   31    7     -1.20      0.02
   15   31    7      0.70      0.54
   16   31    7      0.54     -0.49
   17   31    7     -0.49     -0.31
   18   31    7     -0.51     -0.16
   19   31    7     -0.88     -0.02
   20   31    7     -0.44     -0.50
   21   31    7      0.10      0.21
    6   32    7     -1.80      3.19
    7   32    7     -0.80      1.02
    8   32    7      1.82     -2.14
    9   32    7     -1.38      1.26
   10   32    7     -0.28      0.00
   11   32    7     -0.34     -0.30
   12   32    7     -0.02      0.40
   13   32    7     -0.18     -0.42
   14   32    7      0.19     -0.81
   15   32    7     -0.45      0.84
   16   32    7      0.12     -0.30
   17   32    7     -0.39     -0.43
   18   32    7      0.04      0.03
   19   32    7      0.14     -0.09
   20   32    7     -0.34     -0.12
   21   32    7     -0.40     -0.14
    0   33    7      0.82      0.24
    1   33    7      1.04     -2.81
    2   33    7      0.96      0.17
    3   33    7     -0.04      0.70
    4   33    7     -0.36      0.44
    5   33    7     -0.79      0.18
    6   33    7     -1.40     -0.47
    7   33    7      0.52     -0.31
    8   33    7      0.42     -1.14
    9   33    7      0.02      0.17
   10   33    7     -0.45     -0.04
   11   33    7      0.21     -0.27
   12   33    7     -0.33     -0.50
   13   33    7     -0.02     -0.11
   14   33    7     -0.03      0.11
   15   33    7     -0.08      0.86
   16   33    7     -0.13     -0.15
   17   33    7      0.42     -0.15
   18   33    7     -0.27      0.27
   19   33    7     -0.52      0.22
   20   33    7      0.63     -0.24
    0   34    7      0.49     -0.46
    1   34    7      0.13      0.51
    2   34    7      0.72     -0.18
    3   34    7     -0.34      0.25
    4   34    7      1.12     -0.45
    5   34    7     -0.04     -0.07
    6   34    7      0.65     -1.19
    7   34    7     -0.72      0.91
    8   34    7      0.07      0.93
    9   34    7     -0.27      0.56
   10   34    7      0.17     -0.46
   11   34    7     -0.38     -0.29
   12   34    7      0.52      0.02
   13   34    7      0.23     -0.40
   14   34    7      0.13      0.70
   15   34    7      0.04      0.92
   16   34    7      0.26      0.08
   17   34    7     -0.23      0.55
   18   34    7     -0.59      0.21
   19   34    7     -0.08     -0.18
   23    0    8      3.08      1.08
   24    0    8      0.38     -0.63
   23    1    8      2.26      4.09
   24    1    8     -1.15     -0.33
   23    2    8     -1.29      3.42
   24    2    8      0.99      0.89
   23    3    8      2.00      1.02
   24    3    8     -1.76      1.06
   23    4    8      2.02      0.15
   24    4    8     -0.52      0.42
   23    5    8     -2.06      2.07
   24    5    8     -0.27     -0.29
   23    6    8     -2.13     -1.70
   24    6    8      0.45     -1.12
   23    7    8      1.67      0.32
   24    7    8     -0.34      1.07
   23    8    8     -0.44      1.79
   24    8    8      0.09      0.22
   22    9    8     -1.63      0.69
   23    9    8     -1.85     -0.96
   24    9    8      1.09     -0.34
   22   10    8      0.26      2.14
   23   10    8      0.41     -1.37
   24   10    8     -1.08      0.71
   22   11    8      0.00     -1.36
   23   11    8      1.81      1.28
   24   11    8      1.13      0.57
   22   12    8     -0.45      0.34
   23   12    8      2.98      0.69
   24   12    8     -0.33     -0.39
   21   13    8     -1.34      1.07
   22   13    8      0.22     -1.11
   23   13    8      0.56      0.49
   24   13    8      0.54     -0.78
   21   14    8      2.62     -1.72
   22   14    8     -1.11     -1.01
   23   14    8     -0.60      0.53
   24   14    8     -0.71      0.09
   21   15    8      1.37     -0.62
   22   15    8     -0.43      0.71
   23   15    8      0.57      0.95
   24   15    8      0.08      0.00
   20   16    8      1.65     -3.77
   21   16    8      0.15      0.31
   22   16    8     -1.29      0.04
   23   16    8      0.11     -0.09
   24   16    8      0.04      0.36
   20   17    8      2.02      0.03
   21   17    8      0.53      1.90
   22   17    8     -1.04     -0.71
   23   17    8     -1.15     -0.94
   24   17    8      0.38      0.63
   19   18    8      3.41     -0.57
   20   18    8      0.14     -1.18
   21   18    8      0.45      0.50
   22   18    8      0.00     -0.98
   23   18    8     -0.58     -1.01
   24   18    8      0.33     -0.28
   19   19    8      0.80     -0.94
   20   19    8      1.47      1.22
   21   19    8     -0.37     -1.16
   22   19    8      0.22      0.53
   23   19    8      0.71      0.22
   24   19    8      0.70     -1.05
   18   20    8      1.14      0.51
   19   20    8      0.31     -1.08
   20   20    8     -0.36     -0.05
   21   20    8     -1.00     -0.08
   22   20    8     -0.15     -0.49
   23   20    8      0.71      0.66
   24   20    8      0.17      0.16
   18   21    8      2.31     -1.24
   19   21    8     -1.24     -1.56
   20   21    8     -0.55     -1.32
   21   21    8     -0.90     -1.99
   22   21    8     -0.33      0.91
   23   21    8     -0.08      0.25
   24   21    8      0.04     -0.38
   17   22    8      0.44     -0.75
   18   22    8     -0.65     -0.91
   19   22    8     -0.86     -0.73
   20   22    8      0.29      0.12
   21   22    8      0.85     -0.35
   22   22    8     -0.04      0.14
   23   22    8     -0.18      0.68
   24   22    8      1.09     -0.62
   16   23    8     -0.90     -0.83
   17   23    8      0.21      1.25
   18   23    8      1.37      0.56
   19   23    8      0.93      1.03
   20   23    8      0.81     -0.30
   21   23    8      0.47     -1.52
   22   23    8      0.09      0.30
   23   23    8     -0.57      0.78
   24   23    8     -0.40      0.40
   16   24    8      0.71     -1.12
   17   24    8     -0.15     -0.69
   18   24    8      0.16      0.02
   19   24    8      0.52     -0.26
   20   24    8     -0.47      0.61
   21   24    8     -0.25      0.25
   22   24    8      1.06     -0.76
   23   24    8     -0.41      0.07
   24   24    8     -0.39      0.57
   15   25    8      1.86      0.09
   16   25    8      0.61      1.24
   17   25    8     -0.54      1.16
   18   25    8      0.25     -0.70
   19   25    8      0.20     -1.10
   20   25    8     -0.83      0.65
   21   25    8      0.04      0.81
   22   25    8      0.86     -0.64
   23   25    8      0.00     -0.04
   24   25    8     -0.47      0.47
   14   26    8      1.84     -1.17
   15   26    8     -1.46      1.26
   16   26    8     -0.58     -0.79
   17   26    8      1.30     -1.12
   18   26    8      0.55     -0.46
   19   26    8     -0.14     -0.51
   20   26    8     -0.43      0.03
   21   26    8     -0.71     -0.04
   22   26    8      0.67     -0.20
   23   26    8     -0.06     -0.47
   24   26    8     -0.52      0.26
   13   27    8     -0.37      2.07
   14   27    8     -0.46     -0.81
   15   27    8     -0.06      0.20
   16   27    8      0.06      0.81
   17   27    8      0.76     -0.53
   18   27    8      0.28     -0.29
   19   27    8     -0.82      0.15
   20   27    8     -0.95     -0.03
   21   27    8      0.64     -0.22
   22   27    8      0.24     -0.32
   23   27    8     -0.55     -0.35
   24   27    8     -0.01      0.03
   12   28    8     -0.19     -1.70
   13   28    8     -0.45      1.25
   14   28    8      0.53     -0.48
   15   28    8     -0.01      0.04
   16   28    8     -0.25      0.87
   17   28    8      0.00      1.02
   18   28    8      0.20      0.28
   19   28    8      0.52     -0.03
   20   28    8      0.26      0.91
   21   28    8     -0.22     -0.04
   22   28    8      0.68     -0.52
   23   28    8     -0.28     -0.76
   11   29    8     -2.09     -1.35
   12   29    8      0.93      0.75
   13   29    8     -0.58     -0.84
   14   29    8     -0.06     -0.26
   15   29    8     -0.50      0.36
   16   29    8     -0.38     -0.43
   17   29    8      0.77     -0.51
   18   29    8      0.34      0.53
   19   29    8      0.34      0.51
   20   29    8      0.03      0.44
   21   29    8      0.05     -0.16
   22   29    8     -0.08     -0.51
    9   30    8      0.41     -0.11
   10   30    8     -1.18     -0.28
   11   30    8     -0.24      1.10
   12   30    8     -0.50     -0.85
   13   30    8     -0.45     -0.49
   14   30    8      0.19      0.33
   15   30    8     -0.16     -0.05
   16   30    8     -0.07     -0.39
   17   30    8     -0.41      0.13
   18   30    8     -0.36     -0.12
   19   30    8      0.37     -0.72
   20   30    8      0.35      0.08
   21   30    8     -0.70     -0.24
   22   30    8      0.16     -0.34
    7   31    8     -1.87     -0.64
    8   31    8     -0.20      0.83
    9   31    8     -1.06     -0.63
   10   31    8      0.58     -0.34
   11   31    8     -1.41     -0.70
   12   31    8      1.33      0.35
   13   31    8     -0.30      0.29
   14   31    8     -1.14      0.12
   15   31    8      0.01     -0.79
   16   31    8     -0.47     -0.56
   17   31    8     -0.36      0.62
   18   31    8      0.10      0.86
   19   31    8     -0.21      0.39
   20   31    8     -0.60      0.07
   21   31    8      0.56     -0.28
    4   32    8      0.04     -0.71
    5   32    8      0.91     -1.35
    6   32    8      1.26      0.13
    7   32    8      0.30     -0.69
    8   32    8      0.25      0.01
    9   32    8      0.60      0.24
   10   32    8     -0.32     -0.02
   11   32    8     -0.73      0.04
   12   32    8      0.07      0.09
   13   32    8      0.02     -0.17
   14   32    8     -0.57     -0.44
   15   32    8      0.05      0.54
   16   32    8      0.12      0.10
   17   32    8     -0.53      0.21
   18   32    8      0.00      0.54
   19   32    8     -0.26     -0.18
   20   32    8     -0.07     -0.14
    0   33    8      0.80      0.02
    1   33    8     -0.43      0.88
    2   33    8     -0.21      0.91
    3   33    8     -1.66     -0.70
    4   33    8     -0.67      0.43
    5   33    8     -1.36     -0.16
    6   33    8      0.95     -0.12
    7   33    8     -0.16     -1.11
    8   33    8     -0.08     -0.74
    9   33    8     -0.42     -0.29
   10   33    8      0.46     -1.08
   11   33    8     -0.39     -1.47
   12   33    8     -0.14      0.40
   13   33    8      0.41      0.42
   14   33    8     -0.04      0.42
   15   33    8      0.40      1.07
   16   33    8      0.11      0.37
   17   33    8      0.09     -0.34
   18   33    8     -0.25     -0.18
   19   33    8     -0.04      0.67
   20   33    8      0.02      0.07
    0   34    8      0.52     -0.07
    1   34    8      0.43      0.23
    2   34    8      1.10      1.04
    3   34    8      0.62      1.36
    4   34    8      0.21     -0.18
    5   34    8      0.06     -0.03
    6   34    8      0.05      0.53
    7   34    8     -0.41     -0.14
    8   34    8      0.48     -0.52
    9   34    8      0.12      0.53
   10   34    8      0.63      0.68
   11   34    8     -0.69      0.19
   12   34    8     -0.52     -0.34
   13   34    8      0.72     -0.14
   14   34    8      0.00     -0.53
   15   34    8      0.21      0.36
   16   34    8      0.23     -0.14
   17   34    8     -0.48      0.19
   18   34    8     -0.10      0.27
   19   34    8      0.31     -0.08
   23    0    9     -0.17      2.76
   24    0    9      0.03     -1.06
   23    1    9     -3.08     -0.77
   24    1    9      1.07      0.35
   23    2    9      5.84      2.25
   24    2    9     -0.49     -0.47
   23    3    9      1.08      0.45
   24    3    9     -1.96     -1.28
   23    4    9      0.35      0.82
   24    4    9     -1.75      0.23
   23    5    9     -3.71      0.26
   24    5    9      1.29      1.40
   22    6    9     -3.12      0.20
   23    6    9     -0.51     -0.50
   24    6    9     -0.40      1.81
   22    7    9      2.96      1.52
   23    7    9     -0.03     -1.95
   24    7    9     -2.44     -0.98
   22    8    9     -0.71      1.78
   23    8    9     -0.77     -1.94
   24    8    9     -0.20     -0.50
   22    9    9      4.99      1.17
   23    9    9     -1.96     -0.44
   24    9    9     -0.94     -0.02
   22   10    9      0.68      0.43
   23   10    9      0.04     -1.62
   24   10    9      1.06      0.99
   21   11    9     -3.46     -0.10
   22   11    9      1.28      0.19
   23   11    9     -0.60      0.87
   24   11    9     -0.97     -0.99
   21   12    9     -2.64     -0.93
   22   12    9      1.54      0.26
   23   12    9      1.08     -0.10
   24   12    9     -0.81     -0.27
   21   13    9     -0.49      1.60
   22   13    9     -0.34     -1.99
   23   13    9     -1.08      0.32
   24   13    9     -0.19      0.12
   21   14    9     -1.46     -0.38
   22   14    9     -0.87      0.60
   23   14    9     -0.05     -0.59
   24   14    9     -0.06      1.10
   20   15    9     -1.35     -1.08
   21   15    9      1.15      1.19
   22   15    9      0.42      0.39
   23   15    9     -0.19      0.49
   24   15    9      1.00     -0.67
   20   16    9     -0.66      2.18
   21   16    9      0.57     -0.47
   22   16    9     -0.47     -1.15
   23   16    9     -0.97      0.04
   24   16    9     -0.63      0.03
   19   17    9     -2.77      0.59
   20   17    9     -1.43      0.16
   21   17    9      1.39      1.02
   22   17    9      0.03     -1.03
   23   17    9     -0.80      0.15
   24   17    9      0.15      0.43
   19   18    9      1.03      0.42
   20   18    9      0.47     -0.84
   21   18    9      0.76     -0.66
   22   18    9      0.00      0.85
   23   18    9     -0.34     -0.09
   24   18    9      0.07      0.26
   18   19    9      0.52      1.89
   19   19    9     -0.90      1.83
   20   19    9     -0.48      0.96
   21   19    9     -0.05     -0.25
   22   19    9      0.09     -0.54
   23   19    9      0.46      0.53
   24   19    9      0.53      0.15
   18   20    9     -1.04      1.12
   19   20    9     -1.02      1.38
   20   20    9     -0.16     -0.35
   21   20    9     -0.59     -1.02
   22   20    9      0.17      0.95
   23   20    9     -0.15      0.09
   24   20    9     -0.80      0.59
   17   21    9      0.38     -3.84
   18   21    9      0.48      0.47
   19   21    9      0.43     -0.11
   20   21    9      1.53     -0.28
   21   21    9      0.42      0.08
   22   21    9      0.23     -0.72
   23   21    9      0.19     -0.21
   24   21    9      0.41      0.46
   17   22    9     -1.28      0.17
   18   22    9     -0.69     -0.16
   19   22    9     -0.57     -0.91
   20   22    9      0.49     -0.23
   21   22    9      0.04     -0.85
   22   22    9      0.95      0.08
   23   22    9      0.45      0.10
   24   22    9     -0.54     -0.07
   16   23    9     -0.36      2.59
   17   23    9      0.23     -1.35
   18   23    9      1.73      0.22
   19   23    9      0.45      1.11
   20   23    9     -0.38     -0.51
   21   23    9     -0.40      0.38
   22   23    9      0.23      0.38
   23   23    9     -0.22     -0.55
   24   23    9     -0.71     -0.30
   15   24    9     -2.59     -1.02
   16   24    9      1.87      2.08
   17   24    9      0.98      0.11
   18   24    9     -0.32     -0.73
   19   24    9      0.13      0.06
   20   24    9      0.23      0.89
   21   24    9     -0.12     -0.38
   22   24    9     -0.07     -0.17
   23   24    9      0.12     -0.04
   24   24    9      0.20     -0.70
   14   25    9     -1.16      0.24
   15   25    9     -0.80      0.92
   16   25    9      0.61     -0.55
   17   25    9     -0.69      1.15
   18   25    9     -0.29     -0.64
   19   25    9      0.89     -0.24
   20   25    9      0.49     -0.14
   21   25    9      0.08     -0.22
   22   25    9      0.39     -0.44
   23   25    9      0.60      0.00
   24   25    9      0.38     -0.08
   13   26    9     -0.07      0.57
   14   26    9      0.40      1.10
   15   26    9     -0.85      0.00
   16   26    9     -0.52      0.03
   17   26    9      0.07     -0.62
   18   26    9      0.19     -0.01
   19   26    9      0.59     -0.81
   20   26    9     -0.51      0.00
   21   26    9      0.00      0.73
   22   26    9      0.23     -0.05
   23   26    9     -0.37      0.39
   24   26    9     -0.43     -0.14
   12   27    9      1.23     -2.08
   13   27    9     -1.28      1.87
   14   27    9      0.14     -0.28
   15   27    9      1.42     -0.71
   16   27    9     -0.04     -0.26
   17   27    9     -0.07      1.19
   18   27    9     -0.06     -0.49
   19   27    9      0.18      0.28
   20   27    9      0.11      0.85
   21   27    9      0.02      0.06
   22   27    9      0.12      0.05
   23   27    9      0.68      0.13
   11   28    9     -0.39     -0.96
   12   28    9      0.94     -0.51
   13   28    9      0.62     -0.19
   14   28    9      0.05      1.47
   15   28    9      0.14      0.39
   16   28    9     -0.34     -0.58
   17   28    9      1.02     -0.67
   18   28    9     -0.17      0.36
   19   28    9     -0.21      0.09
   20   28    9     -0.21     -0.21
   21   28    9     -0.53     -0.37
   22   28    9     -0.50     -1.09
   23   28    9      0.36      0.34
   10   29    9     -0.22     -0.70
   11   29    9      0.65      0.19
   12   29    9     -0.06     -0.52
   13   29    9     -1.54      0.38
   14   29    9     -0.22      0.06
   15   29    9      1.23      0.13
   16   29    9      0.98      0.20
   17   29    9      0.73      0.09
   18   29    9     -0.73     -0.11
   19   29    9     -0.41     -0.24
   20   29    9      0.13      0.19
   21   29    9      0.19     -0.06
   22   29    9     -0.60      0.17
    8   30    9      0.98     -0.05
    9   30    9      0.26     -0.24
   10   30    9     -0.70      1.56
   11   30    9      0.70      0.03
   12   30    9      1.65     -0.47
   13   30    9     -0.05     -0.39
   14   30    9     -0.69     -0.09
   15   30    9      0.38     -0.08
   16   30    9     -0.43      0.41
   17   30    9      0.51      0.14
   18   30    9     -0.12      0.57
   19   30    9     -0.02      0.58
   20   30    9      0.19     -0.29
   21   30    9     -0.13      0.64
    5   31    9     -1.92      3.09
    6   31    9     -0.52      0.39
    7   31    9     -0.41     -1.97
    8   31    9      0.32      0.45
    9   31    9      0.48      1.97
   10   31    9      0.26      0.61
   11   31    9     -0.27      0.08
   12   31    9     -0.12      0.95
   13   31    9      0.05     -0.89
   14   31    9      0.17     -0.42
   15   31    9     -0.80     -0.41
   16   31    9     -0.21      0.00
   17   31    9      0.63      0.18
   18   31    9     -0.33      0.43
   19   31    9     -0.09     -0.54
   20   31    9     -0.01      0.40
   21   31    9      0.33      0.65
    0   32    9     -1.17     -0.07
    1   32    9      0.42     -1.36
    2   32    9      0.64     -1.97
    3   32    9      0.68     -2.32
    4   32    9     -0.60      0.83
    5   32    9      0.95      0.14
    6   32    9     -1.32     -0.32
    7   32    9     -0.28     -0.11
    8   32    9     -0.29      1.07
    9   32    9      0.75     -1.02
   10   32    9     -0.31     -0.26
   11   32    9      0.17      0.79
   12   32    9      0.64      0.31
   13   32    9      0.14      0.33
   14   32    9     -0.10      0.33
   15   32    9      0.64     -0.02
   16   32    9      0.17     -0.52
   17   32    9      0.24     -0.75
   18   32    9      0.47     -0.02
   19   32    9      0.35      0.32
   20   32    9     -0.15     -0.49
    0   33    9     -1.87      0.13
    1   33    9     -0.60      0.34
    2   33    9      0.19      0.49
    3   33    9      0.97     -0.82
    4   33    9     -0.22      0.23
    5   33    9     -1.89     -0.07
    6   33    9      0.52     -0.60
    7   33    9      1.46     -1.21
    8   33    9      0.54      0.84
    9   33    9     -0.66     -0.06
   10   33    9      0.22     -0.98
   11   33    9     -0.65     -0.85
   12   33    9     -0.12      0.84
   13   33    9      0.73     -0.55
   14   33    9      0.69      0.00
   15   33    9      0.14     -0.11
   16   33    9      0.12      0.13
   17   33    9     -0.24      0.11
   18   33    9     -0.37      0.05
   19   33    9      0.22     -0.04
    0   34    9      0.61      0.00
    1   34    9      0.63     -0.76
    2   34    9     -0.01     -0.41
    3   34    9     -0.53      0.26
    4   34    9     -0.27     -0.20
    5   34    9      0.57     -1.13
    6   34    9     -0.44      0.25
    7   34    9      0.23     -0.38
    8   34    9      0.06     -1.09
    9   34    9      0.36     -0.65
   10   34    9      0.28      0.71
   11   34    9      0.19     -0.02
   12   34    9     -0.16     -0.88
   13   34    9      0.15      0.52
   14   34    9     -0.49     -0.26
   15   34    9     -1.09     -0.03
   16   34    9     -0.01      0.85
   17   34    9      0.37      0.38
   18   34    9      0.09      0.06
   22    0   10     -4.36      0.09
   23    0   10     -0.65      0.25
   24    0   10     -1.18      0.10
   22    1   10      1.64      2.29
   23    1   10     -0.46      0.99
   24    1   10      1.10      0.78
   22    2   10     -0.36     -0.94
   23    2   10      0.85     -1.62
   24    2   10      0.45     -0.81
   22    3   10     -1.06      2.33
   23    3   10     -0.95     -0.93
   24    3   10      2.00     -1.71
   22    4   10     -1.07     -3.16
   23    4   10     -1.14      0.42
   24    4   10     -1.29     -0.60
   22    5   10      1.71      0.37
   23    5   10      1.71     -1.94
   24    5   10      0.93     -0.99
   22    6   10     -3.13     -6.85
   23    6   10      1.17     -0.16
   24    6   10      0.41     -0.33
   22    7   10      0.30     -2.73
   23    7   10      0.58     -0.25
   24    7   10      0.29      1.24
   22    8   10      0.75     -2.21
   23    8   10      1.02      0.40
   24    8   10      0.21     -0.94
   21    9   10      0.60      0.12
   22    9   10      0.24      0.39
   23    9   10      0.54     -0.64
   24    9   10     -1.61      0.10
   21   10   10      0.60     -3.26
   22   10   10      0.25     -3.39
   23   10   10     -1.57      0.46
   24   10   10      0.09     -0.69
   21   11   10      1.13     -0.76
   22   11   10      0.04      0.58
   23   11   10     -1.74     -0.58
   24   11   10     -0.93      0.71
   21   12   10      0.67     -0.70
   22   12   10      0.72     -0.24
   23   12   10     -0.87      0.07
   24   12   10      0.46      0.30
   20   13   10     -0.69     -0.89
   21   13   10      0.82     -0.47
   22   13   10      1.52     -0.67
   23   13   10     -0.46     -0.91
   24   13   10     -0.70      0.26
   20   14   10      1.80      0.53
   21   14   10      0.67      1.58
   22   14   10     -1.12     -1.43
   23   14   10     -0.25     -0.40
   24   14   10     -0.10      0.64
   20   15   10     -1.44     -1.20
   21   15   10     -0.90      1.36
   22   15   10      0.08     -0.54
   23   15   10      0.26     -0.57
   24   15   10     -0.41      0.35
   19   16   10     -0.43     -1.53
   20   16   10     -1.63     -0.37
   21   16   10     -2.12     -0.69
   22   16   10      0.08      1.93
   23   16   10      0.47      0.58
   24   16   10     -0.64     -0.37
   19   17   10      2.16      3.35
   20   17   10      0.87      0.38
   21   17   10      0.21     -0.60
   22   17   10     -0.27      0.48
   23   17   10     -0.03     -0.05
   24   17   10     -0.11     -0.65
   18   18   10     -1.07     -0.08
   19   18   10      1.14     -1.12
   20   18   10     -1.36      0.68
   21   18   10     -0.26     -0.30
   22   18   10      1.11     -0.06
   23   18   10     -0.79     -1.41
   24   18   10     -0.41     -0.30
   18   19   10      0.48     -0.21
   19   19   10     -0.07      0.42
   20   19   10     -1.61      0.80
   21   19   10      0.64      1.07
   22   19   10      0.71     -0.59
   23   19   10     -0.21     -0.01
   24   19   10      0.34      0.73
   17   20   10      0.72     -0.73
   18   20   10     -0.60      0.01
   19   20   10      0.26      1.00
   20   20   10     -0.20      0.22
   21   20   10     -0.20     -0.28
   22   20   10     -0.03      0.27
   23   20   10     -0.18     -0.17
   24   20   10     -0.09      0.40
   17   21   10     -1.90     -0.64
   18   21   10     -2.04      0.22
   19   21   10     -1.41     -0.94
   20   21   10     -1.37     -0.08
   21   21   10      0.21      0.98
   22   21   10     -0.34      0.78
   23   21   10      0.15      0.40
   24   21   10      0.36     -0.15
   16   22   10     -2.36      0.08
   17   22   10     -0.83     -1.97
   18   22   10     -0.72     -0.41
   19   22   10     -0.92      1.08
   20   22   10     -0.26      0.47
   21   22   10      0.11      1.11
   22   22   10     -0.10      0.42
   23   22   10      0.29     -0.76
   24   22   10      0.20     -0.01
   15   23   10      0.33     -0.94
   16   23   10      0.19     -2.34
   17   23   10     -0.99     -0.22
   18   23   10     -0.49      1.70
   19   23   10      0.46     -0.71
   20   23   10      0.41     -0.52
   21   23   10      0.37      0.37
   22   23   10      0.12     -0.12
   23   23   10      0.35     -0.58
   24   23   10     -0.16      0.28
   14   24   10      2.73      2.57
   15   24   10      0.23     -2.69
   16   24   10     -1.85      0.94
   17   24   10      0.21     -0.28
   18   24   10     -0.28     -1.06
   19   24   10     -1.20      0.68
   20   24   10      0.96      0.07
   21   24   10      0.66     -0.21
   22   24   10     -0.51     -0.03
   23   24   10      0.15      0.33
   24   24   10      0.19      0.23
   14   25   10      0.35      0.68
   15   25   10      0.50      2.38
   16   25   10     -0.40     -0.26
   17   25   10      0.02     -0.86
   18   25   10      1.12      0.49
   19   25   10      0.43      0.14
   20   25   10      0.06      0.06
   21   25   10     -0.17      0.13
   22   25   10     -0.42      0.00
   23   25   10      0.15      0.15
   24   25   10      0.05      0.23
   13   26   10      0.41     -1.70
   14   26   10     -0.62     -0.71
   15   26   10      1.58     -1.48
   16   26   10     -0.36      0.43
   17   26   10     -1.46     -0.11
   18   26   10      0.45     -0.40
   19   26   10      0.07      0.60
   20   26   10     -0.32      0.50
   21   26   10      0.35      0.81
   22   26   10     -0.08     -0.13
   23   26   10     -0.26     -0.09
   11   27   10     -0.04     -0.10
   12   27   10      0.20      0.13
   13   27   10      2.01     -1.35
   14   27   10     -0.46     -0.82
   15   27   10     -0.80     -0.34
   16   27   10     -0.46     -0.32
   17   27   10     -0.65      0.40
   18   27   10     -0.13     -0.03
   19   27   10     -0.83      0.02
   20   27   10     -0.06     -0.17
   21   27   10      0.60      0.19
   22   27   10     -0.06      0.41
   23   27   10     -0.53     -0.09
   10   28   10      2.14      1.15
   11   28   10     -0.37     -1.06
   12   28   10     -0.56     -0.11
   13   28   10     -0.13     -1.34
   14   28   10     -0.79      0.22
   15   28   10     -0.46      0.32
   16   28   10      0.61      0.28
   17   28   10      0.45      0.63
   18   28   10     -0.24      0.48
   19   28   10     -0.31      0.28
   20   28   10     -0.39     -0.01
   21   28   10      0.12      0.60
   22   28   10      0.44     -0.12
    8   29   10      0.01      0.65
    9   29   10      0.35      0.19
   10   29   10     -0.34      1.10
   11   29   10      1.68      1.02
   12   29   10     -1.12     -0.99
   13   29   10      0.16      0.52
   14   29   10      0.38      0.42
   15   29   10      0.34     -0.22
   16   29   10      0.13      0.45
   17   29   10     -0.91     -0.01
   18   29   10     -0.36     -1.27
   19   29   10      0.03      0.27
   20   29   10      0.17      0.35
   21   29   10     -0.35     -0.18
   22   29   10      0.22      0.04
    6   30   10     -0.42      0.12
    7   30   10     -1.85      0.24
    8   30   10      0.11     -0.35
    9   30   10     -0.35     -0.28
   10   30   10      1.22     -0.40
   11   30   10     -0.02      0.43
   12   30   10      0.58      1.11
   13   30   10      0.02     -0.33
   14   30   10     -0.05     -1.01
   15   30   10      0.56     -0.77
   16   30   10     -0.20     -0.04
   17   30   10      0.28      0.57
   18   30   10      0.44      0.22
   19   30   10      0.30     -0.01
   20   30   10     -0.09     -0.19
   21   30   10      0.08      0.22
    3   31   10     -0.60     -0.54
    4   31   10     -0.66      0.31
    5   31   10     -0.17      0.36
    6   31   10     -0.87     -0.24
    7   31   10      0.16      0.87
    8   31   10     -0.91     -0.12
    9   31   10      0.70     -0.19
   10   31   10      0.47      0.22
   11   31   10      0.74      0.75
   12   31   10     -0.31      0.47
   13   31   10      0.52      0.75
   14   31   10      0.16     -0.81
   15   31   10     -0.03     -0.06
   16   31   10      0.89      0.79
   17   31   10      0.21     -0.45
   18   31   10      0.23     -0.62
   19   31   10      0.38     -0.29
   20   31   10     -0.07     -0.09
    0   32   10      1.71      0.05
    1   32   10     -1.63      0.86
    2   32   10     -1.47      0.48
    3   32   10     -1.11     -1.17
    4   32   10     -1.18     -0.08
    5   32   10      0.03      0.03
    6   32   10      0.12     -0.15
    7   32   10      0.91      0.38
    8   32   10      0.94      0.77
    9   32   10      0.62      0.33
   10   32   10      0.30     -0.04
   11   32   10     -0.41     -0.21
   12   32   10      0.20     -0.17
   13   32   10      0.07      0.00
   14   32   10     -0.15      0.35
   15   32   10      0.18      0.10
   16   32   10      0.34      0.14
   17   32   10      0.46      0.15
   18   32   10     -0.81     -0.03
   19   32   10      0.02     -0.18
    0   33   10      1.15      0.07
    1   33   10     -0.08      0.09
    2   33   10     -1.51     -0.17
    3   33   10     -0.18      0.54
    4   33   10      0.68     -0.64
    5   33   10      0.22     -0.34
    6   33   10     -0.06      0.14
    7   33   10      0.48      0.28
    8   33   10     -0.19      0.36
    9   33   10      0.34      0.25
   10   33   10      0.91      0.62
   11   33   10     -0.24      0.20
   12   33   10     -0.74     -1.15
   13   33   10      0.11     -0.84
   14   33   10      0.62     -0.67
   15   33   10      0.30     -0.56
   16   33   10      0.64     -0.31
   17   33   10     -0.37     -0.13
   18   33   10     -0.58      0.47
   19   33   10     -0.11     -0.46
    0   34   10      0.21      0.15
    1   34   10     -1.08      0.22
    2   34   10     -0.07      0.11
    3   34   10      0.27     -0.14
    4   34   10     -0.66      0.71
    5   34   10     -0.76      0.84
    6   34   10     -1.07      0.68
    7   34   10      0.25     -0.90
    8   34   10     -0.53      0.01
    9   34   10     -0.31      0.26
   10   34   10      0.17      0.11
   11   34   10      0.39     -0.05
   12   34   10     -0.17      0.11
   13   34   10     -0.35     -0.54
   14   34   10      0.26     -0.30
   15   34   10     -0.49      0.11
   16   34   10     -0.72      0.15
   17   34   10      0.38     -0.54
   18   34   10      0.25     -0.30
   22    0   11      0.17      1.21
   23    0   11     -0.08      0.34
   24    0   11      0.00      3.66
   22    1   11     -0.58     -1.48
   23    1   11      0.46     -1.10
   24    1   11     -0.38      0.72
   22    2   11      0.04      1.44
   23    2   11     -0.27     -1.93
   24    2   11     -0.58     -0.20
   22    3   11      0.26     -2.14
   23    3   11     -0.40     -0.20
   24    3   11      2.04      0.78
   22    4   11      2.31      1.52
   23    4   11     -0.52     -0.86
   24    4   11      1.77     -0.05
   22    5   11      2.20      1.63
   23    5   11      1.29      2.25
   24    5   11      0.82     -1.28
   21    6   11     -1.13      0.84
   22    6   11     -0.71      0.91
   23    6   11     -0.59      0.37
   24    6   11     -0.18     -1.89
   21    7   11     -1.27      0.38
   22    7   11      0.06     -1.39
   23    7   11      0.60     -0.12
   24    7   11      0.97     -0.63
   21    8   11     -1.27      0.17
   22    8   11      0.58      0.51
   23    8   11     -0.77      0.28
   24    8   11     -0.21     -0.39
   21    9   11     -0.34      1.54
   22    9   11      0.06     -0.44
   23    9   11      1.06     -0.23
   24    9   11      0.10      0.40
   21   10   11      0.04     -0.97
   22   10   11      0.64      0.79
   23   10   11     -0.69      0.57
   24   10   11     -0.06     -0.58
   20   11   11     -1.12      1.14
   21   11   11     -0.93     -0.53
   22   11   11     -0.13      0.86
   23   11   11      0.50      0.52
   24   11   11     -0.55      0.88
   20   12   11      0.11     -0.99
   21   12   11     -0.16     -0.51
   22   12   11     -0.75      1.00
   23   12   11      0.59      0.73
   24   12   11      0.92     -0.54
   20   13   11      1.65      0.59
   21   13   11      0.11     -0.94
   22   13   11     -0.56      0.10
   23   13   11      0.39     -1.06
   24   13   11      0.00      0.20
   19   14   11     -2.50      0.43
   20   14   11      0.08      3.73
   21   14   11      1.05     -0.19
   22   14   11     -0.10     -0.16
   23   14   11     -0.49      0.78
   24   14   11      0.73     -0.24
   19   15   11     -1.76     -0.32
   20   15   11      0.77     -0.36
   21   15   11     -0.26     -0.10
   22   15   11      0.44      0.02
   23   15   11      0.32     -0.94
   24   15   11     -0.20      0.89
   19   16   11     -0.49      1.26
   20   16   11      0.95      0.59
   21   16   11     -0.88      0.87
   22   16   11     -0.01      0.62
   23   16   11      0.88     -0.41
   24   16   11      0.03      0.34
   18   17   11      1.61     -3.45
   19   17   11     -0.89      0.73
   20   17   11      0.71      0.15
   21   17   11     -0.43     -0.51
   22   17   11     -0.62      0.97
   23   17   11      0.66      0.04
   24   17   11      0.16     -0.51
   18   18   11     -2.58      0.99
   19   18   11     -0.53     -1.57
   20   18   11      0.33     -1.73
   21   18   11     -0.51      0.67
   22   18   11     -0.36      0.71
   23   18   11      0.29      0.19
   24   18   11      0.39      0.14
   17   19   11     -1.01      1.93
   18   19   11      1.06     -1.58
   19   19   11      0.13      0.14
   20   19   11     -0.95      0.63
   21   19   11     -0.79     -0.08
   22   19   11     -0.40      0.13
   23   19   11     -0.43      0.18
   24   19   11     -0.09      0.31
   17   20   11      0.28      0.13
   18   20   11      0.76      1.74
   19   20   11      0.68      1.08
   20   20   11      0.07     -0.62
   21   20   11      0.17     -0.11
   22   20   11      0.43     -0.38
   23   20   11      0.28     -0.74
   24   20   11     -0.32     -0.68
   16   21   11      1.95      0.65
   17   21   11     -0.97      0.49
   18   21   11     -0.65      0.98
   19   21   11      0.42      0.79
   20   21   11     -0.79     -0.56
   21   21   11     -0.51     -1.00
   22   21   11      0.33      0.21
   23   21   11      0.19      0.59
   24   21   11     -0.26      0.55
   15   22   11      0.22      1.88
   16   22   11      1.62     -1.30
   17   22   11      1.37      0.35
   18   22   11     -0.26     -0.19
   19   22   11      0.61      0.23
   20   22   11      0.80     -0.17
   21   22   11      0.27      0.46
   22   22   11     -0.71      0.59
   23   22   11     -0.58      0.36
   24   22   11      0.29     -0.37
   15   23   11     -0.26     -2.81
   16   23   11      0.34      0.47
   17   23   11      0.61     -0.17
   18   23   11     -0.28     -0.85
   19   23   11      0.16     -0.56
   20   23   11     -0.17      0.07
   21   23   11      0.20     -0.48
   22   23   11     -0.26      0.00
   23   23   11     -0.04     -0.15
   24   23   11      0.87     -0.10
   14   24   11      1.22      0.97
   15   24   11      0.93      0.45
   16   24   11      0.25     -1.14
   17   24   11      0.14      0.34
   18   24   11     -0.39     -0.88
   19   24   11     -1.26      0.69
   20   24   11     -1.05      0.79
   21   24   11     -0.16     -0.12
   22   24   11      0.17     -0.11
   23   24   11     -0.19     -0.15
   24   24   11     -0.38      0.27
   13   25   11     -0.91      0.32
   14   25   11     -1.27      0.78
   15   25   11     -1.08     -1.00
   16   25   11     -0.56      1.07
   17   25   11      0.55     -2.05
   18   25   11     -0.42     -0.29
   19   25   11     -0.18      0.78
   20   25   11      0.07     -0.74
   21   25   11      0.32     -0.52
   22   25   11      0.06      1.25
   23   25   11     -0.35     -0.07
   12   26   11     -0.83     -1.08
   13   26   11     -0.47      0.74
   14   26   11     -0.02     -0.04
   15   26   11     -0.64      1.00
   16   26   11     -1.30      0.05
   17   26   11     -0.20     -0.29
   18   26   11      0.58     -0.55
   19   26   11     -0.30      0.14
   20   26   11      0.53     -0.03
   21   26   11     -0.06      0.33
   22   26   11     -0.40      0.71
   23   26   11      1.04     -0.80
   10   27   11     -0.31      2.08
   11   27   11     -1.39     -1.48
   12   27   11     -1.06      2.26
   13   27   11      1.10     -0.42
   14   27   11      0.85      0.59
   15   27   11      1.12     -0.31
   16   27   11      0.82      0.18
   17   27   11      0.07      0.24
   18   27   11     -0.13      0.62
   19   27   11     -0.02     -0.77
   20   27   11     -0.48     -0.22
   21   27   11     -0.87      0.88
   22   27   11     -0.79     -0.34
    9   28   11      0.40      0.12
   10   28   11     -1.83      0.41
   11   28   11      1.06      0.09
   12   28   11     -0.58     -0.44
   13   28   11      0.01     -0.05
   14   28   11      1.44     -0.99
   15   28   11      0.36     -0.09
   16   28   11      0.16      0.34
   17   28   11     -0.51      0.28
   18   28   11     -0.13      0.05
   19   28   11     -0.07     -0.08
   20   28   11      0.16      0.13
   21   28   11      0.02      0.08
   22   28   11     -0.51      0.69
    7   29   11      1.25     -3.54
    8   29   11      1.68      1.31
    9   29   11     -0.34      0.46
   10   29   11     -0.67     -1.00
   11   29   11     -0.05     -0.37
   12   29   11      0.08     -0.04
   13   29   11      1.15     -1.12
   14   29   11      0.25      0.46
   15   29   11     -0.51      0.18
   16   29   11     -0.83     -0.49
   17   29   11     -0.42      0.42
   18   29   11      0.23     -0.35
   19   29   11     -0.33     -0.62
   20   29   11      0.23     -0.31
   21   29   11      0.48      0.19
    4   30   11      1.17     -0.33
    5   30   11     -1.21      0.19
    6   30   11      0.19      0.10
    7   30   11      0.18      1.77
    8   30   11      0.34      0.36
    9   30   11     -0.44     -1.28
   10   30   11      0.16     -0.66
   11   30   11      0.41      0.66
   12   30   11     -0.95      0.18
   13   30   11     -0.93      0.04
   14   30   11     -1.20      0.30
   15   30   11     -1.35     -0.19
   16   30   11      0.23      0.12
   17   30   11     -0.10      0.01
   18   30   11      0.02     -0.42
   19   30   11      0.23      0.17
   20   30   11     -0.21      0.94
    0   31   11     -2.06      0.99
    1   31   11     -2.85      1.92
    2   31   11     -0.89     -0.88
    3   31   11      1.17      2.57
    4   31   11      0.90     -0.04
    5   31   11      0.37      0.36
    6   31   11     -0.73      0.93
    7   31   11     -0.22      0.89
    8   31   11     -0.34      0.18
    9   31   11      0.63     -0.70
   10   31   11      0.28      0.97
   11   31   11      0.16      1.77
   12   31   11     -0.11     -0.74
   13   31   11     -0.10      0.34
   14   31   11     -0.05     -0.07
   15   31   11      0.49     -0.48
   16   31   11     -0.31     -0.29
   17   31   11     -0.14      0.38
   18   31   11      0.89     -0.57
   19   31   11     -0.23      0.20
   20   31   11     -0.01     -0.33
    0   32   11     -1.19      0.00
    1   32   11     -0.16      1.55
    2   32   11     -0.05      1.17
    3   32   11     -0.81      0.80
    4   32   11     -0.29     -0.14
    5   32   11      0.30     -0.44
    6   32   11      0.76     -0.32
    7   32   11     -1.08      0.87
    8   32   11     -0.20      0.44
    9   32   11      0.32     -0.18
   10   32   11     -0.01     -0.53
   11   32   11     -0.31     -0.29
   12   32   11     -0.13     -0.06
   13   32   11      0.37     -0.40
   14   32   11      0.49      0.08
   15   32   11      0.55     -0.58
   16   32   11     -0.34      0.16
   17   32   11     -0.70      0.71
   18   32   11     -0.09      0.15
   19   32   11      0.21     -0.68
    0   33   11     -0.31      0.34
    1   33   11      0.13     -0.17
    2   33   11      0.57     -1.66
    3   33   11     -0.19      0.46
    4   33   11      0.23     -0.99
    5   33   11      0.93     -0.52
    6   33   11     -0.82      0.19
    7   33   11     -0.50      0.86
    8   33   11      0.50     -0.80
    9   33   11      0.90     -0.97
   10   33   11     -0.18     -0.01
   11   33   11      0.68      0.86
   12   33   11      0.22     -0.31
   13   33   11     -0.65      0.63
   14   33   11     -0.11     -0.70
   15   33   11      0.14     -0.02
   16   33   11     -0.52      0.47
   17   33   11     -0.13      0.32
   18   33   11      0.79      0.09
    0   34   11      1.19     -0.11
    1   34   11      1.08     -0.04
    2   34   11     -0.40      0.77
    3   34   11      0.30      0.22
    4   34   11      0.61     -0.22
    5   34   11      0.54     -0.15
    6   34   11      0.50     -0.54
    7   34   11      0.41      0.04
    8   34   11      0.03      0.71
    9   34   11     -0.41      0.69
   10   34   11     -0.06     -0.35
   11   34   11      0.35      0.09
   12   34   11     -0.02      0.92
   13   34   11     -0.64     -0.46
   14   34   11     -0.28      0.22
   15   34   11      1.15      0.39
   16   34   11      0.33     -0.22
   17   34   11     -0.05     -0.66
   21    0   12      1.47     -0.12
   22    0   12     -3.33      0.12
   23    0   12     -0.81      0.11
   24    0   12      2.04      0.37
   21    1   12      0.86     -1.25
   22    1   12      1.00     -1.50
   23    1   12     -0.59      0.52
   24    1   12     -1.04      1.19
   21    2   12     -2.14     -1.19
   22    2   12      0.48      0.53
   23    2   12      0.52     -0.61
   24    2   12     -0.65     -0.12
   21    3   12     -4.01     -0.46
   22    3   12      1.94     -2.51
   23    3   12     -0.50      0.57
   24    3   12     -1.44      1.20
   21    4   12      1.41      0.64
   22    4   12      0.20      0.77
   23    4   12     -0.13     -0.92
   24    4   12      0.60      0.07
   21    5   12     -0.16      2.92
   22    5   12     -3.04      0.86
   23    5   12     -0.79     -1.41
   24    5   12      0.61      0.22
   21    6   12      0.08     -3.22
   22    6   12      0.61      1.12
   23    6   12      0.68     -1.32
   24    6   12     -1.12      0.65
   21    7   12     -1.01     -3.52
   22    7   12     -1.28      0.80
   23    7   12      0.03      0.81
   24    7   12      0.30     -0.89
   21    8   12      1.23     -0.99
   22    8   12     -1.62     -0.07
   23    8   12      0.55     -0.12
   24    8   12      0.32      1.51
   20    9   12     -0.91      0.25
   21    9   12     -1.69      1.62
   22    9   12      0.09      0.55
   23    9   12     -0.49      0.36
   24    9   12     -0.27     -0.30
   20   10   12      0.80     -0.83
   21   10   12      0.53     -0.29
   22   10   12     -0.38      1.33
   23   10   12     -0.51     -0.55
   24   10   12     -0.07      0.47
   20   11   12     -2.33      1.64
   21   11   12      0.34      0.47
   22   11   12      1.45     -1.04
   23   11   12      0.20      0.48
   24   11   12      0.25     -0.03
   20   12   12     -1.07      1.21
   21   12   12     -0.56      0.17
   22   12   12      1.75      0.92
   23   12   12      0.94      0.34
   24   12   12      0.34      0.21
   19   13   12      1.48     -1.41
   20   13   12      0.60     -0.57
   21   13   12     -1.24     -0.80
   22   13   12     -1.48      0.26
   23   13   12     -0.01      0.67
   24   13   12      0.54     -0.58
   19   14   12     -0.63      0.21
   20   14   12     -0.74     -2.20
   21   14   12      0.71      0.49
   22   14   12     -0.36      2.16
   23   14   12     -0.49      0.49
   24   14   12      0.74     -0.63
   18   15   12     -0.14     -0.55
   19   15   12      0.59      1.23
   20   15   12      0.79     -0.56
   21   15   12      0.66     -1.46
   22   15   12     -1.16      0.81
   23   15   12     -0.52     -0.09
   24   15   12      0.76     -0.81
   18   16   12      2.13      0.08
   19   16   12      0.15      1.28
   20   16   12     -0.63      0.13
   21   16   12      0.36      0.41
   22   16   12      0.25     -0.84
   23   16   12      0.00     -0.39
   24   16   12      0.74      0.38
   18   17   12     -1.02     -0.54
   19   17   12     -0.83     -1.26
   20   17   12     -0.70      0.59
   21   17   12     -0.25      0.71
   22   17   12      0.58      0.32
   23   17   12      0.97      0.24
   24   17   12      0.04      0.39
   17   18   12      1.28     -1.75
   18   18   12      0.17      0.02
   19   18   12     -1.20      1.60
   20   18   12      1.01      0.10
   21   18   12      0.55     -0.94
   22   18   12      0.02     -0.03
   23   18   12      0.26      1.57
   24   18   12      0.18     -0.72
   16   19   12      0.00      0.68
   17   19   12      1.48      1.73
   18   19   12     -0.25     -0.37
   19   19   12     -0.83     -1.58
   20   19   12      0.56     -0.77
   21   19   12      0.05      0.10
   22   19   12     -0.17     -0.31
   23   19   12      0.10      0.49
   24   19   12     -0.75      0.18
   16   20   12      0.87      1.05
   17   20   12     -0.17     -0.20
   18   20   12      0.64     -1.29
   19   20   12      0.27     -0.95
   20   20   12     -0.39     -0.23
   21   20   12     -0.72     -0.09
   22   20   12      0.31     -0.06
   23   20   12      0.10      0.73
   24   20   12     -0.88      0.00
   15   21   12     -1.55     -2.27
   16   21   12     -0.31      0.25
   17   21   12      1.53      0.37
   18   21   12      0.31     -0.06
   19   21   12     -0.30      0.77
   20   21   12      0.09     -0.13
   21   21   12     -0.08      0.49
   22   21   12      0.73     -0.33
   23   21   12      0.33     -0.34
   24   21   12     -0.38      0.25
   14   22   12      2.54     -2.34
   15   22   12      0.81      0.96
   16   22   12     -0.67      0.82
   17   22   12      0.44      1.24
   18   22   12      0.64      0.40
   19   22   12      0.81      0.03
   20   22   12      0.09      0.34
   21   22   12     -0.28     -0.86
   22   22   12      0.33     -0.66
   23   22   12      0.65      0.24
   24   22   12      0.10     -0.01
   14   23   12     -0.64     -0.15
   15   23   12     -1.25      1.78
   16   23   12     -0.41      1.15
   17   23   12     -0.49      0.37
   18   23   12     -0.29      0.13
   19   23   12      0.42      0.74
   20   23   12      0.10      0.34
   21   23   12     -0.61      0.28
   22   23   12     -0.10     -0.59
   23   23   12     -0.32      0.05
   24   23   12      0.12      0.07
   13   24   12     -0.45      0.71
   14   24   12      1.18      0.51
   15   24   12      0.51      2.02
   16   24   12      0.35     -0.73
   17   24   12      0.31      0.50
   18   24   12     -0.28      1.52
   19   24   12      0.65     -0.45
   20   24   12     -0.37     -0.91
   21   24   12     -0.30     -0.13
   22   24   12     -0.13      0.76
   23   24   12     -0.39      0.15
   12   25   12      0.52     -1.48
   13   25   12     -0.04      0.78
   14   25   12      0.30      0.83
   15   25   12     -0.89     -0.06
   16   25   12      0.22      0.18
   17   25   12      0.64     -0.50
   18   25   12     -0.15     -0.27
   19   25   12      0.54      0.24
   20   25   12      0.89     -0.71
   21   25   12     -0.51     -0.43
   22   25   12     -0.87      0.40
   23   25   12     -0.09     -0.21
   11   26   12      0.50     -0.40
   12   26   12     -0.96     -3.10
   13   26   12     -1.11     -0.63
   14   26   12     -0.68      0.06
   15   26   12      0.34      0.45
   16   26   12      0.10     -0.20
   17   26   12      0.31     -0.20
   18   26   12      0.15     -0.19
   19   26   12      0.14     -0.07
   20   26   12      0.31     -0.32
   21   26   12      0.60     -1.01
   22   26   12     -0.59      0.32
    9   27   12      0.90     -0.46
   10   27   12      0.21      0.21
   11   27   12     -0.21     -0.87
   12   27   12      0.71     -0.70
   13   27   12     -1.10      0.72
   14   27   12     -1.51      0.00
   15   27   12     -0.88     -0.79
   16   27   12      0.51      0.43
   17   27   12      0.22      0.06
   18   27   12     -0.48      0.13
   19   27   12      0.15     -0.01
   20   27   12      0.02      0.02
   21   27   12      0.05     -0.36
   22   27   12      0.20      0.09
    7   28   12     -0.20      0.22
    8   28   12     -1.80     -0.98
    9   28   12      1.15     -0.73
   10   28   12     -1.74     -0.59
   11   28   12     -0.59     -0.01
   12   28   12     -0.78      0.16
   13   28   12     -0.24      0.79
   14   28   12     -0.44      0.01
   15   28   12     -0.03      0.07
   16   28   12      0.00      0.55
   17   28   12     -0.31      0.24
   18   28   12     -0.52     -0.38
   19   28   12     -0.49     -0.50
   20   28   12      0.59      0.18
   21   28   12      0.38      0.10
    5   29   12     -1.04     -0.84
    6   29   12      1.17      1.08
    7   29   12      0.91     -0.05
    8   29   12      0.75     -1.84
    9   29   12     -0.96      0.13
   10   29   12     -0.37     -0.10
   11   29   12     -0.86     -1.75
   12   29   12     -0.23     -0.03
   13   29   12      0.15      0.59
   14   29   12      0.81      0.38
   15   29   12      0.01      0.27
   16   29   12      0.11      0.29
   17   29   12      0.73      0.28
   18   29   12      0.55      1.10
   19   29   12      0.60     -0.12
   20   29   12     -0.47     -0.51
   21   29   12     -0.30     -0.01
    0   30   12     -3.06     -0.09
    1   30   12      1.78      0.83
    2   30   12     -1.06     -0.32
    3   30   12      0.60      0.45
    4   30   12      2.92      0.39
    5   30   12     -0.64     -1.19
    6   30   12      0.18     -1.02
    7   30   12      0.46     -0.14
    8   30   12     -0.36     -0.72
    9   30   12      1.59     -1.25
   10   30   12     -0.37     -0.10
   11   30   12      0.27      0.46
   12   30   12     -0.64      0.53
   13   30   12      0.13      0.43
   14   30   12      0.40      0.30
   15   30   12     -0.32     -0.13
   16   30   12      0.17     -0.21
   17   30   12      0.15     -0.45
   18   30   12      0.10     -0.35
   19   30   12     -0.49     -0.21
   20   30   12      0.34     -0.34
    0   31   12      0.13      0.07
    1   31   12     -0.74     -0.25
    2   31   12     -0.42     -0.10
    3   31   12      0.44      0.48
    4   31   12      0.17      0.30
    5   31   12      0.77      0.82
    6   31   12      0.99     -0.47
    7   31   12     -0.38     -0.55
    8   31   12     -0.04      0.18
    9   31   12      0.40      0.29
   10   31   12      0.54     -0.29
   11   31   12      0.09      0.10
   12   31   12      0.30      0.12
   13   31   12     -0.31     -0.12
   14   31   12     -0.05      1.03
   15   31   12     -0.26     -0.31
   16   31   12     -0.74     -1.01
   17   31   12      0.26      0.39
   18   31   12     -0.04     -0.09
   19   31   12     -0.42     -0.20
    0   32   12     -1.25     -0.28
    1   32   12      1.72      0.86
    2   32   12     -0.19      0.10
    3   32   12      0.27      0.54
    4   32   12      0.65      1.04
    5   32   12     -0.79      0.16
    6   32   12      1.03     -0.59
    7   32   12      0.03      0.01
    8   32   12     -0.68     -0.23
    9   32   12      0.54     -0.10
   10   32   12     -0.14      0.46
   11   32   12     -0.17     -0.07
   12   32   12     -0.90     -0.67
   13   32   12     -0.39     -0.49
   14   32   12      0.06      0.39
   15   32   12      0.17      0.17
   16   32   12      0.57      0.04
   17   32   12     -0.57      0.06
   18   32   12     -0.02      0.23
    0   33   12     -0.19     -0.25
    1   33   12     -0.09      0.14
    2   33   12     -0.30      0.98
    3   33   12      1.00      0.23
    4   33   12      0.52     -0.91
    5   33   12     -0.02     -0.29
    6   33   12     -0.23      0.11
    7   33   12      0.47      0.27
    8   33   12      0.38     -0.51
    9   33   12     -0.19     -0.12
   10   33   12     -0.76      0.05
   11   33   12     -0.28      0.23
   12   33   12     -0.12      0.37
   13   33   12     -0.25      0.19
   14   33   12     -0.22      0.40
   15   33   12     -0.70      0.21
   16   33   12     -0.84     -0.15
   17   33   12      0.55      0.02
    0   34   12     -1.05     -0.30
    1   34   12      1.18     -0.94
    2   34   12      0.50     -0.86
    3   34   12      0.07      0.03
    4   34   12      0.70     -0.17
    5   34   12      0.48     -0.21
    6   34   12      0.03     -0.46
    7   34   12     -0.88      0.35
    8   34   12     -0.38     -0.75
    9   34   12     -0.42     -0.20
   10   34   12      0.08      0.34
   11   34   12      0.52     -0.22
   12   34   12     -0.55     -0.19
   13   34   12     -0.37      0.10
   14   34   12     -0.02      0.03
   15   34   12     -0.22     -0.06
   16   34   12     -0.01      0.44
   21    0   13      0.00      0.02
   22    0   13      0.26      1.11
   23    0   13      0.14      0.44
   24    0   13      0.01     -1.96
   21    1   13     -0.84      0.87
   22    1   13      1.16      1.92
   23    1   13     -0.05     -0.84
   24    1   13     -0.12     -0.14
   21    2   13      0.89     -0.09
   22    2   13     -0.51     -0.03
   23    2   13     -0.49      0.50
   24    2   13     -0.61     -0.73
   21    3   13     -1.14     -3.17
   22    3   13      1.27      1.27
   23    3   13      0.72      0.07
   24    3   13     -1.50     -0.70
   20    4   13     -0.43      1.87
   21    4   13      0.02     -0.46
   22    4   13     -0.86     -1.54
   23    4   13      0.74      0.65
   24    4   13      0.18      0.71
   20    5   13      4.87     -0.26
   21    5   13      0.75      0.53
   22    5   13     -0.03     -1.77
   23    5   13      0.50      0.23
   24    5   13      0.13      1.23
   20    6   13     -1.34      0.36
   21    6   13      1.25      0.65
   22    6   13      0.42     -1.57
   23    6   13     -0.69     -0.76
   24    6   13      0.07      0.83
   20    7   13      1.42     -3.33
   21    7   13      0.53      0.72
   22    7   13     -0.24      0.14
   23    7   13     -0.70      0.15
   24    7   13     -1.36      0.64
   20    8   13      2.82      0.98
   21    8   13      0.91      0.22
   22    8   13      0.35     -0.98
   23    8   13      0.96     -0.64
   24    8   13     -0.58      0.30
   20    9   13      1.87     -2.55
   21    9   13      0.30     -0.56
   22    9   13     -1.99      0.05
   23    9   13     -0.23      0.92
   24    9   13      0.92      0.24
   19   10   13      2.82      0.84
   20   10   13      2.03      0.20
   21   10   13     -1.55     -0.47
   22   10   13     -1.93      0.63
   23   10   13     -0.38      1.17
   24   10   13     -0.06     -0.63
   19   11   13      0.95      0.17
   20   11   13      0.98     -1.36
   21   11   13      1.10      0.96
   22   11   13     -1.12      0.37
   23   11   13     -0.29     -0.64
   24   11   13      0.59     -0.72
   19   12   13      1.95      1.51
   20   12   13     -0.72     -0.36
   21   12   13     -0.64      0.37
   22   12   13      0.36     -0.89
   23   12   13      0.35     -1.13
   24   12   13     -0.67     -0.49
   19   13   13      0.02      1.27
   20   13   13      0.34      0.39
   21   13   13      0.99      0.35
   22   13   13     -0.11      0.40
   23   13   13      0.29      0.44
   24   13   13     -0.22      0.33
   18   14   13      0.67      3.45
   19   14   13     -0.37     -0.44
   20   14   13      0.17     -1.76
   21   14   13      1.85      0.95
   22   14   13      0.97     -0.48
   23   14   13     -0.34     -0.43
   24   14   13      0.47      0.14
   18   15   13     -0.67     -0.88
   19   15   13      2.17      0.63
   20   15   13      0.73      0.34
   21   15   13     -0.11     -0.65
   22   15   13     -0.38      0.43
   23   15   13     -0.17      0.53
   24   15   13     -0.18     -1.13
   17   16   13     -1.59     -0.92
   18   16   13      0.48     -2.02
   19   16   13      0.34     -1.54
   20   16   13     -0.33      0.61
   21   16   13      0.47      0.64
   22   16   13      0.19     -1.03
   23   16   13     -0.37      0.52
   24   16   13     -1.05      0.35
   17   17   13      0.24      1.58
   18   17   13      1.26      0.68
   19   17   13      1.72      0.31
   20   17   13     -0.84      0.68
   21   17   13      0.08     -0.37
   22   17   13      0.82     -0.97
   23   17   13     -0.41     -0.52
   24   17   13     -0.51      0.48
   16   18   13      1.23      0.11
   17   18   13      0.86      0.11
   18   18   13      0.32     -0.27
   19   18   13      0.22      0.12
   20   18   13      0.28      0.23
   21   18   13     -0.03     -0.77
   22   18   13     -0.09     -0.38
   23   18   13      0.63      0.32
   24   18   13      0.17     -0.51
   16   19   13     -0.52     -0.73
   17   19   13     -0.14      0.02
   18   19   13     -0.90      0.40
   19   19   13      0.44      0.09
   20   19   13      0.39      0.23
   21   19   13      0.85     -0.03
   22   19   13      0.73      0.21
   23   19   13     -0.21     -0.05
   24   19   13      0.03     -0.67
   15   20   13      0.00      0.84
   16   20   13      2.15      1.01
   17   20   13      0.94     -0.21
   18   20   13      1.20      1.08
   19   20   13      0.01      0.43
   20   20   13     -0.92     -0.24
   21   20   13     -0.02     -1.00
   22   20   13      0.15     -0.63
   23   20   13     -0.39      0.53
   24   20   13     -0.41      0.64
   14   21   13     -1.35     -1.40
   15   21   13     -1.93     -0.44
   16   21   13     -0.56     -0.19
   17   21   13     -0.13      1.94
   18   21   13     -0.71     -0.58
   19   21   13      0.07     -0.99
   20   21   13      0.67      0.61
   21   21   13      0.15      1.02
   22   21   13      0.03     -0.14
   23   21   13      0.15     -0.47
   24   21   13     -0.54     -0.59
   14   22   13      0.86      0.14
   15   22   13      0.96      0.33
   16   22   13      0.21      1.28
   17   22   13     -0.73     -0.29
   18   22   13      0.57      0.60
   19   22   13     -0.03     -0.81
   20   22   13     -0.33     -0.42
   21   22   13      0.26      0.33
   22   22   13     -0.13     -0.36
   23   22   13      0.24      0.07
   24   22   13      0.25      0.50
   13   23   13      1.34     -0.45
   14   23   13      0.31     -2.18
   15   23   13      0.06      1.79
   16   23   13      1.07     -0.56
   17   23   13      0.10      0.91
   18   23   13     -0.51      0.87
   19   23   13     -0.83      0.03
   20   23   13     -0.10     -0.67
   21   23   13     -0.31     -0.17
   22   23   13     -0.16     -0.04
   23   23   13      0.21      0.55
   12   24   13     -0.72      2.26
   13   24   13     -2.31      0.69
   14   24   13      0.26     -1.40
   15   24   13      0.18     -1.08
   16   24   13      0.79      0.37
   17   24   13      0.59     -0.94
   18   24   13      0.18      0.11
   19   24   13      0.61     -0.17
   20   24   13      0.33      0.28
   21   24   13     -0.16      0.61
   22   24   13     -0.33     -0.28
   23   24   13      0.22      0.04
   11   25   13     -0.12      0.34
   12   25   13      0.48     -0.32
   13   25   13      0.97      0.25
   14   25   13      0.86     -2.02
   15   25   13     -1.06      1.44
   16   25   13     -0.77     -0.16
   17   25   13      0.03      0.88
   18   25   13      0.15      0.36
   19   25   13     -0.48     -0.40
   20   25   13      1.25      0.48
   21   25   13      0.65      0.77
   22   25   13     -0.54     -0.39
    9   26   13     -2.78      1.00
   10   26   13      0.81      0.27
   11   26   13     -0.03     -1.07
   12   26   13      1.05      0.40
   13   26   13      0.51      1.16
   14   26   13      0.84      0.45
   15   26   13      0.04     -1.26
   16   26   13      0.12     -0.52
   17   26   13     -0.13      0.21
   18   26   13     -0.64      0.60
   19   26   13      0.36     -0.31
   20   26   13     -0.16     -0.65
   21   26   13     -0.41     -0.20
   22   26   13      0.33     -0.29
    8   27   13     -0.31      1.17
    9   27   13     -0.01      0.77
   10   27   13      1.00     -0.72
   11   27   13      0.31      1.15
   12   27   13     -0.49     -0.48
   13   27   13     -0.78      0.52
   14   27   13      0.28     -0.20
   15   27   13     -0.29      0.43
   16   27   13     -0.14     -0.51
   17   27   13     -0.06      0.05
   18   27   13      0.26     -0.03
   19   27   13      0.18     -0.46
   20   27   13      0.36      0.10
   21   27   13     -0.15     -0.11
    5   28   13      1.32     -1.96
    6   28   13      0.38     -0.94
    7   28   13      0.86     -0.15
    8   28   13     -0.26      0.56
    9   28   13     -0.64      0.37
   10   28   13      0.85     -0.15
   11   28   13      0.35     -0.25
   12   28   13      0.83     -0.29
   13   28   13      0.26      0.05
   14   28   13     -0.20      0.54
   15   28   13      0.19      0.10
   16   28   13     -0.09     -0.12
   17   28   13      0.12      0.51
   18   28   13      0.49      0.29
   19   28   13      0.12     -0.14
   20   28   13     -0.17     -0.53
   21   28   13      0.30     -0.24
    0   29   13     -2.55     -0.45
    1   29   13     -0.36     -0.76
    2   29   13      0.38      2.78
    3   29   13     -0.96     -0.80
    4   29   13     -0.13      2.50
    5   29   13      0.19      0.54
    6   29   13      1.23      0.41
    7   29   13     -0.45      1.34
    8   29   13      0.46     -1.61
    9   29   13      0.31     -0.20
   10   29   13      0.08      0.51
   11   29   13      0.05     -0.51
   12   29   13     -0.22     -0.39
   13   29   13     -0.94      0.51
   14   29   13     -0.21     -0.29
   15   29   13     -0.01     -0.14
   16   29   13      0.05      0.31
   17   29   13     -0.31     -0.54
   18   29   13     -0.10      0.63
   19   29   13     -0.05      0.50
   20   29   13     -0.43      0.10
    0   30   13     -1.62     -0.04
    1   30   13      0.28     -0.81
    2   30   13      1.98      0.55
    3   30   13      1.43      0.18
    4   30   13      0.20     -0.46
    5   30   13      0.34     -0.72
    6   30   13     -0.87     -0.78
    7   30   13      0.63     -0.40
    8   30   13      1.09      0.17
    9   30   13      0.78      0.38
   10   30   13     -0.04      0.19
   11   30   13     -0.05     -0.57
   12   30   13      0.03     -0.43
   13   30   13     -0.34      0.42
   14   30   13      0.45     -0.30
   15   30   13      0.18     -0.43
   16   30   13     -0.89     -0.88
   17   30   13     -0.02     -0.33
   18   30   13      0.50      0.08
   19   30   13     -0.41      0.59
    0   31   13     -1.10      0.05
    1   31   13      0.23      0.03
    2   31   13      0.82      1.76
    3   31   13      0.15     -1.34
    4   31   13      0.49     -0.05
    5   31   13     -0.20     -1.35
    6   31   13     -0.17      0.27
    7   31   13     -0.66      0.97
    8   31   13     -0.18     -1.02
    9   31   13     -1.21      0.49
   10   31   13     -0.07      1.00
   11   31   13      0.67     -0.26
   12   31   13     -0.08      0.50
   13   31   13     -0.28     -0.22
   14   31   13      0.59     -0.12
   15   31   13      0.41     -0.23
   16   31   13      0.11      0.31
   17   31   13      0.09     -0.09
   18   31   13      0.06      0.65
    0   32   13      0.05     -0.32
    1   32   13     -0.50      0.54
    2   32   13     -0.19      0.16
    3   32   13      0.22     -0.72
    4   32   13     -0.24      0.70
    5   32   13     -0.55      1.77
    6   32   13      0.18     -0.13
    7   32   13     -0.06     -1.35
    8   32   13     -0.89      0.12
    9   32   13     -0.11      0.17
   10   32   13      0.14     -0.08
   11   32   13     -0.06      0.47
   12   32   13     -0.08      0.03
   13   32   13     -0.07     -0.17
   14   32   13      0.49     -0.31
   15   32   13     -0.03      0.44
   16   32   13      0.30      0.01
   17   32   13      0.15      0.38
   18   32   13     -0.21     -0.30
    0   33   13     -0.64     -0.09
    1   33   13     -0.38     -0.08
    2   33   13      0.32      0.92
    3   33   13      0.33     -1.00
    4   33   13     -0.01     -0.07
    5   33   13      0.00     -0.47
    6   33   13      0.12     -0.24
    7   33   13     -0.57     -0.39
    8   33   13      0.18     -0.99
    9   33   13      0.18     -0.41
   10   33   13     -0.01     -0.15
   11   33   13     -0.51     -0.58
   12   33   13      0.16     -0.15
   13   33   13      0.25     -0.61
   14   33   13     -0.69      0.52
   15   33   13     -0.21      0.08
   16   33   13      0.54     -0.16
   17   33   13      0.29     -0.42
    0   34   13     -0.32      0.07
    1   34   13     -0.36      0.11
    2   34   13      0.83     -0.51
    3   34   13     -0.18     -0.09
    4   34   13     -0.09     -0.16
    5   34   13      0.44     -0.58
    6   34   13      0.61      0.15
    7   34   13     -0.33      0.01
    8   34   13      0.64     -0.15
    9   34   13      0.74      0.07
   10   34   13     -0.71      0.49
   11   34   13     -0.47     -0.10
   12   34   13      0.24     -0.43
   13   34   13     -0.16      0.52
   14   34   13     -0.52     -0.22
   15   34   13     -1.07     -0.45
   16   34   13     -0.16     -0.26
   20    0   14     -2.20      0.09
   21    0   14     -1.56      0.08
   22    0   14      1.58     -0.24
   23    0   14      0.73     -0.16
   24    0   14      0.66     -0.20
   20    1   14     -4.13     -0.62
   21    1   14      0.15      0.84
   22    1   14     -0.53     -0.46
   23    1   14      0.15     -0.61
   24    1   14      0.35      0.15
   20    2   14      0.46     -1.96
   21    2   14      1.35     -0.86
   22    2   14      0.40      0.10
   23    2   14     -0.55      0.20
   24    2   14      0.92     -0.15
   20    3   14     -0.42     -0.82
   21    3   14     -0.77      0.61
   22    3   14      0.09      0.90
   23    3   14      2.00      0.02
   24    3   14      0.07      0.66
   20    4   14     -1.54      3.12
   21    4   14      0.06     -0.58
   22    4   14      2.12     -0.24
   23    4   14      0.34      0.82
   24    4   14     -0.90      0.30
   20    5   14     -3.11      0.23
   21    5   14      0.67     -1.05
   22    5   14      0.61     -0.28
   23    5   14     -0.88      0.50
   24    5   14     -0.61     -0.07
   20    6   14     -2.62      0.47
   21    6   14     -0.14      1.46
   22    6   14      0.64      0.24
   23    6   14     -1.82      1.15
   24    6   14     -0.03      0.51
   19    7   14      2.70     -3.32
   20    7   14     -1.18     -0.38
   21    7   14      0.02      0.74
   22    7   14     -0.82     -0.36
   23    7   14      0.61      0.01
   24    7   14      0.56      0.43
   19    8   14     -1.43      2.70
   20    8   14      1.38     -0.13
   21    8   14      0.20      0.19
   22    8   14      0.06      0.62
   23    8   14      0.29      0.83
   24    8   14      0.20     -0.03
   19    9   14      1.51      2.20
   20    9   14     -1.94      1.61
   21    9   14      0.19     -0.48
   22    9   14      0.47      0.94
   23    9   14      0.79      0.86
   24    9   14     -0.11     -0.53
   19   10   14     -0.54      0.68
   20   10   14      0.60     -0.58
   21   10   14     -0.41      0.19
   22   10   14     -0.19      0.41
   23   10   14      0.27      0.13
   24   10   14     -0.46     -0.69
   18   11   14     -0.36      1.75
   19   11   14      1.69      1.23
   20   11   14      0.53      0.90
   21   11   14      1.17     -1.31
   22   11   14     -0.28     -1.22
   23   11   14     -0.37     -0.60
   24   11   14      0.57      0.51
   18   12   14      1.77      0.95
   19   12   14     -1.15      0.04
   20   12   14      1.47     -0.27
   21   12   14      0.61      0.02
   22   12   14     -0.31      0.22
   23   12   14      0.27     -0.33
   24   12   14      0.04     -0.72
   18   13   14     -1.05      1.53
   19   13   14      0.52     -1.51
   20   13   14      0.35     -1.11
   21   13   14     -0.21      0.86
   22   13   14      0.09      0.77
   23   13   14     -0.01      0.04
   24   13   14     -0.36      0.12
   17   14   14     -1.21      1.62
   18   14   14      0.14     -1.54
   19   14   14      0.82     -1.16
   20   14   14     -0.61      1.08
   21   14   14     -0.42      0.12
   22   14   14      0.36     -0.48
   23   14   14     -0.19     -0.51
   24   14   14     -0.74     -0.79
   17   15   14     -1.03      0.11
   18   15   14     -0.87      0.26
   19   15   14      0.26      0.47
   20   15   14      0.55      1.06
   21   15   14     -0.81     -0.07
   22   15   14      0.17     -0.37
   23   15   14      0.74      0.40
   24   15   14      0.14     -0.35
   16   16   14      0.68      0.73
   17   16   14      0.26     -0.70
   18   16   14     -1.95     -1.37
   19   16   14      0.00     -0.16
   20   16   14     -0.09      0.47
   21   16   14     -0.05     -0.26
   22   16   14     -0.09     -0.24
   23   16   14      0.43      0.25
   24   16   14      0.27      0.39
   16   17   14      0.64     -0.64
   17   17   14     -0.09      0.79
   18   17   14      0.61      0.93
   19   17   14      0.42     -0.48
   20   17   14      0.69     -0.98
   21   17   14      0.08     -0.20
   22   17   14      0.34      0.18
   23   17   14     -0.42     -0.50
   24   17   14     -0.21     -0.10
   15   18   14      0.30      1.55
   16   18   14     -0.48      1.77
   17   18   14      0.40     -0.63
   18   18   14     -0.08      0.31
   19   18   14      1.08      0.26
   20   18   14      0.14      0.34
   21   18   14     -0.52      1.17
   22   18   14     -0.81     -0.62
   23   18   14     -0.27     -1.02
   24   18   14     -0.50      0.83
   15   19   14     -0.32      0.39
   16   19   14     -0.06     -0.22
   17   19   14     -1.24     -1.02
   18   19   14      0.13      0.74
   19   19   14     -0.76      1.39
   20   19   14     -0.65      0.20
   21   19   14      0.09     -0.67
   22   19   14      0.63      0.00
   23   19   14     -0.23     -0.57
   24   19   14     -0.27      0.07
   14   20   14      0.49      1.21
   15   20   14     -0.81      0.49
   16   20   14     -0.21     -0.14
   17   20   14      0.45      0.33
   18   20   14     -0.88      0.27
   19   20   14     -0.50     -0.89
   20   20   14      0.65     -0.23
   21   20   14     -0.27      0.75
   22   20   14     -1.28     -0.59
   23   20   14      0.30     -0.67
   24   20   14      0.81      0.43
   13   21   14     -0.08     -0.52
   14   21   14     -0.01     -0.77
   15   21   14     -0.88     -1.05
   16   21   14      0.29     -1.50
   17   21   14      0.60     -0.53
   18   21   14     -0.33      0.44
   19   21   14     -0.48      0.29
   20   21   14      0.58      0.88
   21   21   14      0.40     -0.54
   22   21   14     -0.24     -0.31
   23   21   14      0.04      0.42
   24   21   14      0.31      0.52
   12   22   14     -1.29     -1.68
   13   22   14      0.77     -1.72
   14   22   14      0.23      0.51
   15   22   14     -0.20     -1.52
   16   22   14     -0.15     -0.93
   17   22   14     -0.40      0.61
   18   22   14      0.60      0.29
   19   22   14      0.05     -0.46
   20   22   14     -0.02      0.07
   21   22   14      0.31      0.36
   22   22   14      0.26     -0.17
   23   22   14     -0.59      0.07
   11   23   14     -1.34     -0.14
   12   23   14      0.40     -0.85
   13   23   14     -2.21     -0.32
   14   23   14     -0.56     -0.45
   15   23   14      0.25     -1.16
   16   23   14     -0.21      0.18
   17   23   14      0.17      0.24
   18   23   14      0.32     -0.65
   19   23   14      0.18     -0.40
   20   23   14      0.05      0.06
   21   23   14      0.59     -0.64
   22   23   14     -0.02      0.14
   23   23   14     -0.17      0.00
   10   24   14     -1.11     -1.87
   11   24   14      0.62     -0.08
   12   24   14      1.14      1.06
   13   24   14     -0.37     -1.22
   14   24   14     -1.53      0.13
   15   24   14      0.02      0.76
   16   24   14      0.37      0.09
   17   24   14     -1.12     -0.73
   18   24   14     -0.10      0.11
   19   24   14     -0.41      0.55
   20   24   14     -0.01     -0.06
   21   24   14     -0.01     -0.17
   22   24   14      0.05     -0.33
    9   25   14      0.77      1.20
   10   25   14     -0.66      1.68
   11   25   14     -2.25     -0.05
   12   25   14      1.04      0.80
   13   25   14      0.90      0.86
   14   25   14      0.64     -0.73
   15   25   14      1.24     -0.02
   16   25   14     -0.29      0.43
   17   25   14     -0.63     -0.41
   18   25   14      0.13     -0.47
   19   25   14      0.12      0.33
   20   25   14     -0.75      0.06
   21   25   14      0.21      0.02
   22   25   14      0.21      0.09
    7   26   14     -0.77     -2.53
    8   26   14      0.57     -2.76
    9   26   14      0.04     -0.32
   10   26   14     -0.72      1.93
   11   26   14     -0.48      0.57
   12   26   14      1.78      0.25
   13   26   14      0.53     -0.31
   14   26   14      0.10     -0.06
   15   26   14      0.26     -0.34
   16   26   14      0.61     -0.15
   17   26   14     -0.46      0.47
   18   26   14     -0.38      0.31
   19   26   14      0.34     -0.23
   20   26   14      0.46      0.28
   21   26   14     -0.39      0.83
    5   27   14     -1.11     -0.66
    6   27   14      0.04     -0.35
    7   27   14      1.81     -0.82
    8   27   14      1.09      1.79
    9   27   14      0.98      1.07
   10   27   14      0.38      0.13
   11   27   14     -0.43     -0.29
   12   27   14      0.65     -0.19
   13   27   14      0.80     -0.37
   14   27   14      0.07     -0.03
   15   27   14     -0.34      0.83
   16   27   14     -0.99     -0.36
   17   27   14      0.08     -0.40
   18   27   14      0.19     -0.31
   19   27   14      0.03      0.30
   20   27   14      0.60      0.45
   21   27   14      0.31      0.36
    0   28   14      3.90      0.03
    1   28   14     -1.39     -0.29
    2   28   14      3.55      0.06
    3   28   14      2.31      0.56
    4   28   14     -3.84     -0.50
    5   28   14      0.75     -0.25
    6   28   14      0.57     -0.18
    7   28   14     -0.96     -0.68
    8   28   14      0.47      0.35
    9   28   14     -0.24      0.05
   10   28   14      0.39     -0.61
   11   28   14     -1.03     -0.12
   12   28   14      0.45      0.99
   13   28   14      0.02      0.66
   14   28   14      0.16     -0.59
   15   28   14     -0.10     -0.19
   16   28   14      0.03      0.02
   17   28   14      0.20     -0.44
   18   28   14     -0.08     -0.32
   19   28   14      0.05      0.00
   20   28   14     -0.44     -0.53
    0   29   14     -0.54     -0.21
    1   29   14      0.44     -1.30
    2   29   14      0.87     -0.56
    3   29   14      0.71     -0.28
    4   29   14      0.76      0.34
    5   29   14      0.49      0.64
    6   29   14     -0.29      0.51
    7   29   14     -0.50     -0.50
    8   29   14     -0.40      0.53
    9   29   14      0.06     -0.10
   10   29   14     -0.73      0.21
   11   29   14     -0.47      0.33
   12   29   14      0.06      0.36
   13   29   14      0.23      0.41
   14   29   14      0.07     -0.22
   15   29   14      0.38     -0.11
   16   29   14      0.19     -0.28
   17   29   14      0.14     -0.24
   18   29   14      0.13     -0.38
   19   29   14     -0.08      0.39
    0   30   14      0.39     -0.03
    1   30   14     -2.67     -0.41
    2   30   14      0.91     -0.41
    3   30   14     -0.58      0.85
    4   30   14     -1.65      0.43
    5   30   14      1.87      0.24
    6   30   14     -0.58      0.59
    7   30   14     -0.57      0.87
    8   30   14      0.47      0.19
    9   30   14     -0.64      0.28
   10   30   14      1.05      0.11
   11   30   14     -0.71     -0.49
   12   30   14      0.17     -0.38
   13   30   14      1.05      0.53
   14   30   14      0.15     -0.43
   15   30   14     -0.32     -0.25
   16   30   14      0.13     -0.17
   17   30   14      0.17      0.00
   18   30   14     -0.48      0.40
    0   31   14      0.43      0.11
    1   31   14     -0.23     -0.30
    2   31   14     -0.36     -0.84
    3   31   14     -0.25     -1.11
    4   31   14      0.25      0.97
    5   31   14     -0.51     -0.29
    6   31   14     -0.15      0.34
    7   31   14     -0.04      0.51
    8   31   14     -0.52      0.13
    9   31   14     -0.15     -0.22
   10   31   14      0.18      1.25
   11   31   14      0.14      0.34
   12   31   14     -0.24     -0.99
   13   31   14      0.15      0.00
   14   31   14      0.20      0.18
   15   31   14      0.28     -0.38
   16   31   14      0.42      0.25
   17   31   14     -0.05      0.42
   18   31   14      0.04     -0.05
    0   32   14      2.79      0.29
    1   32   14     -0.46     -0.21
    2   32   14     -0.05      0.28
    3   32   14     -0.41      0.24
    4   32   14     -0.81     -0.12
    5   32   14      0.01      0.32
    6   32   14     -0.54     -0.12
    7   32   14      0.37     -0.49
    8   32   14     -0.30     -0.17
    9   32   14     -0.76     -0.36
   10   32   14      0.96     -0.46
   11   32   14     -0.06      0.34
   12   32   14     -0.24      0.07
   13   32   14      0.05      0.38
   14   32   14      0.36     -0.02
   15   32   14      0.29     -0.42
   16   32   14     -0.70     -0.94
   17   32   14      0.31      0.16
    0   33   14      1.82      0.11
    1   33   14      0.61     -0.72
    2   33   14      0.26     -0.01
    3   33   14     -0.89     -0.88
    4   33   14     -0.85     -0.63
    5   33   14     -0.60     -0.52
    6   33   14      0.23      0.45
    7   33   14     -0.14     -0.19
    8   33   14      0.08      0.15
    9   33   14      0.05      0.17
   10   33   14      0.01      0.06
   11   33   14      0.15      0.33
   12   33   14      0.12      0.21
   13   33   14     -0.03     -0.06
   14   33   14     -0.22      0.09
   15   33   14      0.27      0.04
   16   33   14      0.46      0.47
    0   34   14      0.33     -0.05
    1   34   14     -0.27     -0.63
    2   34   14      0.12      0.02
    3   34   14     -0.12     -0.04
    4   34   14      0.16      0.29
    5   34   14     -0.08      0.32
    6   34   14     -0.12      0.27
    7   34   14      0.30     -0.40
    8   34   14      0.34      0.25
    9   34   14      0.29      0.50
   10   34   14      0.09     -0.07
   11   34   14      0.03      0.00
   12   34   14      0.65      0.11
   13   34   14      0.16      0.69
   14   34   14      0.03     -0.03
   15   34   14      0.39     -0.29
   19    0   15     -0.43     -0.13
   20    0   15     -0.22      1.69
   21    0   15      0.00     -0.21
   22    0   15     -0.26     -0.18
   23    0   15     -0.05     -0.34
   24    0   15     -0.01     -0.36
   19    1   15      2.20     -1.14
   20    1   15     -0.53      5.03
   21    1   15      0.31     -1.12
   22    1   15      0.19     -1.13
   23    1   15     -0.25      0.23
   24    1   15     -0.59     -0.24
   19    2   15      1.91     -0.04
   20    2   15     -1.19     -2.10
   21    2   15      0.18     -1.13
   22    2   15      1.06      0.33
   23    2   15      0.04      0.43
   24    2   15      0.16      0.21
   19    3   15      0.41      1.50
   20    3   15      1.23      4.43
   21    3   15      0.82      0.41
   22    3   15      0.28      0.52
   23    3   15     -0.47      0.48
   24    3   15      0.61     -0.62
   19    4   15     -0.24     -1.89
   20    4   15     -0.27     -1.27
   21    4   15     -0.61      0.29
   22    4   15     -0.07     -0.35
   23    4   15     -0.03     -0.80
   24    4   15      0.61      0.52
   19    5   15      1.87     -0.80
   20    5   15     -1.67      3.10
   21    5   15     -1.00     -0.30
   22    5   15     -0.96     -0.16
   23    5   15     -1.41     -0.30
   24    5   15     -0.49     -1.19
   19    6   15     -0.32      0.64
   20    6   15     -0.26      0.02
   21    6   15     -0.17      0.14
   22    6   15     -0.40      0.63
   23    6   15      0.12      0.59
   24    6   15     -0.05     -0.26
   19    7   15     -2.10     -0.06
   20    7   15      2.69      0.05
   21    7   15      1.36     -0.22
   22    7   15     -0.06      0.74
   23    7   15      1.01     -0.27
   24    7   15      1.11     -0.15
   18    8   15     -0.63      0.93
   19    8   15     -0.19      0.38
   20    8   15     -0.83      0.33
   21    8   15     -0.42      0.75
   22    8   15      0.73     -0.34
   23    8   15      0.21      0.04
   24    8   15     -0.51      0.71
   18    9   15      0.56      0.49
   19    9   15      0.32     -0.97
   20    9   15     -1.27      0.73
   21    9   15     -1.75      1.06
   22    9   15      0.17      0.31
   23    9   15      0.45     -1.25
   24    9   15     -0.48     -0.02
   18   10   15     -2.23      0.40
   19   10   15     -1.27     -0.27
   20   10   15     -0.53     -0.71
   21   10   15     -0.21      0.81
   22   10   15      0.41      0.05
   23   10   15      1.45      0.10
   24   10   15      0.33      0.68
   18   11   15      0.23     -0.17
   19   11   15      1.79     -0.60
   20   11   15     -2.43     -0.57
   21   11   15     -0.83     -0.84
   22   11   15      1.05      0.11
   23   11   15     -0.78      0.36
   24   11   15     -0.21      0.34
   17   12   15     -0.14     -1.78
   18   12   15     -1.14     -1.65
   19   12   15     -0.64      1.14
   20   12   15      0.21      0.03
   21   12   15      0.20     -0.59
   22   12   15     -0.17      0.70
   23   12   15     -0.11      0.07
   24   12   15     -0.18     -0.14
   17   13   15      1.33      0.62
   18   13   15      0.37     -0.20
   19   13   15      0.94      0.56
   20   13   15      0.04      0.92
   21   13   15      0.71     -0.11
   22   13   15      0.80     -0.51
   23   13   15     -0.69      0.82
   24   13   15      0.34      0.13
   16   14   15     -1.15      2.49
   17   14   15     -0.52      0.44
   18   14   15     -0.15     -1.14
   19   14   15     -0.58      0.05
   20   14   15     -0.40      0.40
   21   14   15     -0.74     -0.71
   22   14   15     -0.11      0.14
   23   14   15      0.29     -0.13
   24   14   15     -0.12      0.20
   16   15   15      0.20     -1.78
   17   15   15     -0.08     -0.72
   18   15   15     -0.70      0.70
   19   15   15     -0.55     -0.91
   20   15   15     -0.67     -1.08
   21   15   15     -1.06      0.93
   22   15   15     -0.50     -0.51
   23   15   15     -0.18     -0.42
   24   15   15      0.17      0.22
   15   16   15     -0.27      0.53
   16   16   15      1.60     -0.71
   17   16   15      0.11     -0.26
   18   16   15      0.63      1.03
   19   16   15      0.66      0.42
   20   16   15      0.15      0.09
   21   16   15     -0.33     -0.39
   22   16   15     -0.53     -0.38
   23   16   15     -0.40     -0.85
   24   16   15      0.39      0.74
   15   17   15      0.38     -0.61
   16   17   15      2.89     -1.87
   17   17   15      0.77      0.86
   18   17   15      0.31      0.78
   19   17   15     -1.34     -0.24
   20   17   15     -0.54      0.32
   21   17   15     -0.07      0.19
   22   17   15     -0.06     -0.62
   23   17   15      0.26      0.81
   24   17   15      0.08      0.45
   14   18   15     -0.02      0.99
   15   18   15     -1.12     -0.45
   16   18   15      0.22     -0.29
   17   18   15     -0.77      0.07
   18   18   15     -0.36     -0.36
   19   18   15     -0.28     -0.26
   20   18   15     -0.62      0.43
   21   18   15      0.37     -0.21
   22   18   15      0.31      0.42
   23   18   15     -0.62      0.24
   24   18   15      0.43     -0.38
   14   19   15     -0.73     -0.68
   15   19   15      0.23     -1.45
   16   19   15      0.57     -0.45
   17   19   15     -0.61     -0.49
   18   19   15      0.11     -0.23
   19   19   15     -1.08     -0.02
   20   19   15      0.54     -0.19
   21   19   15      0.20     -0.13
   22   19   15     -0.47     -0.02
   23   19   15      0.55     -0.23
   24   19   15      0.43     -0.44
   13   20   15     -1.55     -0.46
   14   20   15     -0.29     -1.01
   15   20   15      0.06     -1.36
   16   20   15     -0.09      0.20
   17   20   15      0.59      0.16
   18   20   15      0.26     -0.93
   19   20   15      0.20     -0.23
   20   20   15      0.36      0.47
   21   20   15     -0.33      0.38
   22   20   15     -0.58      0.86
   23   20   15     -0.26      0.20
   24   20   15      0.26     -0.36
   12   21   15     -0.69      0.59
   13   21   15      0.30     -0.56
   14   21   15      0.28     -0.59
   15   21   15      0.15     -0.79
   16   21   15     -0.21     -0.28
   17   21   15     -0.81     -1.60
   18   21   15      0.25     -0.62
   19   21   15     -0.15     -0.12
   20   21   15     -0.01      0.09
   21   21   15     -0.38      0.29
   22   21   15     -0.19      0.21
   23   21   15      0.10     -0.30
   11   22   15      2.65     -0.31
   12   22   15     -1.50      0.25
   13   22   15     -0.44      0.30
   14   22   15     -0.39      0.02
   15   22   15      1.21     -0.19
   16   22   15      0.19     -0.04
   17   22   15     -1.25      0.38
   18   22   15     -1.12     -0.17
   19   22   15      0.24      0.04
   20   22   15      0.00     -0.02
   21   22   15     -0.51     -0.41
   22   22   15      0.71      0.05
   23   22   15      0.28     -0.35
   10   23   15      0.78      1.17
   11   23   15      0.43      0.80
   12   23   15     -0.85      2.25
   13   23   15     -0.88     -0.72
   14   23   15      0.67      0.75
   15   23   15      0.54     -0.22
   16   23   15      0.50     -0.12
   17   23   15      0.73     -0.76
   18   23   15      0.23     -0.65
   19   23   15     -0.13     -0.55
   20   23   15     -0.42      0.54
   21   23   15     -0.36      0.33
   22   23   15     -0.14     -0.16
    9   24   15     -0.55     -1.61
   10   24   15     -0.22      0.68
   11   24   15      1.71      0.70
   12   24   15     -1.17      0.11
   13   24   15      0.10      0.04
   14   24   15     -0.54      0.85
   15   24   15     -0.06      0.74
   16   24   15     -0.80      0.33
   17   24   15     -0.77      0.40
   18   24   15      0.07     -0.31
   19   24   15      0.01     -0.44
   20   24   15      0.00      0.11
   21   24   15      0.07      0.49
   22   24   15      0.43      0.39
    7   25   15      0.13      0.67
    8   25   15     -0.35      1.15
    9   25   15     -0.20      0.27
   10   25   15      0.14      1.01
   11   25   15      0.18      0.46
   12   25   15     -0.49      0.26
   13   25   15     -0.94     -0.18
   14   25   15      0.21      1.15
   15   25   15      0.78     -0.77
   16   25   15      0.17     -0.09
   17   25   15      0.30      0.10
   18   25   15      0.13      0.54
   19   25   15      0.32      0.75
   20   25   15     -0.48     -0.22
   21   25   15     -0.19     -0.66
    5   26   15      0.01      1.98
    6   26   15     -0.65      0.68
    7   26   15      0.60     -0.17
    8   26   15      0.17      0.71
    9   26   15      0.20     -0.09
   10   26   15     -0.77     -0.21
   11   26   15     -0.04      0.39
   12   26   15      0.66     -0.02
   13   26   15      1.11     -1.10
   14   26   15     -0.72     -0.31
   15   26   15     -0.49     -0.29
   16   26   15     -0.13     -0.31
   17   26   15     -0.08     -0.45
   18   26   15      0.00     -0.36
   19   26   15     -0.54      0.39
   20   26   15      0.26      0.49
   21   26   15      0.92     -0.16
    0   27   15      0.66      0.12
    1   27   15     -1.17      1.67
    2   27   15     -2.43     -2.39
    3   27   15     -0.17      0.78
    4   27   15      0.63     -1.48
    5   27   15      0.14      0.41
    6   27   15     -1.69      0.59
    7   27   15     -0.25     -0.40
    8   27   15     -0.58     -0.08
    9   27   15     -0.25     -0.36
   10   27   15     -0.44      0.92
   11   27   15     -0.28     -0.12
   12   27   15      0.23     -0.61
   13   27   15      0.27     -0.33
   14   27   15      0.51     -0.25
   15   27   15      0.37     -0.46
   16   27   15     -0.83      0.20
   17   27   15     -0.65     -0.37
   18   27   15     -0.23     -0.77
   19   27   15      0.22      0.05
   20   27   15     -0.31     -0.48
    0   28   15     -0.23      0.14
    1   28   15     -1.24      0.78
    2   28   15     -0.78     -0.34
    3   28   15      0.84     -0.55
    4   28   15      0.59     -0.26
    5   28   15     -0.89     -0.41
    6   28   15     -0.29      0.42
    7   28   15     -0.51     -0.08
    8   28   15     -0.06     -0.67
    9   28   15     -0.08     -0.28
   10   28   15     -0.28      0.25
   11   28   15     -0.19      0.18
   12   28   15      0.13     -0.20
   13   28   15     -0.22     -0.33
   14   28   15     -0.27      0.77
   15   28   15      0.28      0.64
   16   28   15      0.36      0.42
   17   28   15      0.14     -0.84
   18   28   15     -0.20     -0.30
   19   28   15     -0.04      0.34
    0   29   15     -0.17      0.25
    1   29   15      0.41      0.44
    2   29   15      0.65     -0.85
    3   29   15      0.71      1.65
    4   29   15     -0.27     -1.66
    5   29   15      0.94     -0.28
    6   29   15      0.17      0.40
    7   29   15     -0.15     -0.84
    8   29   15     -0.85     -0.54
    9   29   15      0.52     -0.40
   10   29   15      0.57      0.99
   11   29   15      0.62      0.32
   12   29   15      0.75     -0.36
   13   29   15     -0.43      0.22
   14   29   15     -0.50     -0.22
   15   29   15      0.43      0.05
   16   29   15      0.25     -0.21
   17   29   15     -0.08      0.32
   18   29   15     -0.11      0.13
    0   30   15      2.01     -0.08
    1   30   15      0.15      0.81
    2   30   15      0.62     -0.14
    3   30   15      0.55     -0.36
    4   30   15      0.25     -0.06
    5   30   15      0.48     -0.52
    6   30   15      0.18      0.29
    7   30   15     -0.30      0.54
    8   30   15     -0.27      0.10
    9   30   15     -0.87      0.36
   10   30   15     -0.13      0.03
   11   30   15     -0.26      0.07
   12   30   15      0.05      0.44
   13   30   15      0.41      0.04
   14   30   15      0.11      0.66
   15   30   15     -0.06      0.58
   16   30   15     -0.02      0.48
   17   30   15      0.18     -0.73
   18   30   15     -0.08      0.21
    0   31   15     -0.31      0.00
    1   31   15      0.31      0.29
    2   31   15      0.26     -0.66
    3   31   15      0.16      0.85
    4   31   15     -0.15     -0.17
    5   31   15     -0.12      0.30
    6   31   15     -0.48     -0.79
    7   31   15      0.38     -0.94
    8   31   15     -0.24      0.86
    9   31   15     -0.37     -0.37
   10   31   15     -0.25     -0.06
   11   31   15     -0.17      0.49
   12   31   15     -0.02     -0.40
   13   31   15      0.37     -0.18
   14   31   15      0.23     -0.07
   15   31   15     -0.73      0.44
   16   31   15      0.01     -0.09
   17   31   15      0.74      0.34
    0   32   15     -0.28     -0.15
    1   32   15     -0.55      0.29
    2   32   15     -0.09      0.21
    3   32   15     -0.70     -0.17
    4   32   15     -0.75     -0.06
    5   32   15      0.45      0.33
    6   32   15     -0.09      0.15
    7   32   15      0.72     -0.36
    8   32   15      0.61     -0.65
    9   32   15     -0.35      0.40
   10   32   15      0.21      0.42
   11   32   15     -0.41     -0.19
   12   32   15     -0.29     -0.25
   13   32   15      0.35     -0.36
   14   32   15     -0.06      0.14
   15   32   15     -0.07     -0.15
   16   32   15     -0.27      0.27
    0   33   15     -0.42     -0.12
    1   33   15      0.34      0.31
    2   33   15      0.81     -0.50
    3   33   15     -0.18     -0.05
    4   33   15     -0.52     -0.42
    5   33   15     -0.05      0.41
    6   33   15     -0.23      0.81
    7   33   15     -0.25     -0.06
    8   33   15      0.33      0.67
    9   33   15      0.73      0.19
   10   33   15     -0.21      0.26
   11   33   15     -0.25      0.14
   12   33   15      0.38      0.13
   13   33   15      0.21      0.60
   14   33   15     -0.21      0.27
   15   33   15     -0.49      0.05
    0   34   15     -0.38     -0.25
    1   34   15     -0.19     -0.59
    2   34   15     -0.16     -0.24
    3   34   15     -0.09      0.12
    4   34   15      0.17      0.18
    5   34   15      0.77      0.01
    6   34   15     -0.48     -0.37
    7   34   15     -0.07      0.45
    8   34   15     -0.10     -0.02
    9   34   15     -0.07     -0.06
   10   34   15      0.68     -0.12
   11   34   15      0.06     -0.66
   12   34   15      0.16     -0.18
   13   34   15      0.20     -0.03
   14   34   15     -0.07     -0.28
   18    0   16     -0.38     -0.21
   19    0   16      1.16      0.07
   20    0   16      2.62     -0.22
   21    0   16     -0.33     -0.33
   22    0   16     -1.90      0.06
   23    0   16     -0.66      0.10
   24    0   16     -0.66      0.00
   18    1   16     -0.09      0.38
   19    1   16     -0.35      0.14
   20    1   16      0.18     -0.72
   21    1   16      1.48     -1.39
   22    1   16     -0.29      0.40
   23    1   16     -0.55      0.62
   24    1   16     -0.10     -1.03
   18    2   16     -0.57      1.74
   19    2   16      0.53     -0.09
   20    2   16      0.05     -1.24
   21    2   16     -0.15     -1.25
   22    2   16      0.07      0.31
   23    2   16      0.45      0.79
   24    2   16     -0.33     -0.47
   18    3   16      0.78      1.66
   19    3   16      0.32     -1.48
   20    3   16      0.40     -0.89
   21    3   16      0.48     -0.11
   22    3   16     -0.69      0.22
   23    3   16      0.50     -0.53
   24    3   16      0.70     -0.43
   18    4   16     -2.78      2.26
   19    4   16     -1.15      1.94
   20    4   16      0.55     -0.52
   21    4   16     -0.63     -0.42
   22    4   16     -1.16     -0.27
   23    4   16     -0.67     -0.73
   24    4   16     -0.04     -0.41
   18    5   16     -0.83      0.48
   19    5   16     -3.32     -0.55
   20    5   16      0.00     -0.80
   21    5   16     -0.22     -0.97
   22    5   16     -0.52      0.24
   23    5   16     -0.22     -0.30
   24    5   16      0.00     -0.42
   18    6   16     -2.05      3.54
   19    6   16      0.78      0.91
   20    6   16      0.11      0.42
   21    6   16     -0.69      0.96
   22    6   16      0.82     -0.32
   23    6   16      0.61     -0.37
   24    6   16     -0.65     -0.51
   18    7   16      1.62      2.10
   19    7   16     -0.78     -1.12
   20    7   16      0.16      0.16
   21    7   16      0.58      0.62
   22    7   16      1.67     -0.30
   23    7   16     -0.23      0.81
   24    7   16     -0.72      0.65
   17    8   16      3.44      1.09
   18    8   16      1.37     -0.91
   19    8   16      0.51     -0.94
   20    8   16     -0.30     -0.56
   21    8   16     -0.31     -0.50
   22    8   16     -0.99     -0.64
   23    8   16     -0.76     -0.07
   24    8   16      0.30     -0.29
   17    9   16      1.88     -0.10
   18    9   16      1.37     -0.27
   19    9   16     -1.59     -0.30
   20    9   16      1.64     -0.23
   21    9   16      0.39      0.02
   22    9   16     -0.34     -0.21
   23    9   16     -0.99     -0.38
   24    9   16      0.17     -0.54
   17   10   16      0.69     -0.98
   18   10   16     -0.91      0.51
   19   10   16      0.15      0.76
   20   10   16     -0.08      0.24
   21   10   16      0.65     -0.35
   22   10   16      0.44     -0.57
   23   10   16     -0.35     -0.28
   24   10   16      0.16     -0.60
   17   11   16     -0.67     -0.14
   18   11   16      1.09      0.09
   19   11   16     -1.07      0.06
   20   11   16     -0.09     -0.28
   21   11   16      0.08      0.20
   22   11   16      0.63      0.18
   23   11   16     -0.01     -0.04
   24   11   16      0.01     -0.32
   16   12   16     -0.01      0.32
   17   12   16     -1.82     -0.72
   18   12   16     -1.11      0.53
   19   12   16      0.36     -1.09
   20   12   16     -0.27     -0.68
   21   12   16     -0.17      0.37
   22   12   16      0.12     -0.16
   23   12   16     -0.31      0.57
   24   12   16     -0.08      0.31
   16   13   16      2.35     -0.85
   17   13   16     -3.34      0.22
   18   13   16     -0.16      0.56
   19   13   16     -0.23      0.02
   20   13   16     -1.16     -1.09
   21   13   16     -0.42      0.13
   22   13   16     -0.25      0.94
   23   13   16     -0.14     -0.10
   24   13   16      0.52      0.08
   15   14   16      2.83      0.53
   16   14   16      0.92     -0.56
   17   14   16      0.55     -0.63
   18   14   16      1.16      1.07
   19   14   16     -0.48     -0.94
   20   14   16      0.25     -0.93
   21   14   16     -0.08      0.17
   22   14   16     -0.69     -0.11
   23   14   16     -0.39     -0.04
   24   14   16      0.23      0.16
   15   15   16     -2.41     -0.95
   16   15   16     -1.30     -0.70
   17   15   16      0.97      0.12
   18   15   16      0.51     -0.17
   19   15   16      0.03     -0.40
   20   15   16     -0.69      0.14
   21   15   16      0.09     -0.01
   22   15   16     -0.02     -0.52
   23   15   16      0.53      0.09
   24   15   16      0.05      0.65
   14   16   16     -1.79      1.41
   15   16   16     -0.75     -0.63
   16   16   16      0.30     -1.09
   17   16   16      0.40      0.30
   18   16   16      0.59      0.35
   19   16   16     -0.67      1.11
   20   16   16      0.27      1.98
   21   16   16     -0.45     -0.70
   22   16   16      0.28     -1.22
   23   16   16      0.73      0.02
   24   16   16     -0.07      0.32
   14   17   16      0.73     -1.92
   15   17   16      1.45      0.98
   16   17   16     -0.08     -1.06
   17   17   16      0.75     -1.02
   18   17   16     -1.07      0.18
   19   17   16      0.42     -1.09
   20   17   16     -0.03     -0.06
   21   17   16     -0.37      1.25
   22   17   16     -0.54      0.18
   23   17   16      0.13     -0.12
   24   17   16     -0.41     -0.46
   13   18   16     -1.29     -0.67
   14   18   16     -1.29      0.08
   15   18   16     -0.84      1.09
   16   18   16      0.24      0.61
   17   18   16      0.15      0.43
   18   18   16      0.73     -0.25
   19   18   16     -0.06     -0.24
   20   18   16      0.22     -0.23
   21   18   16     -0.29     -1.07
   22   18   16      0.05      0.50
   23   18   16      0.28      0.69
   24   18   16      0.07     -0.26
   12   19   16     -1.88      1.80
   13   19   16      0.72     -1.30
   14   19   16     -0.44     -0.12
   15   19   16      0.50      1.59
   16   19   16     -0.13      0.25
   17   19   16      0.79     -0.02
   18   19   16      0.04     -0.23
   19   19   16      0.33     -0.75
   20   19   16     -0.23      0.23
   21   19   16      0.54      0.57
   22   19   16     -0.38     -0.43
   23   19   16     -0.63      0.28
   12   20   16      1.59      1.28
   13   20   16     -2.11      0.75
   14   20   16      0.03     -0.92
   15   20   16      0.96      0.21
   16   20   16     -0.07      0.58
   17   20   16     -0.71      0.49
   18   20   16      0.36      0.06
   19   20   16     -0.03     -0.07
   20   20   16     -0.64     -0.44
   21   20   16      0.42     -0.11
   22   20   16      1.02      0.82
   23   20   16      0.09     -0.26
   11   21   16     -1.97     -1.73
   12   21   16     -3.03     -1.28
   13   21   16      0.01      0.13
   14   21   16     -0.22      0.36
   15   21   16      1.70     -0.10
   16   21   16     -0.50      0.47
   17   21   16     -0.84      0.86
   18   21   16      0.90      0.03
   19   21   16      0.37     -0.32
   20   21   16     -0.54     -0.57
   21   21   16      0.35      0.06
   22   21   16      0.01      0.50
   10   22   16     -0.99      1.06
   11   22   16     -0.93      0.27
   12   22   16      1.24     -0.84
   13   22   16     -1.41      0.92
   14   22   16     -0.52     -0.27
   15   22   16      0.34     -0.52
   16   22   16      0.10     -0.06
   17   22   16      0.47      0.17
   18   22   16     -0.10      0.60
   19   22   16     -0.49      0.70
   20   22   16      0.15     -0.61
   21   22   16      0.89     -0.22
   22   22   16     -0.47      0.61
    8   23   16     -0.06     -1.92
    9   23   16      0.37      1.87
   10   23   16      0.08      0.52
   11   23   16      0.80     -0.88
   12   23   16     -0.08      1.03
   13   23   16      1.12      0.68
   14   23   16     -0.45      0.04
   15   23   16      0.06      0.32
   16   23   16      0.13      0.09
   17   23   16     -0.34     -0.13
   18   23   16      0.32     -0.08
   19   23   16     -0.29     -0.03
   20   23   16     -0.02      0.22
   21   23   16     -0.35      0.32
    7   24   16     -1.42     -0.97
    8   24   16     -0.07     -2.35
    9   24   16     -0.34      0.82
   10   24   16      0.21     -0.37
   11   24   16     -0.27     -0.69
   12   24   16     -0.63      0.28
   13   24   16     -0.32      1.12
   14   24   16      0.25     -0.62
   15   24   16      0.59     -0.55
   16   24   16      0.22      0.07
   17   24   16     -0.19     -0.43
   18   24   16     -0.37     -0.62
   19   24   16      0.49     -0.28
   20   24   16     -0.37     -0.25
   21   24   16     -0.06      0.29
    4   25   16     -1.13      0.46
    5   25   16      0.39     -0.11
    6   25   16     -1.53     -0.65
    7   25   16     -1.43      0.06
    8   25   16     -1.83     -2.25
    9   25   16     -1.28     -0.14
   10   25   16     -0.23     -0.84
   11   25   16      1.19      0.35
   12   25   16     -0.71      0.57
   13   25   16     -0.38     -0.64
   14   25   16     -0.29      0.23
   15   25   16      0.15      0.18
   16   25   16      1.16     -0.03
   17   25   16     -0.22      0.22
   18   25   16     -0.32      0.19
   19   25   16     -0.19     -0.24
   20   25   16      0.31      0.02
    0   26   16     -2.93     -0.04
    1   26   16      2.17      2.23
    2   26   16     -0.69      0.37
    3   26   16     -2.60     -0.65
    4   26   16      0.20      1.78
    5   26   16     -2.72      0.06
    6   26   16     -0.24     -0.73
    7   26   16      0.07      1.25
    8   26   16     -0.32      0.11
    9   26   16     -0.06      0.65
   10   26   16      0.60      0.08
   11   26   16      0.06      0.32
   12   26   16     -1.32      0.58
   13   26   16      0.24     -0.12
   14   26   16     -0.88      0.07
   15   26   16     -1.02      0.60
   16   26   16      0.48     -0.04
   17   26   16      0.63     -0.82
   18   26   16     -0.16     -0.46
   19   26   16     -0.13     -0.13
   20   26   16     -0.55      0.04
    0   27   16      2.13     -0.04
    1   27   16      0.44     -0.60
    2   27   16      0.57      0.73
    3   27   16      0.18     -1.45
    4   27   16      0.50      1.01
    5   27   16      0.84     -0.59
    6   27   16      0.34     -0.60
    7   27   16     -0.38      1.52
    8   27   16     -0.67      0.85
    9   27   16     -0.07      0.49
   10   27   16     -0.04     -1.53
   11   27   16     -0.17     -0.80
   12   27   16     -0.33     -0.36
   13   27   16     -0.06     -0.20
   14   27   16     -0.27      0.57
   15   27   16     -0.12     -0.11
   16   27   16      0.49      0.41
   17   27   16     -0.39      0.34
   18   27   16      0.15      0.01
   19   27   16     -0.21      0.10
    0   28   16     -4.09      0.08
    1   28   16      2.14     -0.44
    2   28   16      0.98      0.84
    3   28   16     -0.81     -0.55
    4   28   16      0.24     -0.97
    5   28   16     -1.44     -0.94
    6   28   16      0.59      0.19
    7   28   16      0.00      0.34
    8   28   16     -0.02     -0.44
    9   28   16      1.20     -0.26
   10   28   16     -0.38     -0.28
   11   28   16     -0.18      0.13
   12   28   16      0.03      0.37
   13   28   16      0.73     -0.39
   14   28   16     -0.25      0.07
   15   28   16     -0.20      0.19
   16   28   16      0.14      0.88
   17   28   16     -0.08      0.45
   18   28   16      0.45     -0.61
    0   29   16      0.64     -0.14
    1   29   16     -0.24     -0.70
    2   29   16     -0.08     -0.05
    3   29   16      0.81      0.20
    4   29   16      0.22      0.60
    5   29   16     -0.02      0.43
    6   29   16      0.66     -0.43
    7   29   16      0.61     -0.01
    8   29   16     -0.11     -0.72
    9   29   16     -0.03     -0.66
   10   29   16      0.50     -0.49
   11   29   16     -0.35      0.76
   12   29   16     -0.29      0.30
   13   29   16      0.35     -0.35
   14   29   16      0.29      0.34
   15   29   16      0.00      0.19
   16   29   16     -0.15     -0.16
   17   29   16     -0.60     -0.37
   18   29   16     -0.32     -0.33
    0   30   16      0.65      0.11
    1   30   16      1.02     -0.15
    2   30   16     -1.96     -0.18
    3   30   16     -0.09     -0.70
    4   30   16      1.30      0.18
    5   30   16     -1.29     -0.22
    6   30   16      0.20      0.23
    7   30   16      0.38      0.26
    8   30   16     -0.20     -0.18
    9   30   16      0.14     -0.35
   10   30   16     -0.13      0.13
   11   30   16      0.24     -0.05
   12   30   16     -0.93     -0.50
   13   30   16     -0.51     -0.56
   14   30   16      0.53      0.59
   15   30   16      0.07      0.34
   16   30   16      0.25      0.23
   17   30   16      0.23     -0.48
    0   31   16     -1.19     -0.09
    1   31   16     -0.05      0.43
    2   31   16      0.13     -0.23
    3   31   16      0.00      0.41
    4   31   16      0.28     -0.01
    5   31   16      0.16      0.56
    6   31   16     -0.74     -0.70
    7   31   16      0.18     -0.12
    8   31   16      0.35      0.54
    9   31   16     -0.45      0.28
   10   31   16      0.30     -0.79
   11   31   16      0.19     -0.68
   12   31   16     -0.14     -0.20
   13   31   16     -0.06     -0.78
   14   31   16     -0.55     -0.42
   15   31   16     -0.95      0.84
   16   31   16     -0.43     -0.17
    0   32   16      0.42      0.07
    1   32   16      0.83      0.42
    2   32   16     -0.06     -0.13
    3   32   16     -0.49     -0.35
    4   32   16     -0.16     -0.02
    5   32   16     -0.07     -0.20
    6   32   16     -0.02      0.27
    7   32   16      0.12      0.23
    8   32   16      0.72      0.13
    9   32   16     -0.29      0.02
   10   32   16     -0.64      0.31
   11   32   16      0.71      0.24
   12   32   16      0.11      0.31
   13   32   16     -0.63      0.01
   14   32   16      0.12      0.17
   15   32   16     -0.51     -0.10
    0   33   16     -1.26     -0.17
    1   33   16      0.42     -0.16
    2   33   16      0.50     -0.56
    3   33   16      0.52      1.01
    4   33   16      0.71     -0.20
    5   33   16      0.22     -0.26
    6   33   16     -0.77     -0.25
    7   33   16      0.19      0.15
    8   33   16      0.13     -0.22
    9   33   16     -0.78     -0.29
   10   33   16     -0.26      0.41
   11   33   16      0.33     -0.40
   12   33   16      0.13     -0.40
   13   33   16     -0.40     -0.21
   14   33   16     -0.16     -0.56
    0   34   16     -0.60      0.06
    1   34   16     -1.12      0.27
    2   34   16     -0.35      0.27
    3   34   16      0.30      0.33
    4   34   16      0.11     -0.22
    5   34   16      0.30      0.46
    6   34   16     -0.40      0.36
    7   34   16      0.34     -0.62
    8   34   16      0.15     -0.22
    9   34   16     -0.60      0.27
   10   34   16      0.15      0.05
   11   34   16      0.18     -0.38
   12   34   16     -0.30      0.10
   13   34   16      0.12     -0.05
   17    0   17     -0.13     -0.53
   18    0   17      0.20     -3.48
   19    0   17      0.34     -0.33
   20    0   17     -0.03     -1.51
   21    0   17     -0.20      1.54
   22    0   17      0.06      0.26
   23    0   17      0.03     -0.62
   24    0   17      0.13      0.80
   17    1   17     -0.74     -1.82
   18    1   17     -1.63     -2.13
   19    1   17      0.04      0.35
   20    1   17      0.45     -2.03
   21    1   17      1.06      0.73
   22    1   17      0.16      0.01
   23    1   17     -0.66      0.08
   24    1   17     -0.03      0.35
   17    2   17     -0.77      1.93
   18    2   17     -0.13     -2.74
   19    2   17     -0.71      1.00
   20    2   17      0.18     -0.84
   21    2   17     -0.20     -0.92
   22    2   17     -0.75     -0.13
   23    2   17      0.12      0.26
   24    2   17      0.13     -0.13
   17    3   17      1.97      1.71
   18    3   17     -1.52     -1.05
   19    3   17     -1.58     -1.04
   20    3   17     -1.31     -1.74
   21    3   17      0.26      0.23
   22    3   17      0.26     -0.56
   23    3   17      0.40      0.81
   24    3   17     -0.34      1.29
   17    4   17     -1.15      1.17
   18    4   17      1.62     -1.58
   19    4   17      0.41      1.46
   20    4   17     -1.14      0.90
   21    4   17     -0.53      0.44
   22    4   17      0.54      0.25
   23    4   17      0.81      0.00
   24    4   17      0.25     -0.43
   17    5   17      0.15      1.57
   18    5   17     -0.09      0.02
   19    5   17      0.09      0.08
   20    5   17     -1.25     -1.93
   21    5   17     -0.71      0.59
   22    5   17     -0.46      0.34
   23    5   17      0.36     -0.43
   24    5   17      0.28      1.05
   17    6   17      0.37     -0.32
   18    6   17      1.03     -1.78
   19    6   17      1.49     -0.17
   20    6   17      1.50      0.54
   21    6   17      1.25      0.23
   22    6   17     -0.04      0.44
   23    6   17     -0.85      0.36
   24    6   17     -0.15     -0.18
   17    7   17     -1.99     -0.80
   18    7   17      2.48     -1.00
   19    7   17      0.15     -0.11
   20    7   17     -1.79     -0.61
   21    7   17      0.14      0.07
   22    7   17      0.22     -0.12
   23    7   17     -0.16      0.00
   24    7   17      0.18     -0.57
   16    8   17     -1.16      0.81
   17    8   17     -0.54     -0.39
   18    8   17      2.58     -0.11
   19    8   17      1.17     -0.62
   20    8   17     -0.69     -0.03
   21    8   17     -0.38     -0.06
   22    8   17     -0.13      0.03
   23    8   17     -0.28     -0.05
   24    8   17      0.41      0.25
   16    9   17      2.58     -1.52
   17    9   17     -0.44      0.39
   18    9   17      0.63     -0.36
   19    9   17     -0.02     -0.73
   20    9   17      0.38      0.15
   21    9   17      0.35      0.82
   22    9   17      0.70     -0.21
   23    9   17      0.80      0.03
   24    9   17      0.21      0.28
   16   10   17      2.47      3.15
   17   10   17     -1.37     -0.55
   18   10   17     -1.01     -0.82
   19   10   17     -0.05      0.09
   20   10   17     -0.05     -0.09
   21   10   17      0.53     -0.56
   22   10   17     -0.35      0.01
   23   10   17     -1.86     -0.82
   24   10   17      0.00     -0.33
   16   11   17     -1.52     -0.46
   17   11   17     -0.05      0.41
   18   11   17     -0.04     -0.34
   19   11   17     -1.56     -0.12
   20   11   17      0.81      0.61
   21   11   17      0.29      0.07
   22   11   17      0.22     -0.48
   23   11   17      0.60     -0.16
   24   11   17     -0.62     -0.26
   15   12   17      0.30      0.22
   16   12   17     -0.55      1.06
   17   12   17     -0.37      1.14
   18   12   17      0.23      0.34
   19   12   17      0.49     -0.68
   20   12   17     -0.18      0.31
   21   12   17     -0.01     -0.08
   22   12   17      0.48     -0.88
   23   12   17      0.20     -0.41
   24   12   17      0.26     -0.05
   15   13   17     -0.99     -0.54
   16   13   17      0.30     -0.20
   17   13   17      1.32     -1.24
   18   13   17      0.99     -0.68
   19   13   17     -1.26      0.38
   20   13   17     -0.01     -0.66
   21   13   17     -0.63     -1.10
   22   13   17     -0.54      0.67
   23   13   17      0.10      0.02
   24   13   17     -0.34     -0.46
   14   14   17     -2.57     -2.12
   15   14   17      0.86      0.46
   16   14   17     -1.71      1.61
   17   14   17      0.02      0.43
   18   14   17      0.30     -1.07
   19   14   17     -0.22      0.37
   20   14   17     -0.05      0.54
   21   14   17      0.13      0.13
   22   14   17     -0.19      0.69
   23   14   17      0.02      0.81
   24   14   17      0.22     -0.59
   14   15   17      1.15      0.39
   15   15   17      1.94     -2.48
   16   15   17     -0.63      0.91
   17   15   17     -0.38      0.73
   18   15   17      0.73     -0.51
   19   15   17      0.03      0.79
   20   15   17      0.32      0.44
   21   15   17      0.35     -1.22
   22   15   17     -0.15     -0.32
   23   15   17     -0.29     -0.24
   24   15   17      0.20      0.50
   13   16   17     -0.04      2.49
   14   16   17     -1.39      0.27
   15   16   17      1.12     -1.03
   16   16   17     -0.71     -0.71
   17   16   17      0.14      0.15
   18   16   17     -0.02     -0.15
   19   16   17     -0.02      0.78
   20   16   17      0.38     -0.32
   21   16   17      0.43      0.09
   22   16   17      0.03      0.58
   23   16   17     -0.30      0.28
   24   16   17     -0.10     -0.42
   12   17   17      0.87     -2.21
   13   17   17     -1.24      1.13
   14   17   17      2.23      1.03
   15   17   17      0.39     -0.18
   16   17   17     -1.25      0.27
   17   17   17      0.10     -0.97
   18   17   17      0.21     -0.08
   19   17   17      0.97      0.54
   20   17   17     -0.08     -0.22
   21   17   17     -0.10     -0.14
   22   17   17      0.79      0.94
   23   17   17      0.45     -0.20
   12   18   17      1.53     -0.05
   13   18   17     -0.38      1.75
   14   18   17      0.35      0.59
   15   18   17      1.26      0.49
   16   18   17     -0.59     -0.29
   17   18   17      0.88      0.44
   18   18   17      0.11      0.15
   19   18   17     -1.08      0.03
   20   18   17      0.48     -0.63
   21   18   17      0.77      0.76
   22   18   17     -0.03      0.53
   23   18   17      0.20     -0.22
   11   19   17     -2.12      0.30
   12   19   17      1.05      0.50
   13   19   17     -0.22      0.55
   14   19   17      0.43     -0.87
   15   19   17     -0.04      0.18
   16   19   17     -0.69      0.72
   17   19   17      0.22     -0.82
   18   19   17     -0.13      0.05
   19   19   17      1.05     -0.09
   20   19   17     -0.57     -0.42
   21   19   17     -0.77     -0.11
   22   19   17     -0.42     -0.28
   23   19   17     -0.45     -0.27
   10   20   17     -0.67     -0.65
   11   20   17     -0.90     -1.04
   12   20   17      1.38      1.46
   13   20   17      0.22      1.94
   14   20   17     -0.16     -0.45
   15   20   17     -0.39     -0.52
   16   20   17     -0.26     -0.47
   17   20   17      0.08      0.20
   18   20   17     -0.36     -0.32
   19   20   17      0.07     -0.21
   20   20   17      0.38     -0.78
   21   20   17     -0.43      0.01
   22   20   17      0.16      0.32
    9   21   17      0.78     -0.94
   10   21   17      0.41     -1.06
   11   21   17      1.07     -0.35
   12   21   17     -1.10     -1.66
   13   21   17     -0.44     -0.56
   14   21   17      0.89      0.10
   15   21   17      0.47      0.48
   16   21   17     -0.02      0.97
   17   21   17      0.59      0.80
   18   21   17     -0.45      1.09
   19   21   17      0.55      0.35
   20   21   17      0.49     -0.38
   21   21   17      0.59      0.21
   22   21   17     -0.08      0.48
    7   22   17     -1.81     -1.24
    8   22   17      0.42     -0.51
    9   22   17      0.60     -1.50
   10   22   17      1.81     -1.31
   11   22   17     -0.97      2.00
   12   22   17      0.55      0.23
   13   22   17      0.48     -0.58
   14   22   17      0.11      0.30
   15   22   17     -1.41      0.18
   16   22   17      0.08     -1.07
   17   22   17      1.23      0.10
   18   22   17      0.16      0.08
   19   22   17     -0.09      0.37
   20   22   17     -0.09      0.39
   21   22   17     -0.21      0.16
    6   23   17      0.84     -0.95
    7   23   17     -0.92      0.71
    8   23   17     -1.17      0.47
    9   23   17     -0.50     -1.65
   10   23   17     -1.86      0.43
   11   23   17     -0.75      0.32
   12   23   17      0.68     -0.89
   13   23   17      0.43      0.17
   14   23   17     -1.21     -0.05
   15   23   17      0.34     -0.18
   16   23   17      0.27      0.40
   17   23   17     -0.73      0.08
   18   23   17      0.10     -0.12
   19   23   17      0.32      0.23
   20   23   17     -0.63      0.07
   21   23   17      0.75     -0.20
    2   24   17     -0.89     -1.19
    3   24   17     -0.65     -0.21
    4   24   17     -0.44      1.26
    5   24   17     -0.04     -1.22
    6   24   17     -0.46     -1.34
    7   24   17     -1.05     -0.18
    8   24   17      0.72     -0.42
    9   24   17      0.31     -0.14
   10   24   17      0.15     -0.14
   11   24   17     -0.29      0.51
   12   24   17      1.17     -0.31
   13   24   17      0.10      0.06
   14   24   17      0.22     -0.61
   15   24   17      0.02     -0.04
   16   24   17      0.07      0.17
   17   24   17      0.23      0.66
   18   24   17      0.11      0.02
   19   24   17      0.19     -0.02
   20   24   17     -0.35     -0.11
    0   25   17      2.47     -0.65
    1   25   17      2.13     -1.94
    2   25   17      0.04      2.36
    3   25   17     -0.53      0.03
    4   25   17      1.00      0.34
    5   25   17      1.36     -0.74
    6   25   17     -1.00      1.72
    7   25   17     -0.29      1.86
    8   25   17      0.73     -0.62
    9   25   17     -0.36     -0.13
   10   25   17      0.49      0.34
   11   25   17      0.19     -0.52
   12   25   17     -1.13      0.09
   13   25   17      0.37     -0.23
   14   25   17     -0.21     -0.73
   15   25   17     -0.67     -0.14
   16   25   17     -0.15      0.26
   17   25   17     -0.42     -0.06
   18   25   17      0.01     -0.17
   19   25   17      0.32     -0.23
   20   25   17      0.15      0.16
    0   26   17      1.62      0.14
    1   26   17     -1.05      0.77
    2   26   17      1.78      0.08
    3   26   17      1.02     -0.32
    4   26   17     -0.48      0.67
    5   26   17     -0.41      0.39
    6   26   17      0.20     -1.00
    7   26   17     -0.09     -0.12
    8   26   17      0.70      0.63
    9   26   17      0.98      0.88
   10   26   17      0.54      0.59
   11   26   17     -0.15      0.79
   12   26   17     -0.58      0.04
   13   26   17      0.21     -0.25
   14   26   17      0.73     -0.11
   15   26   17     -0.25      1.36
   16   26   17     -0.11     -0.16
   17   26   17      0.33     -0.24
   18   26   17     -0.20      0.33
   19   26   17      0.66      0.17
    0   27   17      1.38     -0.01
    1   27   17     -0.18     -0.95
    2   27   17     -0.59      0.37
    3   27   17     -0.29     -1.36
    4   27   17      1.07      1.11
    5   27   17      0.40      0.46
    6   27   17     -0.51      0.20
    7   27   17     -0.62     -0.47
    8   27   17     -0.12     -0.78
    9   27   17     -1.04      0.18
   10   27   17      0.19     -0.73
   11   27   17      0.96     -0.14
   12   27   17      0.15      0.52
   13   27   17      0.33     -0.46
   14   27   17     -0.28      0.99
   15   27   17     -0.06      0.34
   16   27   17      0.51     -0.47
   17   27   17      0.34      0.11
   18   27   17      0.34      0.55
    0   28   17     -1.22     -0.13
    1   28   17     -0.51      0.10
    2   28   17     -0.38     -0.20
    3   28   17      0.34     -0.70
    4   28   17     -0.10     -0.39
    5   28   17     -0.33      0.57
    6   28   17      1.19     -0.40
    7   28   17      0.41     -0.14
    8   28   17     -0.33      0.38
    9   28   17      0.29     -0.18
   10   28   17     -0.61     -0.26
   11   28   17      0.03      0.06
   12   28   17     -0.20     -0.33
   13   28   17     -0.53     -0.76
   14   28   17     -0.60     -0.67
   15   28   17     -0.16      0.63
   16   28   17     -0.15     -0.33
   17   28   17     -0.11      0.50
    0   29   17      0.95     -0.07
    1   29   17     -0.60      0.31
    2   29   17     -0.48      0.84
    3   29   17     -0.19      0.02
    4   29   17      0.31      1.31
    5   29   17      0.23     -0.33
    6   29   17      0.31     -0.33
    7   29   17     -0.63      0.50
    8   29   17     -0.33     -0.21
    9   29   17      0.02     -0.36
   10   29   17     -0.05     -1.07
   11   29   17     -0.17      0.01
   12   29   17     -0.14      0.27
   13   29   17     -0.04     -0.91
   14   29   17     -0.76      0.21
   15   29   17     -0.03      0.08
   16   29   17      0.11      0.70
   17   29   17     -0.36      0.07
    0   30   17     -2.19      0.05
    1   30   17      1.37     -1.13
    2   30   17      0.75     -0.49
    3   30   17     -0.58      0.50
    4   30   17     -0.25      0.37
    5   30   17     -0.37      0.50
    6   30   17      0.24      0.27
    7   30   17     -0.82      0.23
    8   30   17     -0.44      0.15
    9   30   17      0.74     -0.01
   10   30   17     -0.43      0.60
   11   30   17      0.12      0.08
   12   30   17      0.23     -0.25
   13   30   17      0.67      0.35
   14   30   17      0.26     -0.21
   15   30   17     -0.07     -0.25
   16   30   17      0.33     -0.52
    0   31   17      1.37     -0.01
    1   31   17      0.78      0.32
    2   31   17     -0.28      0.34
    3   31   17     -1.05     -0.47
    4   31   17     -0.40      0.56
    5   31   17      0.29      0.56
    6   31   17      0.31      0.02
    7   31   17      0.29      0.48
    8   31   17      0.20      0.29
    9   31   17      0.00      0.49
   10   31   17      0.00     -0.61
   11   31   17      0.56     -0.09
   12   31   17      0.40      0.13
   13   31   17     -0.20     -0.26
   14   31   17     -0.70      0.21
   15   31   17     -0.04     -0.08
    0   32   17     -0.84      0.21
    1   32   17      0.63      0.15
    2   32   17     -0.52     -0.09
    3   32   17     -0.14     -0.15
    4   32   17      0.50     -0.37
    5   32   17     -0.68     -0.21
    6   32   17      0.63      0.23
    7   32   17     -0.02     -0.09
    8   32   17      0.03     -0.04
    9   32   17      0.51     -0.46
   10   32   17     -0.43     -0.63
   11   32   17      0.32     -0.03
   12   32   17     -0.31      0.75
   13   32   17     -0.58      0.71
   14   32   17      0.05     -0.32
    0   33   17     -0.48     -0.02
    1   33   17     -0.01     -0.18
    2   33   17     -0.24      0.01
    3   33   17     -0.35      0.09
    4   33   17     -0.39      0.61
    5   33   17      0.19      0.62
    6   33   17      0.23     -0.64
    7   33   17     -0.19     -0.09
    8   33   17     -0.13     -0.08
    9   33   17      0.54      0.37
   10   33   17      0.12     -0.65
   11   33   17     -0.01     -0.26
   12   33   17      0.41      0.20
   13   33   17      0.23     -0.01
    0   34   17      0.09      0.07
    1   34   17      1.02     -0.08
    2   34   17      0.33     -0.34
    3   34   17     -0.20      0.04
    4   34   17      0.01      0.09
    5   34   17     -0.59     -0.36
    6   34   17      0.39      0.36
    7   34   17     -0.12      0.17
    8   34   17     -0.06      0.31
    9   34   17      0.45      0.04
   10   34   17     -0.28     -0.35
   11   34   17     -0.11      0.20
   16    0   18     -3.38      0.20
   17    0   18     -0.39      0.15
   18    0   18      0.75      0.17
   19    0   18      0.23      0.04
   20    0   18     -0.76      0.09
   21    0   18      0.01      0.22
   22    0   18     -0.10      0.25
   23    0   18     -0.39      0.18
   24    0   18      0.60      0.00
   16    1   18      1.13      0.24
   17    1   18     -0.72     -0.34
   18    1   18     -0.60      0.54
   19    1   18      0.87      0.29
   20    1   18      2.43     -0.60
   21    1   18     -1.02     -0.28
   22    1   18      0.11     -0.25
   23    1   18     -0.37     -0.68
   24    1   18      0.25      0.28
   16    2   18      0.04      1.46
   17    2   18      1.75     -1.05
   18    2   18      0.91      0.38
   19    2   18     -0.27      0.77
   20    2   18      0.16     -0.52
   21    2   18      0.25      0.18
   22    2   18     -0.07     -0.06
   23    2   18      0.82      0.42
   24    2   18      0.05      0.72
   16    3   18      0.84     -0.81
   17    3   18     -1.19      0.18
   18    3   18     -0.59     -0.20
   19    3   18     -0.59     -0.20
   20    3   18     -0.08      0.58
   21    3   18     -0.50      0.17
   22    3   18      0.69      0.07
   23    3   18     -0.51      0.30
   24    3   18     -0.10      0.32
   16    4   18     -2.65      2.47
   17    4   18      0.56     -0.30
   18    4   18      0.85      0.71
   19    4   18     -0.34      0.21
   20    4   18      0.39     -0.24
   21    4   18      0.47      1.01
   22    4   18     -0.31      0.11
   23    4   18      1.08     -0.29
   24    4   18      0.47      0.03
   16    5   18     -0.79     -0.51
   17    5   18     -1.59     -0.34
   18    5   18     -0.17     -2.13
   19    5   18      2.04     -1.26
   20    5   18      0.05      0.12
   21    5   18     -1.02      0.12
   22    5   18      0.32     -0.44
   23    5   18     -0.12     -0.45
   24    5   18     -0.28      0.35
   16    6   18     -0.75      1.68
   17    6   18      1.11     -1.79
   18    6   18     -0.08      0.43
   19    6   18     -1.94      1.33
   20    6   18      0.68     -0.49
   21    6   18      0.97     -0.45
   22    6   18     -0.89      0.07
   23    6   18      0.43     -0.44
   24    6   18      0.43      0.05
   16    7   18     -1.17     -1.56
   17    7   18      1.17     -0.69
   18    7   18      0.43     -0.20
   19    7   18      0.52      1.03
   20    7   18      0.14      0.58
   21    7   18      0.55      0.71
   22    7   18      0.05      0.30
   23    7   18      0.83     -0.61
   24    7   18      0.67     -0.18
   15    8   18      0.69     -0.35
   16    8   18     -0.14      0.75
   17    8   18     -0.35      0.35
   18    8   18      0.82     -0.74
   19    8   18     -0.80     -1.01
   20    8   18     -0.46      1.12
   21    8   18      1.07      0.68
   22    8   18      0.42     -0.11
   23    8   18      0.18      0.00
   24    8   18      0.05      0.84
   15    9   18      1.04     -1.73
   16    9   18     -1.71     -1.78
   17    9   18     -0.15      0.77
   18    9   18     -2.06     -0.34
   19    9   18     -0.70     -0.55
   20    9   18     -0.34     -0.46
   21    9   18     -0.26     -0.29
   22    9   18     -0.84     -0.31
   23    9   18     -0.07      0.28
   24    9   18     -0.32      0.32
   15   10   18     -0.65     -0.67
   16   10   18      0.61      0.38
   17   10   18     -0.55     -0.41
   18   10   18     -0.21     -1.45
   19   10   18      0.41     -0.68
   20   10   18      0.01      0.15
   21   10   18     -0.54     -0.44
   22   10   18     -0.20     -0.06
   23   10   18      0.32     -0.08
   24   10   18     -0.14      1.32
   14   11   18     -2.00      0.97
   15   11   18      1.26     -1.28
   16   11   18     -0.10     -1.20
   17   11   18      1.01     -0.56
   18   11   18     -1.05     -0.28
   19   11   18      0.02      0.02
   20   11   18      0.53     -0.12
   21   11   18     -0.42      0.49
   22   11   18     -0.41     -0.14
   23   11   18      0.60     -0.95
   24   11   18     -0.41     -0.56
   14   12   18     -1.67     -1.08
   15   12   18     -1.05     -0.12
   16   12   18      0.51     -0.16
   17   12   18     -0.26     -1.58
   18   12   18     -0.86     -0.73
   19   12   18     -0.58      1.01
   20   12   18     -0.36      0.22
   21   12   18     -0.02     -0.16
   22   12   18     -0.12      0.71
   23   12   18      0.40     -0.40
   24   12   18      0.39      0.27
   13   13   18      0.91     -1.23
   14   13   18     -1.12     -1.29
   15   13   18     -1.00     -1.10
   16   13   18      0.42      0.06
   17   13   18      1.01      0.27
   18   13   18      0.02     -0.24
   19   13   18     -0.06     -0.43
   20   13   18      0.12      0.49
   21   13   18     -0.16      0.69
   22   13   18     -0.10     -0.64
   23   13   18     -0.44      0.03
   24   13   18     -0.30      0.52
   13   14   18      1.73     -0.91
   14   14   18      0.15      1.54
   15   14   18     -0.02      0.38
   16   14   18     -0.44     -0.48
   17   14   18     -1.08      0.48
   18   14   18      0.64      0.99
   19   14   18      1.94      0.63
   20   14   18     -1.00     -0.47
   21   14   18     -0.42      0.04
   22   14   18      1.24      0.65
   23   14   18      0.14     -0.22
   24   14   18     -0.55      0.24
   12   15   18     -0.28      0.45
   13   15   18      1.08     -2.96
   14   15   18      0.04     -0.13
   15   15   18     -0.26      0.89
   16   15   18     -0.19      0.84
   17   15   18     -0.73     -0.21
   18   15   18      0.77     -0.35
   19   15   18      0.40      0.34
   20   15   18      0.59     -0.35
   21   15   18      0.26     -0.31
   22   15   18      0.61      0.04
   23   15   18     -0.15     -0.15
   12   16   18     -2.26      4.24
   13   16   18      0.96     -0.95
   14   16   18      1.95     -0.11
   15   16   18     -0.34      1.13
   16   16   18     -0.02     -0.23
   17   16   18      0.85     -0.89
   18   16   18     -1.10      0.15
   19   16   18      0.06      0.11
   20   16   18      0.47     -0.14
   21   16   18      0.21      0.88
   22   16   18     -0.15      0.39
   23   16   18     -0.09     -0.08
   11   17   18     -1.05     -1.25
   12   17   18      0.96     -1.57
   13   17   18      0.98      1.51
   14   17   18     -0.14     -0.51
   15   17   18     -1.36     -2.28
   16   17   18      0.49      0.44
   17   17   18      0.24      0.52
   18   17   18      0.17     -0.47
   19   17   18     -0.82      0.49
   20   17   18      1.22     -0.42
   21   17   18      0.53     -0.54
   22   17   18     -0.24      0.36
   23   17   18      0.18      0.21
   10   18   18     -0.25      0.16
   11   18   18      0.71      0.67
   12   18   18     -1.14      2.76
   13   18   18      0.16     -0.41
   14   18   18     -0.53     -0.47
   15   18   18     -0.35      0.33
   16   18   18     -0.62      0.60
   17   18   18     -0.35     -0.93
   18   18   18     -0.17     -0.70
   19   18   18      0.26     -0.44
   20   18   18     -0.68     -0.56
   21   18   18      0.20      0.33
   22   18   18      0.52     -0.05
    9   19   18      0.69      0.24
   10   19   18      0.92     -0.37
   11   19   18     -0.92     -0.82
   12   19   18      1.04     -0.86
   13   19   18      0.53      0.54
   14   19   18      0.15     -0.31
   15   19   18     -1.39     -0.35
   16   19   18     -0.17     -0.02
   17   19   18     -0.06     -0.93
   18   19   18      0.75     -0.25
   19   19   18     -0.01      1.11
   20   19   18      0.14      0.17
   21   19   18     -0.03     -0.08
   22   19   18      0.20      0.08
    8   20   18      0.66     -0.54
    9   20   18      3.19     -1.31
   10   20   18      0.84      1.77
   11   20   18      0.09     -1.40
   12   20   18      0.95     -0.29
   13   20   18      2.35     -0.29
   14   20   18      0.61     -0.50
   15   20   18      0.08     -0.58
   16   20   18     -0.88      0.42
   17   20   18     -0.29     -0.26
   18   20   18      0.30      0.07
   19   20   18      0.10      0.17
   20   20   18     -0.10      0.21
   21   20   18      0.07      0.26
    6   21   18     -0.69      0.52
    7   21   18     -0.27     -1.30
    8   21   18      1.46      2.57
    9   21   18     -0.90     -2.30
   10   21   18     -1.12     -1.84
   11   21   18     -0.14      0.02
   12   21   18      1.02      0.50
   13   21   18     -0.23      0.19
   14   21   18      0.59     -0.35
   15   21   18     -0.36      0.61
   16   21   18      0.20      0.44
   17   21   18      0.11     -0.35
   18   21   18     -0.52      0.36
   19   21   18      0.08      0.92
   20   21   18     -0.01      0.14
   21   21   18     -0.39     -0.03
    4   22   18     -3.05     -2.06
    5   22   18      0.43     -0.40
    6   22   18     -2.15      0.79
    7   22   18      0.87     -0.52
    8   22   18      0.03     -0.26
    9   22   18      1.04     -0.66
   10   22   18     -0.41      1.14
   11   22   18     -1.12      0.47
   12   22   18     -0.07      0.59
   13   22   18      0.46      0.23
   14   22   18     -0.42      0.71
   15   22   18     -0.19      0.29
   16   22   18     -0.13      0.37
   17   22   18      0.05     -0.30
   18   22   18     -0.20     -0.59
   19   22   18      0.02     -0.34
   20   22   18      0.78      0.26
    0   23   18     -0.04     -0.02
    1   23   18     -0.36      2.87
    2   23   18     -1.37     -3.25
    3   23   18      1.38      1.69
    4   23   18      0.41     -1.67
    5   23   18     -0.55     -0.13
    6   23   18     -1.66      0.96
    7   23   18     -1.33     -0.69
    8   23   18      1.63      0.57
    9   23   18     -0.01     -1.91
   10   23   18     -0.48      1.22
   11   23   18      0.17     -0.19
   12   23   18      0.45     -1.25
   13   23   18     -0.46      0.77
   14   23   18      0.32      0.01
   15   23   18     -0.23     -0.66
   16   23   18     -0.35      0.02
   17   23   18      0.60     -0.17
   18   23   18     -0.24     -0.55
   19   23   18      0.28      0.19
   20   23   18     -0.48     -0.21
    0   24   18      2.75     -0.29
    1   24   18      0.02     -2.33
    2   24   18      0.08     -1.05
    3   24   18      0.66     -0.68
    4   24   18     -0.29     -3.09
    5   24   18      1.67     -0.92
    6   24   18     -1.12      0.10
    7   24   18      0.50     -0.72
    8   24   18     -0.95     -0.25
    9   24   18     -0.08     -1.09
   10   24   18      0.20      0.42
   11   24   18     -0.60      0.64
   12   24   18      0.47     -0.63
   13   24   18      0.07     -0.33
   14   24   18      0.18      0.18
   15   24   18      0.51     -0.56
   16   24   18     -0.19      0.20
   17   24   18      0.07      0.81
   18   24   18      0.56      0.37
   19   24   18     -0.13      0.45
    0   25   18      0.35      0.04
    1   25   18      0.57      2.51
    2   25   18     -1.12     -0.94
    3   25   18      0.26      1.86
    4   25   18      0.15     -1.39
    5   25   18      0.48      0.60
    6   25   18      1.18      0.48
    7   25   18     -0.06      0.14
    8   25   18     -0.07      0.95
    9   25   18      0.15     -1.40
   10   25   18      0.37      0.80
   11   25   18     -0.36      0.08
   12   25   18      0.16     -0.43
   13   25   18      0.66      0.51
   14   25   18     -0.11      0.05
   15   25   18     -0.21      0.02
   16   25   18      0.20     -0.36
   17   25   18      0.59     -0.16
   18   25   18     -0.74      0.33
   19   25   18      0.45      0.33
    0   26   18      1.34     -0.20
    1   26   18     -0.51      1.35
    2   26   18      0.94     -0.61
    3   26   18      0.06     -0.07
    4   26   18     -1.05      0.65
    5   26   18      1.11      0.84
    6   26   18     -0.28      0.43
    7   26   18      0.28      0.75
    8   26   18     -0.56      0.45
    9   26   18      0.10     -1.05
   10   26   18      0.82     -0.20
   11   26   18     -0.12      0.12
   12   26   18      0.53     -0.46
   13   26   18     -0.33      0.32
   14   26   18      0.05     -0.44
   15   26   18      0.32     -0.59
   16   26   18     -0.13      0.39
   17   26   18      0.38      0.55
   18   26   18      0.22      0.05
    0   27   18     -0.33      0.03
    1   27   18      0.63     -0.14
    2   27   18      0.03     -1.49
    3   27   18      1.06      0.60
    4   27   18      0.62     -0.90
    5   27   18     -1.39      0.87
    6   27   18     -1.05      0.34
    7   27   18      0.71     -0.14
    8   27   18      0.91      0.57
    9   27   18     -0.38     -0.30
   10   27   18     -0.62      0.97
   11   27   18      0.00      0.43
   12   27   18     -0.11     -0.20
   13   27   18      0.13     -0.23
   14   27   18      0.23     -0.06
   15   27   18      0.00      0.18
   16   27   18     -0.69     -0.51
   17   27   18      0.22      0.44
    0   28   18      2.10      0.09
    1   28   18     -1.22      0.73
    2   28   18     -1.56     -0.26
    3   28   18      0.67     -0.33
    4   28   18      1.05     -0.40
    5   28   18      0.29      0.27
    6   28   18     -0.70     -0.62
    7   28   18      0.19     -0.37
    8   28   18     -0.50      0.67
    9   28   18     -0.08     -0.42
   10   28   18      0.68     -0.94
   11   28   18     -0.08      0.21
   12   28   18      0.15      0.33
   13   28   18     -0.03      0.06
   14   28   18      0.14     -0.14
   15   28   18      0.07      0.27
   16   28   18     -0.34     -0.32
    0   29   18      0.35      0.06
    1   29   18      0.30      0.03
    2   29   18     -0.42     -0.58
    3   29   18     -0.40     -0.16
    4   29   18     -0.80     -0.17
    5   29   18     -0.36      0.61
    6   29   18      0.77      0.11
    7   29   18     -0.16     -0.51
    8   29   18     -0.86      0.18
    9   29   18      0.34     -0.05
   10   29   18      0.28      0.15
   11   29   18     -0.15      0.63
   12   29   18     -0.20      0.70
   13   29   18      0.38      0.15
   14   29   18      0.36     -0.11
   15   29   18     -0.25     -0.23
   16   29   18     -0.15     -0.17
    0   30   18      0.07     -0.09
    1   30   18      0.50     -0.53
    2   30   18      0.41      0.25
    3   30   18      0.08      0.67
    4   30   18      0.43     -0.41
    5   30   18      0.24     -0.04
    6   30   18     -0.61      0.24
    7   30   18     -0.08      0.40
    8   30   18     -0.21      0.16
    9   30   18     -0.44      0.02
   10   30   18     -0.35      0.10
   11   30   18      0.56      0.13
   12   30   18      0.60      0.15
   13   30   18      0.01      0.06
   14   30   18     -0.19      0.03
   15   30   18      0.66     -0.03
    0   31   18      0.78      0.00
    1   31   18      0.03      0.27
    2   31   18     -0.51      1.02
    3   31   18     -0.07      0.64
    4   31   18     -0.05      0.06
    5   31   18     -0.21     -1.09
    6   31   18      0.13     -0.49
    7   31   18      0.04      0.16
    8   31   18      0.30      0.67
    9   31   18      0.49      0.61
   10   31   18     -0.36     -0.53
   11   31   18      0.02     -0.19
   12   31   18      0.22      0.17
   13   31   18      0.21      0.14
   14   31   18      0.77      0.08
    0   32   18     -0.87     -0.29
    1   32   18      0.17     -0.67
    2   32   18     -0.19      0.11
    3   32   18      0.46      0.04
    4   32   18      0.45     -0.40
    5   32   18     -0.64     -0.36
    6   32   18     -0.09     -0.49
    7   32   18      0.23     -0.13
    8   32   18      0.14     -0.15
    9   32   18      0.48     -0.04
   10   32   18     -0.15     -0.20
   11   32   18      0.24     -0.41
   12   32   18     -0.19      0.21
    0   33   18      0.03     -0.05
    1   33   18     -0.26     -0.30
    2   33   18     -0.14      0.97
    3   33   18     -0.42      0.04
    4   33   18      0.14      0.16
    5   33   18      0.61     -0.27
    6   33   18      0.20     -0.02
    7   33   18     -0.28      0.18
    8   33   18      0.03      0.11
    9   33   18      0.26      0.54
   10   33   18      0.07     -0.22
   11   33   18      0.51      0.72
    0   34   18     -0.72     -0.04
    1   34   18      0.82     -0.07
    2   34   18      0.14      0.13
    3   34   18     -0.22      0.02
    4   34   18      0.13      0.31
    5   34   18     -0.56     -0.03
    6   34   18     -0.05     -0.17
    7   34   18     -0.20      0.22
    8   34   18      0.29     -0.15
    9   34   18     -0.12     -0.01
   10   34   18     -0.89      0.24
   15    0   19     -0.35     -0.78
   16    0   19     -0.07     -0.31
   17    0   19      0.17      0.58
   18    0   19      0.06      0.79
   19    0   19      0.12     -0.65
   20    0   19      0.05      0.77
   21    0   19     -0.09     -0.40
   22    0   19      0.04     -0.35
   23    0   19      0.12     -0.37
   24    0   19     -0.05     -0.56
    0    1   19     -0.22      0.18
   15    1   19      1.26     -1.85
   16    1   19      0.47     -0.07
   17    1   19     -0.72      0.21
   18    1   19     -0.85      1.12
   19    1   19     -0.15     -0.17
   20    1   19      0.21      0.16
   21    1   19     -0.02      0.24
   22    1   19      0.69      0.15
   23    1   19      0.32     -0.36
   24    1   19     -0.18     -0.67
   15    2   19     -2.42     -0.31
   16    2   19      0.44      0.49
   17    2   19     -0.35      1.34
   18    2   19     -1.80      1.34
   19    2   19     -0.04     -0.36
   20    2   19      0.50      1.56
   21    2   19     -0.58      0.43
   22    2   19      0.39     -0.01
   23    2   19      0.19      0.37
   24    2   19     -0.44     -0.07
   15    3   19      0.81     -1.12
   16    3   19     -1.42      1.05
   17    3   19     -0.38     -0.15
   18    3   19     -0.78      0.61
   19    3   19     -1.18      0.63
   20    3   19      0.11     -0.20
   21    3   19     -0.54     -0.56
   22    3   19     -0.01     -0.04
   23    3   19     -0.31     -0.22
   24    3   19      0.02     -0.47
   15    4   19      1.25      1.58
   16    4   19     -0.49      0.90
   17    4   19     -0.11     -0.71
   18    4   19     -0.23      0.40
   19    4   19     -0.52     -0.52
   20    4   19      0.63      0.00
   21    4   19      0.14     -0.34
   22    4   19     -0.36      0.14
   23    4   19     -0.11     -0.03
   24    4   19      0.34     -0.24
   15    5   19      2.11     -0.72
   16    5   19     -0.20      0.03
   17    5   19     -0.38      0.69
   18    5   19     -0.31      1.07
   19    5   19     -0.17      0.21
   20    5   19      0.76     -0.03
   21    5   19      0.25      0.18
   22    5   19      0.70     -0.38
   23    5   19      0.07     -0.40
   24    5   19      0.18     -0.41
   14    6   19     -2.21     -1.19
   15    6   19      1.65      2.73
   16    6   19     -0.19      0.41
   17    6   19      0.67      0.20
   18    6   19     -0.41      1.11
   19    6   19     -0.80     -0.23
   20    6   19      0.20     -0.21
   21    6   19     -0.55      0.16
   22    6   19      0.20      0.44
   23    6   19      0.94     -0.23
   24    6   19     -0.38     -0.05
   14    7   19     -1.00      1.78
   15    7   19      0.24      0.07
   16    7   19      0.42      0.24
   17    7   19     -0.38     -1.30
   18    7   19     -1.15      0.17
   19    7   19      1.28      1.49
   20    7   19      1.47      0.37
   21    7   19     -0.49     -0.37
   22    7   19      0.13      0.04
   23    7   19     -0.51      0.90
   24    7   19     -1.05      0.52
   14    8   19     -0.10     -0.01
   15    8   19      0.39      1.32
   16    8   19     -2.16     -1.52
   17    8   19     -0.07     -0.03
   18    8   19      0.20     -0.34
   19    8   19     -0.67     -0.78
   20    8   19     -0.71     -0.46
   21    8   19     -0.32     -0.74
   22    8   19     -0.03     -0.11
   23    8   19     -0.44      0.20
   24    8   19     -0.44     -0.17
   14    9   19     -1.55      0.18
   15    9   19      0.60     -2.08
   16    9   19     -0.56      0.89
   17    9   19      0.46     -1.12
   18    9   19     -0.13     -0.58
   19    9   19      0.14      0.65
   20    9   19      0.47     -0.03
   21    9   19      0.30      0.05
   22    9   19     -0.72     -0.06
   23    9   19     -0.74     -0.41
   24    9   19      0.36     -0.10
   13   10   19     -0.46      1.56
   14   10   19      0.21     -0.07
   15   10   19     -1.13      0.28
   16   10   19     -1.41     -2.04
   17   10   19      1.32     -0.18
   18   10   19      0.12      0.05
   19   10   19      0.02      0.15
   20   10   19      0.85     -0.01
   21   10   19     -0.33     -0.62
   22   10   19     -0.38     -0.34
   23   10   19      0.89      0.26
   24   10   19     -0.20     -0.06
   13   11   19      1.27     -1.05
   14   11   19     -1.48      0.87
   15   11   19     -1.37     -0.28
   16   11   19     -0.54      1.40
   17   11   19      0.93     -0.03
   18   11   19     -0.61      0.93
   19   11   19      0.09      1.17
   20   11   19     -0.01     -0.47
   21   11   19      0.39     -0.45
   22   11   19      0.44      0.15
   23   11   19      0.19      0.36
   24   11   19     -0.23      0.56
   12   12   19     -0.66     -0.77
   13   12   19      0.37      0.78
   14   12   19      1.19     -0.52
   15   12   19     -0.33      0.74
   16   12   19      0.90     -0.01
   17   12   19      1.19      0.03
   18   12   19     -0.34      0.29
   19   12   19     -0.12      0.51
   20   12   19      0.43      0.16
   21   12   19      0.18      0.32
   22   12   19     -0.21      0.48
   23   12   19     -0.20      0.12
   12   13   19     -4.51      2.19
   13   13   19      4.41     -1.33
   14   13   19      0.79      0.43
   15   13   19      0.71      1.14
   16   13   19     -0.10      0.86
   17   13   19     -0.08      0.19
   18   13   19      0.11     -0.02
   19   13   19      0.37     -0.52
   20   13   19      0.00      0.21
   21   13   19      1.23      0.72
   22   13   19     -0.11     -0.17
   23   13   19     -0.94      0.12
   11   14   19     -0.32     -2.78
   12   14   19      1.17      1.94
   13   14   19      0.15      2.00
   14   14   19      0.73      0.38
   15   14   19      1.00      0.91
   16   14   19      1.39     -1.36
   17   14   19     -0.04     -1.44
   18   14   19     -0.45      1.21
   19   14   19     -0.24      0.00
   20   14   19      0.11     -0.78
   21   14   19      0.44      0.00
   22   14   19      0.33     -0.77
   23   14   19      0.27     -0.71
   11   15   19      1.75      0.61
   12   15   19     -1.16      1.65
   13   15   19      2.62     -2.14
   14   15   19     -0.11     -0.25
   15   15   19      0.75      0.45
   16   15   19      0.63     -0.68
   17   15   19     -0.29     -0.11
   18   15   19     -0.63     -0.30
   19   15   19     -0.31     -0.06
   20   15   19     -0.22      0.44
   21   15   19     -0.24      0.38
   22   15   19     -0.27      0.14
   10   16   19      0.86      0.14
   11   16   19     -0.84      1.11
   12   16   19     -0.17      0.91
   13   16   19     -0.32      0.84
   14   16   19     -0.47      0.99
   15   16   19     -0.82     -0.30
   16   16   19      0.42     -0.57
   17   16   19     -0.45     -0.18
   18   16   19     -0.28      0.00
   19   16   19      0.75     -1.04
   20   16   19      0.20      0.00
   21   16   19      0.03      0.07
   22   16   19      0.32      0.04
    9   17   19     -0.52     -0.73
   10   17   19     -0.07      0.75
   11   17   19      1.36      0.07
   12   17   19     -0.75     -0.01
   13   17   19     -0.27     -1.21
   14   17   19     -1.17      0.31
   15   17   19      0.54      0.93
   16   17   19      0.09      0.42
   17   17   19     -0.88      0.97
   18   17   19      0.32     -0.62
   19   17   19      0.34     -0.25
   20   17   19      0.50      0.38
   21   17   19     -0.01      0.33
   22   17   19     -0.81     -0.04
    8   18   19     -0.81      1.48
    9   18   19      1.64     -1.27
   10   18   19      0.21      0.41
   11   18   19     -0.54      0.17
   12   18   19     -0.17     -0.08
   13   18   19      0.23      0.27
   14   18   19     -0.48     -0.01
   15   18   19     -0.27     -0.67
   16   18   19      0.51      0.20
   17   18   19     -0.63     -0.19
   18   18   19     -0.52      0.25
   19   18   19      0.35      0.03
   20   18   19     -0.32      0.34
   21   18   19     -0.33     -0.55
    6   19   19      0.06     -0.56
    7   19   19      0.54      0.75
    8   19   19      0.05     -2.29
    9   19   19     -0.28     -1.27
   10   19   19      1.52     -1.09
   11   19   19      0.66     -0.69
   12   19   19     -0.13      0.35
   13   19   19      0.38     -0.23
   14   19   19      0.01      0.55
   15   19   19     -0.08      0.47
   16   19   19     -0.18     -0.45
   17   19   19     -0.31      0.64
   18   19   19     -0.13     -0.29
   19   19   19     -1.12      0.06
   20   19   19      0.45      0.22
   21   19   19      0.59      0.41
    5   20   19     -2.42      1.09
    6   20   19     -0.32     -1.36
    7   20   19     -0.71      0.07
    8   20   19      0.14     -0.99
    9   20   19      0.16     -1.60
   10   20   19     -0.90     -0.06
   11   20   19     -0.16     -0.37
   12   20   19     -0.22     -0.19
   13   20   19      0.57     -0.62
   14   20   19     -0.25     -0.43
   15   20   19      0.03      0.08
   16   20   19      0.23      0.44
   17   20   19     -0.51     -0.41
   18   20   19     -0.14      0.58
   19   20   19      0.14      0.25
   20   20   19     -0.10      0.47
    0   21   19     -1.29     -0.13
    1   21   19     -1.07      1.22
    2   21   19      0.04     -0.22
    3   21   19     -2.05      2.15
    4   21   19      1.49      1.17
    5   21   19      0.75      1.58
    6   21   19      3.37      1.73
    7   21   19      0.87     -0.47
    8   21   19     -1.06      0.59
    9   21   19      0.65      2.14
   10   21   19      1.76     -0.30
   11   21   19     -0.68      0.07
   12   21   19     -0.11      0.81
   13   21   19      0.16     -0.13
   14   21   19     -0.18      0.35
   15   21   19     -0.04      0.30
   16   21   19      0.24     -0.71
   17   21   19     -0.25      0.19
   18   21   19     -0.06     -0.34
   19   21   19     -0.38     -0.08
   20   21   19      0.28     -0.08
    0   22   19     -1.57     -0.66
    1   22   19      4.81      0.99
    2   22   19     -2.51      0.39
    3   22   19     -2.20      0.48
    4   22   19     -0.22     -0.84
    5   22   19      0.73      0.85
    6   22   19      0.81     -0.49
    7   22   19     -0.51     -0.13
    8   22   19     -0.64      0.20
    9   22   19      0.58      0.35
   10   22   19     -0.28      1.03
   11   22   19      0.71     -1.19
   12   22   19      0.26     -0.30
   13   22   19      0.11      0.70
   14   22   19      0.05      0.27
   15   22   19      0.34     -0.26
   16   22   19     -0.23      0.48
   17   22   19      0.02     -0.43
   18   22   19      0.73     -0.14
   19   22   19     -0.63     -0.06
    0   23   19     -0.98      0.36
    1   23   19     -0.29      0.65
    2   23   19      0.52     -2.16
    3   23   19     -0.27      0.40
    4   23   19      1.78     -0.37
    5   23   19      0.00     -0.43
    6   23   19      0.70     -0.23
    7   23   19     -1.01     -0.71
    8   23   19     -1.63      0.20
    9   23   19     -0.09     -0.24
   10   23   19      0.07     -0.72
   11   23   19     -0.05      0.62
   12   23   19      0.64     -0.24
   13   23   19     -0.38     -0.32
   14   23   19     -0.06      0.13
   15   23   19     -0.39     -0.59
   16   23   19     -0.23     -0.51
   17   23   19      0.67      1.17
   18   23   19     -0.23      0.01
   19   23   19     -0.98     -0.77
    0   24   19     -2.51     -0.06
    1   24   19      3.40     -0.65
    2   24   19     -0.97     -0.38
    3   24   19     -1.35      0.21
    4   24   19     -0.08      0.24
    5   24   19      1.05      0.16
    6   24   19     -0.05     -2.29
    7   24   19     -0.22     -1.14
    8   24   19     -0.24      1.74
    9   24   19     -0.05     -0.06
   10   24   19     -0.67     -0.29
   11   24   19     -0.16      0.21
   12   24   19     -0.27      0.01
   13   24   19     -0.04     -0.53
   14   24   19      0.27      0.49
   15   24   19     -0.46     -0.62
   16   24   19     -0.48     -0.53
   17   24   19      0.22      0.28
   18   24   19      0.69      0.60
    0   25   19     -1.32      0.25
    1   25   19     -0.31      0.75
    2   25   19     -0.30     -1.20
    3   25   19     -0.05      0.08
    4   25   19      0.17     -1.04
    5   25   19     -1.10     -0.17
    6   25   19      0.17     -0.07
    7   25   19      0.03     -0.78
    8   25   19     -0.41      0.00
    9   25   19      0.96     -0.61
   10   25   19      0.46     -0.28
   11   25   19      0.38      0.54
   12   25   19      0.79     -0.16
   13   25   19     -0.04      0.38
   14   25   19      0.53     -0.10
   15   25   19      0.35      0.03
   16   25   19      0.13      0.03
   17   25   19      0.45      0.07
   18   25   19     -0.33     -0.47
    0   26   19     -0.97     -0.08
    1   26   19      1.23      0.77
    2   26   19     -0.77      0.37
    3   26   19     -0.38      0.07
    4   26   19      0.55     -0.38
    5   26   19      0.90     -0.32
    6   26   19     -0.43      0.75
    7   26   19     -0.02      0.55
    8   26   19     -0.66      0.24
    9   26   19     -0.80      0.06
   10   26   19      0.45     -0.37
   11   26   19      0.12     -1.25
   12   26   19     -0.29     -0.41
   13   26   19     -0.39      0.17
   14   26   19      0.17      0.14
   15   26   19     -0.09     -0.32
   16   26   19      0.00      0.50
   17   26   19     -0.20     -0.36
    0   27   19     -1.17      0.13
    1   27   19      0.33     -0.02
    2   27   19      0.53     -0.76
    3   27   19      0.66      0.19
    4   27   19      0.01     -0.87
    5   27   19     -0.52     -0.08
    6   27   19      0.26      0.07
    7   27   19      0.40     -0.62
    8   27   19      0.22     -0.02
    9   27   19      0.51     -0.04
   10   27   19     -0.37      0.26
   11   27   19     -0.50      0.14
   12   27   19      0.06      0.57
   13   27   19     -0.13      0.93
   14   27   19      0.24     -1.21
   15   27   19     -0.13     -0.22
   16   27   19     -0.16     -0.08
    0   28   19      1.22     -0.06
    1   28   19      0.22     -0.35
    2   28   19      0.29     -0.32
    3   28   19      0.26      0.25
    4   28   19     -0.39     -0.01
    5   28   19      0.19     -0.78
    6   28   19     -0.57     -0.25
    7   28   19      0.50     -0.47
    8   28   19      0.45     -0.25
    9   28   19     -0.40      0.45
   10   28   19      0.26     -0.19
   11   28   19     -0.21     -0.24
   12   28   19      0.29      0.50
   13   28   19     -0.28      0.38
   14   28   19      0.26      0.19
   15   28   19      0.42     -0.03
    0   29   19     -0.84     -0.23
    1   29   19      0.01      0.11
    2   29   19      0.48     -0.03
    3   29   19      0.67     -0.12
    4   29   19      0.01     -0.55
    5   29   19     -0.44      0.25
    6   29   19      0.22      0.07
    7   29   19      0.29     -0.11
    8   29   19      0.31      0.64
    9   29   19      0.08      0.07
   10   29   19      0.07      0.30
   11   29   19     -0.24      0.15
   12   29   19     -0.24      0.12
   13   29   19      0.05      0.40
   14   29   19      0.85     -0.28
    0   30   19      0.83      0.07
    1   30   19     -1.03      0.05
    2   30   19      0.09     -0.12
    3   30   19     -0.06     -0.32
    4   30   19     -0.79      0.04
    5   30   19      0.54      0.31
    6   30   19     -0.59      0.15
    7   30   19      0.19     -0.07
    8   30   19      0.22      0.15
    9   30   19     -0.24     -0.05
   10   30   19      0.54     -0.31
   11   30   19     -0.17      0.27
   12   30   19      0.43     -0.47
   13   30   19     -0.31     -1.07
    0   31   19     -0.68      0.24
    1   31   19     -0.71      0.70
    2   31   19      0.21     -0.56
    3   31   19      0.10     -0.81
    4   31   19     -0.36     -0.26
    5   31   19     -0.31     -0.44
    6   31   19      0.09     -0.34
    7   31   19     -0.69     -0.28
    8   31   19     -0.09     -0.10
    9   31   19     -0.02     -0.27
   10   31   19      0.03      0.07
   11   31   19     -0.52     -0.63
   12   31   19     -0.13      0.16
    0   32   19      0.36      0.04
    1   32   19     -0.81     -0.20
    2   32   19      0.87      0.36
    3   32   19      0.52      0.40
    4   32   19     -1.06     -0.20
    5   32   19      0.42     -0.39
    6   32   19     -0.39      0.11
    7   32   19      0.25      0.45
    8   32   19      0.46      0.02
    9   32   19     -0.13     -0.07
   10   32   19     -0.28      0.17
   11   32   19     -0.57     -0.35
    0   33   19      0.20     -0.06
    1   33   19     -0.76     -0.21
    2   33   19      0.46      0.10
    3   33   19      0.67     -0.16
    4   33   19      0.03     -0.13
    5   33   19     -0.21     -0.18
    6   33   19      0.17      0.00
    7   33   19     -0.19     -0.54
    8   33   19      0.29      0.08
    9   33   19     -0.03      0.17
    0   34   19      0.88     -0.06
    1   34   19     -0.12      0.51
    2   34   19      0.51      0.51
    3   34   19      0.43     -0.16
    4   34   19     -0.62     -0.05
    5   34   19      0.51      0.36
    6   34   19     -0.10     -0.30
    7   34   19     -0.17     -0.23
   14    0   20      2.12      0.15
   15    0   20     -0.58      0.13
   16    0   20      0.32      0.11
   17    0   20      0.24      0.05
   18    0   20      0.12     -0.11
   19    0   20     -0.16     -0.10
   20    0   20      0.53      0.07
   21    0   20      0.35     -0.06
   22    0   20      0.24     -0.10
   23    0   20     -0.45      0.02
   24    0   20     -0.28      0.12
   14    1   20      0.88     -1.41
   15    1   20      1.29     -0.10
   16    1   20     -0.68      0.42
   17    1   20     -0.03     -0.30
   18    1   20     -0.86     -0.55
   19    1   20     -0.85     -0.14
   20    1   20     -0.96      0.09
   21    1   20      0.34      0.28
   22    1   20     -0.46     -0.23
   23    1   20      0.58      0.06
   24    1   20     -0.44     -0.20
   14    2   20     -2.11      1.27
   15    2   20     -0.47      0.26
   16    2   20      1.54      0.03
   17    2   20     -1.14      0.75
   18    2   20     -0.66      0.15
   19    2   20      0.11     -0.69
   20    2   20     -1.12      0.39
   21    2   20     -0.83      0.15
   22    2   20      0.66      0.50
   23    2   20     -0.99     -0.24
   24    2   20     -0.80     -0.04
   14    3   20      0.07      0.97
   15    3   20      0.73      0.67
   16    3   20     -0.32      0.79
   17    3   20      0.36     -0.07
   18    3   20      0.82      0.68
   19    3   20      0.64      0.63
   20    3   20     -1.10     -0.05
   21    3   20     -0.13      0.17
   22    3   20      0.47     -0.25
   23    3   20      0.60      0.44
   24    3   20     -0.25      0.23
   13    4   20      2.68     -0.96
   14    4   20      0.48      0.84
   15    4   20      0.88     -1.28
   16    4   20      1.08     -1.49
   17    4   20     -0.71      0.63
   18    4   20      0.97      0.17
   19    4   20      1.37     -0.73
   20    4   20     -0.17     -0.26
   21    4   20     -0.20     -0.74
   22    4   20      0.37      1.11
   23    4   20     -0.44      0.00
   24    4   20      0.53     -0.73
   13    5   20     -1.13      0.93
   14    5   20      0.83     -1.49
   15    5   20      0.32      0.41
   16    5   20      0.26      1.55
   17    5   20      0.46     -0.95
   18    5   20      0.37      0.24
   19    5   20     -0.12      1.05
   20    5   20      0.18      0.60
   21    5   20      0.83      0.05
   22    5   20     -0.19     -0.53
   23    5   20     -0.56      0.15
   24    5   20     -0.11      0.25
   13    6   20      1.91     -1.23
   14    6   20      0.09      0.27
   15    6   20     -0.46     -0.22
   16    6   20      1.07     -0.87
   17    6   20      0.71      0.00
   18    6   20      0.22     -1.14
   19    6   20      0.18     -0.58
   20    6   20     -0.40      0.42
   21    6   20     -0.45     -0.58
   22    6   20      0.28      0.11
   23    6   20     -0.49      0.50
   24    6   20      0.12      0.39
   13    7   20     -2.48      1.41
   14    7   20     -0.48     -0.06
   15    7   20     -1.36     -0.62
   16    7   20      0.48      0.92
   17    7   20      0.16     -1.04
   18    7   20     -0.07      0.02
   19    7   20     -0.21      1.13
   20    7   20     -0.56      0.17
   21    7   20     -0.49     -1.13
   22    7   20      0.19     -0.14
   23    7   20     -0.28     -0.04
   12    8   20     -1.82      0.31
   13    8   20     -0.28      0.97
   14    8   20      0.78      1.02
   15    8   20      0.05     -0.63
   16    8   20     -0.54     -1.57
   17    8   20      0.34      0.63
   18    8   20     -0.18     -0.57
   19    8   20     -0.34     -0.64
   20    8   20      0.05      0.17
   21    8   20     -0.37      0.22
   22    8   20      0.22     -0.11
   23    8   20      0.01     -0.16
   12    9   20      0.33     -1.53
   13    9   20      0.53     -0.03
   14    9   20     -0.14      0.20
   15    9   20     -0.35     -0.49
   16    9   20      0.50      0.63
   17    9   20     -0.82      0.55
   18    9   20      0.63      0.13
   19    9   20      0.84     -0.19
   20    9   20      0.07      0.68
   21    9   20      0.33     -0.26
   22    9   20      0.27      0.25
   23    9   20      0.18      0.48
   12   10   20      1.61      0.03
   13   10   20      0.30      0.48
   14   10   20      0.05     -0.33
   15   10   20      0.84     -0.25
   16   10   20     -1.11     -0.27
   17   10   20     -0.38      1.38
   18   10   20      0.84      0.12
   19   10   20      0.35     -0.12
   20   10   20      0.15      0.39
   21   10   20     -0.15      0.54
   22   10   20     -0.06      0.07
   23   10   20     -0.54      0.74
   11   11   20      0.94      2.60
   12   11   20      0.22      0.28
   13   11   20      0.17      1.07
   14   11   20      1.66     -0.46
   15   11   20      0.27     -0.88
   16   11   20      0.59     -0.44
   17   11   20      0.57      0.52
   18   11   20      0.38      1.00
   19   11   20      0.34     -0.34
   20   11   20     -0.10     -0.02
   21   11   20     -0.30      0.46
   22   11   20     -0.40      0.60
   23   11   20      0.20      0.34
   11   12   20      0.08      1.15
   12   12   20     -0.29      0.16
   13   12   20      0.68      1.78
   14   12   20      1.01      1.42
   15   12   20      1.19     -0.37
   16   12   20      0.44     -0.75
   17   12   20      0.38      0.86
   18   12   20      0.10      0.22
   19   12   20     -0.14     -0.15
   20   12   20      0.11     -0.03
   21   12   20     -0.58      0.04
   22   12   20      0.14     -0.37
   10   13   20     -2.15      0.10
   11   13   20      0.25     -1.60
   12   13   20     -0.05      0.69
   13   13   20     -0.30      0.43
   14   13   20      0.95     -0.94
   15   13   20      0.42      1.06
   16   13   20     -0.43      0.86
   17   13   20     -0.62     -0.27
   18   13   20     -0.60     -0.15
   19   13   20      0.63      0.03
   20   13   20     -0.10     -0.51
   21   13   20     -0.19     -0.95
   22   13   20      0.37      0.07
    9   14   20     -0.63      1.16
   10   14   20      1.10     -1.75
   11   14   20     -1.31      1.25
   12   14   20     -1.16     -0.62
   13   14   20     -0.45     -1.00
   14   14   20     -0.75     -0.24
   15   14   20      0.09      0.15
   16   14   20     -0.05     -0.10
   17   14   20     -0.71      0.43
   18   14   20     -0.09      0.30
   19   14   20     -0.10      0.00
   20   14   20      0.45     -0.29
   21   14   20      0.22     -0.46
   22   14   20     -0.08     -0.40
    8   15   20      1.50     -2.36
    9   15   20      0.81      1.22
   10   15   20      2.02      0.00
   11   15   20      1.07     -1.85
   12   15   20     -0.15      0.40
   13   15   20      0.39      0.09
   14   15   20      0.23     -0.30
   15   15   20      0.06      0.96
   16   15   20     -0.24      0.76
   17   15   20      0.42      0.70
   18   15   20     -0.33      0.15
   19   15   20      0.38      0.16
   20   15   20     -0.36      0.67
   21   15   20      0.10      0.08
   22   15   20      0.49      0.06
    7   16   20      0.33     -1.90
    8   16   20      1.25     -0.22
    9   16   20      0.88      1.25
   10   16   20     -1.25     -0.15
   11   16   20     -0.92      0.84
   12   16   20      0.64     -0.48
   13   16   20     -0.70     -0.26
   14   16   20     -0.83     -0.99
   15   16   20      0.19      0.00
   16   16   20     -0.07      0.43
   17   16   20     -0.50     -0.01
   18   16   20      0.18     -0.01
   19   16   20     -0.64      0.24
   20   16   20      0.03     -0.27
   21   16   20      0.10     -0.09
    6   17   20     -1.67     -2.00
    7   17   20     -0.74      3.95
    8   17   20     -0.71      1.46
    9   17   20     -1.04      0.79
   10   17   20     -0.09      1.36
   11   17   20      0.61      0.70
   12   17   20      0.38      0.48
   13   17   20      0.61      0.35
   14   17   20     -0.28      0.78
   15   17   20      0.56      0.43
   16   17   20     -0.02      0.03
   17   17   20      0.39      0.35
   18   17   20     -0.17     -0.07
   19   17   20     -0.10      0.06
   20   17   20     -0.94      0.30
   21   17   20     -0.51     -0.41
    4   18   20      2.14      0.20
    5   18   20     -0.63     -1.22
    6   18   20      1.51      0.31
    7   18   20     -1.01     -1.38
    8   18   20      0.56     -0.47
    9   18   20      0.63      1.62
   10   18   20     -1.40     -0.19
   11   18   20     -0.52      0.11
   12   18   20      0.01     -0.33
   13   18   20     -0.10      0.51
   14   18   20      1.11     -0.06
   15   18   20     -0.08      0.07
   16   18   20     -0.26     -0.39
   17   18   20      0.47     -0.04
   18   18   20      0.14     -0.13
   19   18   20     -0.83      0.02
   20   18   20      0.58     -0.10
    0   19   20      0.34      0.30
    1   19   20      0.97     -4.02
    2   19   20     -1.50     -0.71
    3   19   20     -1.82     -1.70
    4   19   20     -0.05      1.17
    5   19   20      0.20      0.77
    6   19   20      0.78     -0.53
    7   19   20      1.28      3.71
    8   19   20      0.67     -1.45
    9   19   20     -0.21     -0.65
   10   19   20      0.28      0.20
   11   19   20      0.74     -0.29
   12   19   20     -0.42     -0.12
   13   19   20      0.14      0.70
   14   19   20     -0.38      0.49
   15   19   20      0.02     -0.40
   16   19   20     -0.19      0.36
   17   19   20      0.29      0.65
   18   19   20     -0.23     -0.38
   19   19   20     -0.23     -0.68
   20   19   20      0.11     -0.01
    0   20   20      1.07      0.00
    1   20   20     -0.24      0.12
    2   20   20     -0.52     -1.33
    3   20   20     -0.91     -0.80
    4   20   20      0.82      1.09
    5   20   20     -1.91     -0.66
    6   20   20      2.49      1.12
    7   20   20     -0.63      0.06
    8   20   20     -0.55     -1.08
    9   20   20      0.67      0.17
   10   20   20      0.40      0.18
   11   20   20      0.04     -0.19
   12   20   20     -1.22     -0.84
   13   20   20     -0.20      0.56
   14   20   20      0.92      0.14
   15   20   20     -0.55     -0.44
   16   20   20      0.43     -0.69
   17   20   20      0.62      0.52
   18   20   20     -0.22     -0.09
   19   20   20     -0.16      0.16
    0   21   20     -3.69      0.70
    1   21   20     -0.71     -3.47
    2   21   20      0.04      1.83
    3   21   20     -0.74      0.07
    4   21   20      0.61     -0.13
    5   21   20      0.15      0.18
    6   21   20      0.08     -0.18
    7   21   20      0.77      0.65
    8   21   20     -0.61     -1.95
    9   21   20     -0.94      0.98
   10   21   20      0.38     -0.13
   11   21   20      1.18     -0.08
   12   21   20      0.17     -0.01
   13   21   20      0.03     -0.40
   14   21   20     -0.51     -0.01
   15   21   20     -0.04     -0.20
   16   21   20      0.34     -0.33
   17   21   20     -0.03     -0.25
   18   21   20     -0.08      0.37
   19   21   20     -0.46     -0.13
    0   22   20      2.51     -0.20
    1   22   20     -0.26     -1.81
    2   22   20     -3.46     -0.44
    3   22   20     -1.83      0.73
    4   22   20      1.19      0.64
    5   22   20     -1.65     -0.51
    6   22   20      0.45      2.15
    7   22   20     -0.72      1.25
    8   22   20      0.57     -0.56
    9   22   20     -0.32      0.40
   10   22   20     -1.45      0.19
   11   22   20     -0.03     -0.73
   12   22   20     -1.06     -0.48
   13   22   20     -0.73     -0.03
   14   22   20      0.03     -0.31
   15   22   20     -0.28      0.09
   16   22   20      0.32     -0.50
   17   22   20     -0.49      0.13
   18   22   20     -0.48      0.07
    0   23   20      0.64      0.08
    1   23   20     -0.01      1.01
    2   23   20     -0.55      2.11
    3   23   20     -0.26     -2.58
    4   23   20      0.00     -0.43
    5   23   20     -0.89      0.74
    6   23   20      0.16     -0.29
    7   23   20      0.85     -0.65
    8   23   20     -0.02     -0.76
    9   23   20      0.66      1.24
   10   23   20      0.55     -0.17
   11   23   20     -0.23      0.57
   12   23   20      0.11     -0.31
   13   23   20      0.17     -0.12
   14   23   20     -0.12      1.02
   15   23   20      0.01     -0.15
   16   23   20      0.28      0.02
   17   23   20     -0.67      0.21
   18   23   20      0.21     -0.28
    0   24   20      0.46     -0.19
    1   24   20      0.39     -0.25
    2   24   20     -0.63      0.78
    3   24   20     -0.49     -0.74
    4   24   20     -0.10     -1.59
    5   24   20     -0.87     -0.93
    6   24   20      0.42      0.85
    7   24   20     -0.97      0.50
    8   24   20      0.65     -0.36
    9   24   20      0.50      0.05
   10   24   20     -0.43      0.38
   11   24   20      0.91     -0.20
   12   24   20     -0.37     -0.20
   13   24   20      0.40      0.06
   14   24   20      0.69      0.63
   15   24   20     -0.29      0.17
   16   24   20      0.39     -0.43
   17   24   20      0.02      0.39
    0   25   20      0.75      0.00
    1   25   20      0.39     -0.34
    2   25   20      1.22      1.38
    3   25   20      0.11     -0.20
    4   25   20     -0.67      0.61
    5   25   20     -0.52     -0.72
    6   25   20      0.02      0.36
    7   25   20      0.53      0.73
    8   25   20      0.96      0.09
    9   25   20      0.56      0.24
   10   25   20     -0.39     -0.76
   11   25   20     -0.31      0.07
   12   25   20      0.24     -0.52
   13   25   20     -0.60      0.35
   14   25   20      0.07      1.20
   15   25   20     -0.07     -0.28
   16   25   20     -0.11     -0.37
    0   26   20     -1.11      0.02
    1   26   20     -0.79     -0.44
    2   26   20      0.05     -0.20
    3   26   20      0.78     -0.35
    4   26   20      0.36      0.60
    5   26   20      0.14      1.00
    6   26   20      0.26      0.19
    7   26   20     -0.33     -0.59
    8   26   20      0.33      0.03
    9   26   20     -0.45      0.62
   10   26   20     -0.32      0.01
   11   26   20      0.85     -0.75
   12   26   20     -1.05     -0.26
   13   26   20     -0.91     -0.56
   14   26   20     -0.26      0.17
   15   26   20     -0.26      0.27
   16   26   20      0.43     -0.37
    0   27   20     -0.92      0.17
    1   27   20     -1.27     -1.00
    2   27   20      0.00     -0.32
    3   27   20     -0.33     -0.09
    4   27   20     -0.07      0.71
    5   27   20     -0.08     -0.85
    6   27   20     -0.49      0.04
    7   27   20      0.24     -0.52
    8   27   20      0.51     -0.74
    9   27   20     -0.06      0.69
   10   27   20      0.19      0.13
   11   27   20     -0.08     -0.16
   12   27   20     -0.14      0.14
   13   27   20     -0.13      0.03
   14   27   20      0.16     -0.89
   15   27   20     -0.40     -0.09
    0   28   20      0.43     -0.01
    1   28   20     -0.74     -0.51
    2   28   20     -0.12     -0.71
    3   28   20      0.44     -0.12
    4   28   20      0.31      0.62
    5   28   20      1.00      0.21
    6   28   20     -0.03     -0.21
    7   28   20     -0.53     -0.33
    8   28   20      0.18      0.01
    9   28   20     -0.17      0.32
   10   28   20      0.03      0.14
   11   28   20      0.01     -0.18
   12   28   20     -0.08      0.07
   13   28   20      0.52     -0.14
   14   28   20      0.49     -0.22
    0   29   20      0.15     -0.09
    1   29   20     -0.24     -0.03
    2   29   20      0.27      0.45
    3   29   20     -0.12     -0.12
    4   29   20     -0.18     -0.11
    5   29   20     -0.11     -0.16
    6   29   20     -0.20     -0.04
    7   29   20      0.11     -0.34
    8   29   20     -0.20     -0.07
    9   29   20     -0.48     -0.17
   10   29   20      0.28     -0.49
   11   29   20      0.25     -0.52
   12   29   20     -0.15     -0.26
   13   29   20     -0.38      0.17
    0   30   20      1.10      0.29
    1   30   20     -1.15      0.22
    2   30   20     -0.30      0.47
    3   30   20      0.24      0.60
    4   30   20     -0.73      0.22
    5   30   20      0.10      0.03
    6   30   20      0.37     -0.13
    7   30   20      0.58     -0.17
    8   30   20     -0.19      0.42
    9   30   20     -0.79     -0.04
   10   30   20      0.41     -0.49
   11   30   20     -0.12      0.29
   12   30   20      0.05     -0.23
    0   31   20     -0.13     -0.02
    1   31   20     -0.28     -0.33
    2   31   20      0.07     -0.62
    3   31   20      0.07     -0.05
    4   31   20      0.19      0.23
    5   31   20      0.25      0.10
    6   31   20      0.09     -0.16
    7   31   20      0.16      0.01
    8   31   20      0.07     -0.01
    9   31   20      0.15     -0.32
   10   31   20      0.25      0.56
    0   32   20      0.31      0.11
    1   32   20     -0.29     -0.27
    2   32   20      1.11     -0.33
    3   32   20     -0.22     -0.01
    4   32   20     -0.74     -0.15
    5   32   20      0.83      0.09
    6   32   20     -0.14      0.41
    7   32   20     -0.12      0.12
    8   32   20     -0.14      0.12
    9   32   20     -0.29     -0.01
    0   33   20      0.72     -0.02
    1   33   20      0.28     -0.41
    2   33   20     -0.07      0.00
    3   33   20     -0.13      0.40
    4   33   20      0.09     -0.54
    5   33   20      0.40      0.12
    6   33   20     -0.20      0.28
    7   33   20     -0.46     -0.31
    0   34   20      0.04      0.06
    1   34   20     -0.59      0.58
    2   34   20      0.47     -0.10
    3   34   20      0.13     -0.08
    4   34   20     -0.46      0.44
   12    0   21     -0.01     -0.27
   13    0   21      0.19     -0.56
   14    0   21     -0.06     -0.76
   15    0   21     -0.03     -1.45
   16    0   21     -0.05     -0.56
   17    0   21     -0.40      0.40
   18    0   21     -0.11      0.24
   19    0   21      0.03     -0.69
   20    0   21      0.00     -0.34
   21    0   21     -0.03      0.11
   22    0   21     -0.10     -0.20
   23    0   21      0.10     -0.13
   12    1   21      0.08     -0.98
   13    1   21     -0.22     -1.54
   14    1   21     -0.48      2.91
   15    1   21     -0.42     -0.46
   16    1   21     -0.03     -0.60
   17    1   21      0.59      0.48
   18    1   21     -0.53     -0.74
   19    1   21     -1.08     -0.35
   20    1   21     -0.38      0.48
   21    1   21      0.01     -0.20
   22    1   21     -0.16      0.62
   23    1   21      0.03      0.09
   12    2   21      1.74      0.85
   13    2   21     -2.53     -0.09
   14    2   21     -0.71     -0.09
   15    2   21      1.26     -0.46
   16    2   21      0.25     -0.65
   17    2   21      0.32     -0.46
   18    2   21      0.59      0.29
   19    2   21      0.13      0.11
   20    2   21     -0.01      0.28
   21    2   21      0.96      0.61
   22    2   21      0.00     -0.15
   23    2   21     -0.26      0.03
   12    3   21      0.98      2.17
   13    3   21      0.49     -2.57
   14    3   21     -1.39      1.00
   15    3   21     -0.09      1.45
   16    3   21      0.18      0.54
   17    3   21      0.36     -0.43
   18    3   21      0.74     -0.55
   19    3   21      0.89     -0.09
   20    3   21      0.49      0.46
   21    3   21      0.40     -0.46
   22    3   21     -0.41      0.53
   23    3   21      0.21      0.37
   12    4   21      0.04      0.25
   13    4   21      1.27      0.16
   14    4   21      0.17     -0.19
   15    4   21      0.51     -0.31
   16    4   21      0.53     -0.16
   17    4   21     -0.96     -0.68
   18    4   21     -0.83      0.17
   19    4   21      1.05      0.26
   20    4   21      0.35     -0.99
   21    4   21     -0.10     -0.13
   22    4   21     -0.39     -0.41
   23    4   21      0.13     -0.56
   11    5   21      0.27     -0.54
   12    5   21     -1.65      1.52
   13    5   21      0.15     -1.71
   14    5   21     -0.60      0.37
   15    5   21     -0.13     -0.06
   16    5   21     -0.05     -0.97
   17    5   21      0.60     -0.42
   18    5   21      0.68     -0.07
   19    5   21      0.27     -0.47
   20    5   21     -0.21      0.52
   21    5   21      0.08     -0.68
   22    5   21     -0.89     -0.14
   23    5   21      0.19     -0.13
   11    6   21      0.02     -0.50
   12    6   21     -0.66      0.02
   13    6   21      0.85     -0.30
   14    6   21      0.25      1.08
   15    6   21     -0.03      0.73
   16    6   21      0.26      0.22
   17    6   21     -0.39     -0.90
   18    6   21     -0.19     -0.45
   19    6   21     -0.40      1.03
   20    6   21     -1.16      0.24
   21    6   21      0.23     -0.27
   22    6   21      0.28     -0.38
   23    6   21     -0.44      0.55
   11    7   21     -2.08      0.77
   12    7   21     -1.19      1.04
   13    7   21      0.90     -1.82
   14    7   21     -0.04     -0.81
   15    7   21     -0.26      0.07
   16    7   21     -0.24     -0.50
   17    7   21      0.11     -0.14
   18    7   21     -0.22     -0.34
   19    7   21     -0.52     -0.82
   20    7   21     -0.65      0.37
   21    7   21      0.23     -0.19
   22    7   21      0.11      0.29
   23    7   21      0.33     -0.26
   11    8   21      0.87      0.05
   12    8   21     -1.10     -0.30
   13    8   21     -0.40     -0.70
   14    8   21     -0.41      0.10
   15    8   21     -0.40     -0.21
   16    8   21      0.51      0.05
   17    8   21      0.10     -0.18
   18    8   21      0.45      0.32
   19    8   21      0.56      0.19
   20    8   21      0.00      0.08
   21    8   21     -0.46      1.07
   22    8   21     -0.20     -0.23
   10    9   21      0.98      1.74
   11    9   21     -0.58      0.01
   12    9   21      1.15      0.93
   13    9   21      0.65      0.35
   14    9   21      0.09     -0.27
   15    9   21      0.47      0.21
   16    9   21      0.37     -0.58
   17    9   21      0.20      0.75
   18    9   21      0.35      0.30
   19    9   21      0.47     -0.70
   20    9   21     -0.05      0.07
   21    9   21     -0.62     -0.45
   22    9   21     -0.61     -0.15
   10   10   21      1.04     -0.32
   11   10   21     -0.29      0.30
   12   10   21      0.16      1.00
   13   10   21      0.85     -0.43
   14   10   21      0.18     -0.77
   15   10   21     -0.36     -0.41
   16   10   21     -0.19      0.52
   17   10   21     -0.12      0.15
   18   10   21      0.47      0.11
   19   10   21     -0.26      0.13
   20   10   21     -0.01      0.38
   21   10   21      0.52      0.66
   22   10   21      0.27      0.04
    9   11   21     -0.19     -1.85
   10   11   21     -0.60      0.47
   11   11   21     -1.35      0.75
   12   11   21      0.96     -0.23
   13   11   21      0.20      1.63
   14   11   21      0.46      0.35
   15   11   21      0.04      0.17
   16   11   21     -0.10     -0.20
   17   11   21      0.08      0.15
   18   11   21      0.33     -0.57
   19   11   21     -0.09     -0.16
   20   11   21     -0.20      0.58
   21   11   21     -0.23     -0.11
   22   11   21     -0.17      0.04
    8   12   21      0.01     -2.32
    9   12   21     -0.29     -0.06
   10   12   21     -1.26     -0.52
   11   12   21     -1.13     -0.70
   12   12   21     -1.02      1.10
   13   12   21     -0.82      0.84
   14   12   21      0.05     -1.38
   15   12   21     -0.32     -1.13
   16   12   21     -0.60      0.42
   17   12   21     -0.11      0.18
   18   12   21     -0.06     -0.14
   19   12   21     -0.43     -0.53
   20   12   21      0.23     -0.56
   21   12   21     -0.29      0.23
    7   13   21      0.27      2.04
    8   13   21      1.10      0.86
    9   13   21      0.42     -0.43
   10   13   21      0.82      2.05
   11   13   21      1.69      0.02
   12   13   21      0.07     -1.57
   13   13   21     -1.22      1.56
   14   13   21      1.63     -0.39
   15   13   21      0.02      0.27
   16   13   21     -0.30      0.17
   17   13   21      0.29     -0.81
   18   13   21     -0.35      0.13
   19   13   21     -0.13      0.34
   20   13   21      0.49     -0.18
   21   13   21     -0.51     -0.06
    6   14   21     -0.65     -0.94
    7   14   21      2.99      0.52
    8   14   21     -0.63      1.18
    9   14   21      0.31      0.28
   10   14   21     -0.39     -0.68
   11   14   21     -0.89     -0.15
   12   14   21      0.53     -0.31
   13   14   21      0.61     -0.08
   14   14   21      0.14     -0.05
   15   14   21      0.59     -0.06
   16   14   21      0.19      0.56
   17   14   21     -0.81      0.51
   18   14   21     -0.52     -0.63
   19   14   21     -0.44     -0.06
   20   14   21     -0.10      0.29
   21   14   21      0.10     -0.42
    5   15   21     -0.89     -0.06
    6   15   21     -0.16      0.51
    7   15   21      0.97     -0.41
    8   15   21     -0.07      1.48
    9   15   21      0.36     -0.19
   10   15   21     -0.22      0.22
   11   15   21     -0.41      0.84
   12   15   21      0.53     -0.59
   13   15   21      0.16      0.87
   14   15   21     -0.07     -0.37
   15   15   21     -1.11     -0.44
   16   15   21      0.45     -0.40
   17   15   21      0.26     -0.13
   18   15   21     -0.48      1.05
   19   15   21     -0.05     -0.17
   20   15   21     -0.61     -0.24
   21   15   21     -0.37      0.36
    3   16   21     -0.76     -1.43
    4   16   21      5.38     -0.55
    5   16   21      1.28      0.73
    6   16   21     -2.46      0.72
    7   16   21      2.26     -1.23
    8   16   21     -1.14      1.10
    9   16   21     -1.29      1.41
   10   16   21      0.01      0.09
   11   16   21      0.10     -0.22
   12   16   21      0.19     -0.43
   13   16   21      0.02     -0.36
   14   16   21      0.13     -0.41
   15   16   21      0.80     -0.31
   16   16   21      0.53      0.35
   17   16   21     -0.69      1.07
   18   16   21     -0.01      0.17
   19   16   21      0.02     -0.11
   20   16   21     -0.72     -0.05
    0   17   21      1.18      1.42
    1   17   21     -0.88      0.65
    2   17   21     -1.96     -0.05
    3   17   21      0.64     -0.75
    4   17   21      0.65      0.10
    5   17   21     -0.06      0.14
    6   17   21     -0.71     -0.35
    7   17   21      0.36      0.52
    8   17   21      0.30      1.79
    9   17   21     -0.35     -0.75
   10   17   21     -0.40     -0.23
   11   17   21      0.59      0.99
   12   17   21     -0.22     -0.71
   13   17   21     -0.61      0.18
   14   17   21      0.46     -0.70
   15   17   21     -0.37     -1.07
   16   17   21     -0.28     -0.11
   17   17   21     -0.09      0.32
   18   17   21      0.08      0.61
   19   17   21      0.65     -1.15
   20   17   21     -0.20     -0.46
    0   18   21     -1.08      0.23
    1   18   21     -0.26     -0.34
    2   18   21     -1.20      0.27
    3   18   21     -1.22     -0.99
    4   18   21     -0.45      1.48
    5   18   21     -0.93      1.18
    6   18   21     -2.68      0.26
    7   18   21      1.42     -1.48
    8   18   21      0.32      0.51
    9   18   21     -0.94     -0.36
   10   18   21      0.26     -1.00
   11   18   21      0.75      0.49
   12   18   21     -0.09     -0.35
   13   18   21     -0.52     -1.24
   14   18   21      0.12     -0.03
   15   18   21     -0.34      0.25
   16   18   21     -0.12     -0.45
   17   18   21      0.26      0.22
   18   18   21      0.30     -0.17
   19   18   21     -0.08     -0.40
    0   19   21     -1.19      0.13
    1   19   21     -1.64      0.72
    2   19   21     -0.89      1.43
    3   19   21      0.86     -1.14
    4   19   21     -0.38     -0.42
    5   19   21      1.47      1.23
    6   19   21     -0.41     -0.45
    7   19   21     -1.23      0.02
    8   19   21      0.14      1.16
    9   19   21      0.67      0.07
   10   19   21      0.11      0.68
   11   19   21      0.50      0.74
   12   19   21      0.23     -1.25
   13   19   21      0.33     -0.02
   14   19   21      0.28      0.73
   15   19   21      0.02     -0.04
   16   19   21      0.46     -0.79
   17   19   21     -0.03     -1.02
   18   19   21     -0.23      0.18
   19   19   21      0.73      0.06
    0   20   21      0.58      0.18
    1   20   21     -2.08     -0.85
    2   20   21     -1.04      0.29
    3   20   21     -0.90     -0.65
    4   20   21     -0.71      0.18
    5   20   21     -0.47     -0.29
    6   20   21     -1.05      0.12
    7   20   21      0.44     -0.66
    8   20   21      0.16      0.56
    9   20   21     -0.74      0.17
   10   20   21      0.12     -0.76
   11   20   21     -0.06      0.75
   12   20   21     -0.33      0.22
   13   20   21     -0.11     -0.16
   14   20   21      0.26      0.74
   15   20   21     -0.39      0.65
   16   20   21     -0.33     -0.03
   17   20   21      0.09     -0.02
   18   20   21      0.24     -0.13
    0   21   21      1.79     -0.16
    1   21   21      0.29      0.18
    2   21   21     -0.54      1.94
    3   21   21      0.59     -0.05
    4   21   21     -1.35     -0.08
    5   21   21      0.69      0.42
    6   21   21      0.21     -0.12
    7   21   21     -0.35      0.39
    8   21   21     -0.49     -0.63
    9   21   21     -0.50      0.20
   10   21   21      0.07      1.44
   11   21   21     -0.38      0.38
   12   21   21     -0.68     -0.32
   13   21   21      0.35     -0.31
   14   21   21     -0.19     -0.60
   15   21   21     -0.79      0.51
   16   21   21     -0.03      0.88
   17   21   21      0.14     -0.10
   18   21   21      0.23      0.10
    0   22   21      2.30     -0.02
    1   22   21     -2.23      0.41
    2   22   21     -0.63      0.11
    3   22   21      0.11     -0.60
    4   22   21      0.39      0.01
    5   22   21      0.09      0.13
    6   22   21      0.71      1.12
    7   22   21      0.85      0.13
    8   22   21     -0.30     -0.40
    9   22   21     -0.77      0.55
   10   22   21      1.10     -0.34
   11   22   21      0.45      0.14
   12   22   21     -0.44     -0.13
   13   22   21      0.26     -0.37
   14   22   21      0.24      0.11
   15   22   21      0.22      0.66
   16   22   21      0.32      0.19
   17   22   21     -0.22     -0.25
    0   23   21      0.90      0.06
    1   23   21     -0.10     -0.52
    2   23   21     -0.35      0.46
    3   23   21      0.32     -0.64
    4   23   21      0.12      0.92
    5   23   21      1.50      0.81
    6   23   21     -0.62     -1.07
    7   23   21     -0.44     -0.29
    8   23   21      1.08     -0.08
    9   23   21     -0.16      1.07
   10   23   21     -0.06      0.48
   11   23   21     -0.18     -0.18
   12   23   21     -0.42      0.79
   13   23   21      0.26      0.00
   14   23   21      0.25     -0.39
   15   23   21      0.07      0.48
   16   23   21      0.32     -0.24
   17   23   21      0.35     -0.88
    0   24   21      0.23      0.18
    1   24   21     -0.86     -0.34
    2   24   21      2.34     -0.12
    3   24   21      0.24      0.43
    4   24   21     -0.52      0.32
    5   24   21      0.18     -0.33
    6   24   21      0.61     -0.06
    7   24   21      0.06      0.05
    8   24   21      0.63     -0.15
    9   24   21     -0.03      0.50
   10   24   21     -0.66     -0.07
   11   24   21     -0.24      0.39
   12   24   21      0.06      0.29
   13   24   21      0.20     -0.02
   14   24   21     -0.14     -0.19
   15   24   21      0.36      0.00
   16   24   21     -0.23      0.07
    0   25   21      0.32      0.05
    1   25   21     -0.50     -1.14
    2   25   21      0.10     -0.04
    3   25   21      0.05     -0.49
    4   25   21     -0.66      0.42
    5   25   21      0.38      0.46
    6   25   21     -0.48      0.65
    7   25   21     -0.40      1.52
    8   25   21      0.81     -0.66
    9   25   21     -0.23     -0.26
   10   25   21     -0.04      0.18
   11   25   21      0.19     -0.47
   12   25   21     -0.35     -0.15
   13   25   21     -0.68      0.15
   14   25   21     -0.18      0.44
   15   25   21     -0.10     -0.01
    0   26   21     -0.44      0.16
    1   26   21     -1.15     -0.37
    2   26   21     -0.16      0.48
    3   26   21     -0.66      0.50
    4   26   21      0.11     -0.27
    5   26   21      0.04     -0.13
    6   26   21      0.15      0.18
    7   26   21     -0.46      0.23
    8   26   21      0.11     -0.01
    9   26   21      0.18     -0.09
   10   26   21     -0.30     -0.23
   11   26   21      0.47     -0.07
   12   26   21      0.04     -0.07
   13   26   21     -0.02      0.34
   14   26   21     -0.30      0.33
    0   27   21      1.01      0.09
    1   27   21      0.15     -0.05
    2   27   21      0.12      0.54
    3   27   21     -0.18     -0.16
    4   27   21     -0.67      0.21
    5   27   21     -0.07      0.08
    6   27   21     -0.39      0.04
    7   27   21     -0.45      0.54
    8   27   21     -0.05     -0.52
    9   27   21     -0.04     -0.07
   10   27   21      0.04     -0.23
   11   27   21      0.16     -0.33
   12   27   21      0.00      0.07
   13   27   21     -0.46     -0.22
    0   28   21     -0.55      0.19
    1   28   21     -0.46     -0.56
    2   28   21     -0.55      0.16
    3   28   21      0.20      0.66
    4   28   21      0.71      0.50
    5   28   21     -0.60     -0.13
    6   28   21      0.47     -0.50
    7   28   21      0.08     -0.23
    8   28   21     -0.33     -0.17
    9   28   21      0.21      0.24
   10   28   21     -0.07      0.69
   11   28   21     -0.01     -0.07
   12   28   21     -0.55     -0.11
    0   29   21     -0.45      0.00
    1   29   21      0.00     -0.62
    2   29   21     -0.03      0.42
    3   29   21     -0.12      0.24
    4   29   21     -0.21     -0.32
    5   29   21      0.26      0.05
    6   29   21      0.18      0.69
    7   29   21      0.53      0.58
    8   29   21      0.22     -0.10
    9   29   21      0.63      0.08
   10   29   21      0.08      0.01
   11   29   21     -0.13      0.11
    0   30   21     -0.11      0.00
    1   30   21      0.43      0.32
    2   30   21     -0.12      0.29
    3   30   21      0.47     -0.05
    4   30   21      0.89     -0.18
    5   30   21     -0.61     -0.19
    6   30   21      0.46      0.27
    7   30   21     -0.11      0.49
    8   30   21     -0.18     -0.09
    9   30   21      0.49      0.16
   10   30   21     -0.15      0.43
    0   31   21     -0.38     -0.04
    1   31   21      0.43     -0.03
    2   31   21     -0.10      0.20
    3   31   21      0.33      0.44
    4   31   21      0.12      0.13
    5   31   21     -0.07      0.14
    6   31   21     -0.09      0.37
    7   31   21      0.40      0.40
    8   31   21     -0.33      0.45
    0   32   21     -0.83     -0.06
    1   32   21      0.34      0.17
    2   32   21     -0.01      0.28
    3   32   21     -0.78     -0.08
    4   32   21      0.37     -0.29
    5   32   21     -0.22      0.01
    6   32   21      0.34      0.15
    0   33   21     -0.64     -0.18
    1   33   21      0.20     -0.26
    2   33   21     -0.66     -0.22
    3   33   21      0.06      0.59
   10    0   22      1.94      0.19
   11    0   22      2.16     -0.39
   12    0   22     -1.84     -0.04
   13    0   22     -0.78      0.12
   14    0   22     -0.33     -0.38
   15    0   22     -0.97     -0.31
   16    0   22     -1.41     -0.09
   17    0   22     -1.10     -0.06
   18    0   22     -0.96      0.04
   19    0   22      0.19      0.14
   20    0   22      0.18     -0.10
   21    0   22      0.39     -0.12
   22    0   22      0.05     -0.05
   10    1   22      1.33      0.70
   11    1   22     -0.65      1.16
   12    1   22     -0.92      0.51
   13    1   22      1.35      0.79
   14    1   22     -1.57      1.13
   15    1   22      0.37      0.30
   16    1   22      0.47      0.59
   17    1   22      0.40      0.26
   18    1   22      0.59     -0.26
   19    1   22     -0.17      0.38
   20    1   22     -0.01      0.61
   21    1   22      0.04      0.04
   22    1   22      0.09      0.23
   10    2   22     -1.93      0.36
   11    2   22      2.64     -1.01
   12    2   22      0.15     -0.06
   13    2   22     -0.13      0.52
   14    2   22      0.42     -0.07
   15    2   22     -0.04      0.92
   16    2   22      0.32      0.03
   17    2   22      0.58     -0.23
   18    2   22     -0.85     -0.59
   19    2   22     -0.08      0.40
   20    2   22      0.72     -0.29
   21    2   22      0.45     -0.20
   22    2   22     -0.34     -0.20
   10    3   22      1.37     -0.26
   11    3   22      0.05      0.52
   12    3   22     -1.15     -0.51
   13    3   22      2.22     -0.77
   14    3   22     -0.19     -0.01
   15    3   22     -0.80     -0.58
   16    3   22     -0.94     -0.06
   17    3   22      0.46     -0.23
   18    3   22      0.01     -0.68
   19    3   22     -0.89     -0.21
   20    3   22      0.54     -0.17
   21    3   22      0.74     -0.17
   22    3   22     -0.28      0.37
    9    4   22      3.33     -0.71
   10    4   22     -2.26      2.19
   11    4   22      1.97     -0.08
   12    4   22     -0.22     -0.21
   13    4   22     -0.94      1.24
   14    4   22      0.71     -0.65
   15    4   22      0.38      0.18
   16    4   22     -0.19      0.73
   17    4   22     -0.52      0.52
   18    4   22     -0.90     -0.79
   19    4   22      0.15     -0.20
   20    4   22     -0.05     -0.64
   21    4   22     -0.31     -0.24
   22    4   22      0.29     -1.19
    9    5   22     -2.15      0.49
   10    5   22      0.44     -0.63
   11    5   22      0.07     -0.25
   12    5   22     -1.32     -1.33
   13    5   22      1.26     -1.38
   14    5   22      0.28      0.61
   15    5   22      0.81      0.30
   16    5   22     -0.52      0.10
   17    5   22     -0.57      0.46
   18    5   22      0.14     -0.03
   19    5   22     -0.08      0.17
   20    5   22     -0.14     -0.67
   21    5   22     -0.19     -0.47
   22    5   22     -0.15      0.97
    9    6   22      0.85     -0.05
   10    6   22     -1.57      1.20
   11    6   22      0.17     -0.45
   12    6   22     -0.61     -0.76
   13    6   22     -0.78     -0.11
   14    6   22     -0.23     -0.61
   15    6   22     -0.84      0.08
   16    6   22     -0.39     -0.47
   17    6   22     -0.18     -0.51
   18    6   22     -0.52      0.53
   19    6   22     -0.15      0.65
   20    6   22      0.04     -0.34
   21    6   22      0.29      0.43
   22    6   22     -0.14      0.08
    9    7   22      0.30      2.10
   10    7   22     -0.37     -0.74
   11    7   22     -1.08      0.22
   12    7   22     -1.20      0.06
   13    7   22      0.89     -1.12
   14    7   22     -0.76      0.37
   15    7   22     -0.15      0.11
   16    7   22     -0.13     -1.00
   17    7   22     -0.34      0.20
   18    7   22      0.21     -0.30
   19    7   22     -0.10     -0.67
   20    7   22      0.20     -0.28
   21    7   22      0.23      0.65
   22    7   22     -0.70      0.20
    8    8   22     -1.43      1.62
    9    8   22      0.05     -1.79
   10    8   22     -2.16      0.37
   11    8   22     -1.03      0.03
   12    8   22      0.44     -0.66
   13    8   22      0.58      0.26
   14    8   22      0.33      0.23
   15    8   22     -0.34      0.30
   16    8   22     -0.01      0.16
   17    8   22     -0.08     -0.61
   18    8   22      0.32      0.38
   19    8   22      0.58      0.41
   20    8   22     -0.10     -0.10
   21    8   22      0.33      0.02
    7    9   22      1.99     -1.01
    8    9   22     -0.67     -1.19
    9    9   22     -0.46     -1.03
   10    9   22      0.97     -1.10
   11    9   22      1.29      0.69
   12    9   22     -0.60      1.13
   13    9   22     -0.08     -0.29
   14    9   22     -0.20      0.18
   15    9   22      0.23      0.35
   16    9   22      0.38     -0.35
   17    9   22     -0.01     -0.10
   18    9   22      0.44     -0.24
   19    9   22     -0.19      0.24
   20    9   22      0.26      0.24
   21    9   22      0.26      0.45
    7   10   22     -0.33      0.33
    8   10   22     -0.16      0.82
    9   10   22     -0.04     -1.33
   10   10   22     -0.97      1.08
   11   10   22     -0.80      1.27
   12   10   22     -0.26     -0.38
   13   10   22      0.37     -0.18
   14   10   22      0.48     -0.09
   15   10   22     -1.03     -0.31
   16   10   22     -0.20     -0.23
   17   10   22      0.52      0.09
   18   10   22     -0.23      0.97
   19   10   22     -0.14      0.16
   20   10   22      0.01      0.11
   21   10   22      0.11     -0.14
    6   11   22     -0.46      1.70
    7   11   22      1.70      0.29
    8   11   22     -0.23     -0.95
    9   11   22     -0.09     -1.17
   10   11   22     -1.18     -1.49
   11   11   22     -0.49     -0.24
   12   11   22      0.01     -0.18
   13   11   22     -0.06     -0.01
   14   11   22     -0.38      0.38
   15   11   22     -0.07     -0.87
   16   11   22      0.18     -0.33
   17   11   22     -0.87      0.51
   18   11   22      0.16     -0.04
   19   11   22     -0.33     -0.07
   20   11   22      0.12      0.15
   21   11   22      0.28      0.13
    5   12   22     -2.84      1.30
    6   12   22      0.89     -1.77
    7   12   22      1.11     -0.10
    8   12   22      0.38     -0.56
    9   12   22     -1.47     -0.55
   10   12   22      0.34      0.57
   11   12   22      0.66     -0.70
   12   12   22     -0.51     -0.04
   13   12   22     -0.34      1.05
   14   12   22      0.20     -0.63
   15   12   22     -0.27      0.18
   16   12   22      0.56      0.74
   17   12   22      0.10     -0.40
   18   12   22     -0.64     -0.10
   19   12   22      0.27     -0.01
   20   12   22      0.05     -0.26
    3   13   22      0.18      1.24
    4   13   22     -0.62      0.92
    5   13   22     -0.39      0.08
    6   13   22      0.39      0.00
    7   13   22      1.03     -1.51
    8   13   22     -0.31     -0.46
    9   13   22      1.48     -0.92
   10   13   22      0.41     -1.65
   11   13   22     -0.45     -0.46
   12   13   22      0.32     -0.70
   13   13   22      0.50     -0.01
   14   13   22      0.00      0.33
   15   13   22     -0.47     -0.41
   16   13   22      0.05      0.37
   17   13   22     -0.94      0.14
   18   13   22      0.56      0.08
   19   13   22      0.04     -0.14
   20   13   22      0.00     -0.15
    0   14   22      1.79     -0.21
    1   14   22     -0.82     -0.78
    2   14   22     -1.10      0.33
    3   14   22      1.42      0.60
    4   14   22     -2.10     -1.02
    5   14   22     -0.15      0.47
    6   14   22      0.10      0.38
    7   14   22      0.15     -0.57
    8   14   22      1.51     -1.11
    9   14   22     -0.53     -0.49
   10   14   22     -0.36     -0.84
   11   14   22     -0.45     -1.13
   12   14   22     -0.87     -0.31
   13   14   22     -0.44     -0.72
   14   14   22      0.02     -0.84
   15   14   22     -0.67      1.10
   16   14   22     -0.14      0.45
   17   14   22      0.35      0.02
   18   14   22     -0.09      0.47
   19   14   22      0.22     -0.29
   20   14   22     -0.38     -0.20
    0   15   22      0.43      0.49
    1   15   22      0.21      4.35
    2   15   22     -0.09     -0.53
    3   15   22     -2.32      0.35
    4   15   22      0.51     -1.92
    5   15   22      0.36     -0.51
    6   15   22     -1.01      1.73
    7   15   22     -0.73     -0.74
    8   15   22     -0.19      0.20
    9   15   22      0.03     -0.08
   10   15   22     -0.58     -0.73
   11   15   22      0.84      0.73
   12   15   22      0.85     -0.18
   13   15   22     -1.40     -1.07
   14   15   22     -0.79     -0.45
   15   15   22     -0.04     -0.10
   16   15   22      0.57     -0.57
   17   15   22     -0.53     -0.56
   18   15   22     -0.11      0.71
   19   15   22     -0.71     -0.52
    0   16   22     -2.42      0.24
    1   16   22     -1.57     -0.23
    2   16   22      1.05     -0.37
    3   16   22      0.95     -0.48
    4   16   22     -3.28     -0.97
    5   16   22      0.94      0.79
    6   16   22     -0.08      0.30
    7   16   22     -0.30      0.58
    8   16   22      0.74     -0.04
    9   16   22     -0.63     -0.18
   10   16   22     -0.32      0.19
   11   16   22     -0.31      0.14
   12   16   22      0.52      0.25
   13   16   22      0.61      0.22
   14   16   22     -0.04      0.02
   15   16   22      0.06      0.03
   16   16   22      0.63      0.09
   17   16   22      0.63      0.26
   18   16   22     -0.24     -0.61
   19   16   22      0.13     -0.67
    0   17   22      1.53     -0.13
    1   17   22     -0.95      1.60
    2   17   22     -0.78     -1.00
    3   17   22     -1.65      0.44
    4   17   22      0.89     -1.15
    5   17   22      1.34     -0.62
    6   17   22     -0.04      2.30
    7   17   22     -0.59     -0.13
    8   17   22      0.42     -0.07
    9   17   22      0.03     -1.01
   10   17   22     -0.73     -1.20
   11   17   22     -0.07     -0.06
   12   17   22     -0.25      0.43
   13   17   22     -0.90     -0.14
   14   17   22      0.92     -0.72
   15   17   22      0.43      0.11
   16   17   22      0.04     -0.27
   17   17   22     -0.25     -0.79
   18   17   22      0.27      0.58
   19   17   22      0.16      0.10
    0   18   22      0.41     -0.24
    1   18   22     -0.64      0.36
    2   18   22     -0.02      0.03
    3   18   22      1.06     -0.42
    4   18   22     -1.30     -1.10
    5   18   22      1.14      0.06
    6   18   22     -0.21     -0.04
    7   18   22      0.28      1.10
    8   18   22     -0.84     -0.20
    9   18   22     -0.75     -0.79
   10   18   22      1.39     -0.07
   11   18   22     -0.33     -0.44
   12   18   22      0.03     -0.69
   13   18   22      0.49     -0.54
   14   18   22     -0.50      0.05
   15   18   22      0.09      0.27
   16   18   22     -0.12      0.37
   17   18   22     -0.22     -0.28
   18   18   22      0.06      0.10
    0   19   22      3.30     -0.45
    1   19   22     -0.50      0.59
    2   19   22     -0.75     -0.77
    3   19   22     -0.91     -0.23
    4   19   22     -0.63      0.06
    5   19   22      0.45      0.06
    6   19   22      0.73      0.40
    7   19   22     -0.64     -1.26
    8   19   22      0.28      0.75
    9   19   22      1.21     -0.03
   10   19   22      0.05      0.07
   11   19   22     -0.41      0.47
   12   19   22      0.31      0.63
   13   19   22     -0.24      0.48
   14   19   22      0.01      0.35
   15   19   22     -0.32      0.61
   16   19   22     -0.26     -0.22
   17   19   22     -0.14     -0.36
   18   19   22      0.00      0.07
    0   20   22     -0.50     -0.13
    1   20   22      0.02     -2.11
    2   20   22      0.95      0.08
    3   20   22      0.86      1.32
    4   20   22     -0.84     -0.14
    5   20   22      0.54      0.71
    6   20   22     -0.47     -0.30
    7   20   22      1.41     -0.47
    8   20   22      0.08      0.38
    9   20   22     -0.71      0.81
   10   20   22      0.94     -0.23
   11   20   22     -0.54     -0.29
   12   20   22      0.07      0.37
   13   20   22      0.00     -0.18
   14   20   22     -0.83      0.14
   15   20   22      0.34      0.39
   16   20   22     -0.06      0.56
   17   20   22      0.24     -0.17
    0   21   22      1.33      0.12
    1   21   22     -0.02     -0.56
    2   21   22      1.12      0.34
    3   21   22      0.64      1.13
    4   21   22      0.00     -0.31
    5   21   22      0.22     -1.44
    6   21   22     -0.66     -0.15
    7   21   22     -1.28     -0.48
    8   21   22     -0.45     -0.07
    9   21   22      0.18      0.05
   10   21   22     -0.25      0.88
   11   21   22     -0.45     -0.20
   12   21   22     -0.12      0.02
   13   21   22     -0.01      0.31
   14   21   22      0.21     -0.08
   15   21   22      0.01      0.03
   16   21   22     -0.24     -0.39
   17   21   22      0.43      0.33
    0   22   22     -1.27      0.08
    1   22   22     -0.31     -0.98
    2   22   22      0.20     -0.46
    3   22   22      0.38      0.55
    4   22   22      0.60      0.05
    5   22   22      0.58      0.03
    6   22   22     -0.77      0.24
    7   22   22      1.35      0.32
    8   22   22      0.28     -0.72
    9   22   22     -0.77     -0.48
   10   22   22      0.56      0.23
   11   22   22     -0.46     -0.11
   12   22   22      0.78     -0.44
   13   22   22      0.52      0.26
   14   22   22     -0.62      0.20
   15   22   22      0.68     -0.67
   16   22   22      0.42      0.18
    0   23   22      0.24     -0.04
    1   23   22     -0.02      0.09
    2   23   22     -0.14     -0.01
    3   23   22     -0.30     -0.36
    4   23   22      0.05     -0.37
    5   23   22      0.43     -0.40
    6   23   22      0.17     -0.40
    7   23   22      0.49     -0.16
    8   23   22     -0.56      0.35
    9   23   22     -0.79      0.85
   10   23   22      0.11      0.02
   11   23   22      0.26     -0.79
   12   23   22     -0.43      0.75
   13   23   22     -0.20     -0.05
   14   23   22     -0.11     -0.45
   15   23   22      0.32      0.53
    0   24   22     -1.86     -0.15
    1   24   22      0.05      0.67
    2   24   22      0.54      0.64
    3   24   22     -0.08      0.11
    4   24   22      0.38      0.12
    5   24   22      0.12      0.16
    6   24   22     -0.38      0.04
    7   24   22      0.44     -0.07
    8   24   22     -0.17     -0.13
    9   24   22     -0.59     -0.25
   10   24   22      0.18     -0.73
   11   24   22     -0.16      0.05
   12   24   22      0.81      0.60
   13   24   22      0.02      0.36
   14   24   22     -0.52     -0.55
   15   24   22      0.19     -0.27
    0   25   22      0.08      0.09
    1   25   22      0.40      0.16
    2   25   22      0.00      0.40
    3   25   22     -0.31      0.03
    4   25   22     -0.54     -0.03
    5   25   22      0.32     -0.13
    6   25   22      0.36     -0.53
    7   25   22      0.01      0.28
    8   25   22     -0.17     -0.42
    9   25   22      0.08      0.00
   10   25   22     -0.40      0.28
   11   25   22     -0.19     -0.11
   12   25   22     -0.11      0.04
   13   25   22     -0.18     -0.81
   14   25   22     -0.30     -0.16
    0   26   22     -1.95      0.19
    1   26   22      0.68      0.13
    2   26   22      0.80      0.22
    3   26   22     -0.38      0.40
    4   26   22     -0.06      0.86
    5   26   22     -0.37     -0.14
    6   26   22      0.08     -0.75
    7   26   22     -0.55     -0.14
    8   26   22     -0.46      0.18
    9   26   22      0.24      0.18
   10   26   22      0.32      0.23
   11   26   22      0.41      0.63
   12   26   22      0.57      0.15
   13   26   22     -0.30      0.69
    0   27   22      0.31     -0.16
    1   27   22      0.60     -0.01
    2   27   22     -0.42      0.35
    3   27   22     -0.34     -0.08
    4   27   22     -0.08      0.19
    5   27   22      0.16      0.04
    6   27   22      0.23     -0.60
    7   27   22      0.42      0.64
    8   27   22      0.37      0.47
    9   27   22     -0.30      0.31
   10   27   22     -0.47      0.13
   11   27   22      0.21      0.26
   12   27   22      0.09      0.22
    0   28   22     -0.79      0.03
    1   28   22      0.91     -0.04
    2   28   22     -0.47      0.25
    3   28   22     -0.49      0.06
    4   28   22      0.72      0.25
    5   28   22     -0.65     -0.07
    6   28   22      0.53     -0.31
    7   28   22      0.27     -0.32
    8   28   22     -0.53     -0.54
    9   28   22     -0.69     -0.16
   10   28   22     -0.35      0.39
   11   28   22      0.62      0.83
    0   29   22     -0.49     -0.19
    1   29   22      0.32      0.25
    2   29   22      0.18      0.23
    3   29   22      0.23     -0.46
    4   29   22      0.23      0.08
    5   29   22      0.23      0.32
    6   29   22      0.48      0.13
    7   29   22      0.38      0.20
    8   29   22      0.23     -0.04
    9   29   22     -0.25      0.31
    0   30   22     -0.82     -0.09
    1   30   22      0.62     -0.01
    2   30   22     -0.13     -0.23
    3   30   22      0.24     -0.27
    4   30   22      0.37      0.33
    5   30   22     -1.00      0.06
    6   30   22      0.39      0.03
    7   30   22     -0.44      0.39
    8   30   22      0.00     -0.09
    0   31   22     -0.56      0.16
    1   31   22     -0.17     -0.14
    2   31   22     -0.17     -0.17
    3   31   22      0.13     -0.32
    4   31   22      0.17      0.14
    5   31   22      0.03      0.07
    0   32   22     -0.36     -0.11
    1   32   22      0.55      0.15
    7    0   23     -0.08      1.40
    8    0   23     -0.40      0.57
    9    0   23     -0.13      0.72
   10    0   23      0.29      1.64
   11    0   23      0.58      2.38
   12    0   23      0.07      0.42
   13    0   23     -0.19      0.38
   14    0   23      0.05     -0.58
   15    0   23      0.14      0.19
   16    0   23      0.06      0.77
   17    0   23      0.10      0.75
   18    0   23      0.01     -0.29
   19    0   23     -0.10     -0.13
   20    0   23     -0.10     -0.93
   21    0   23      0.08      0.33
    7    1   23      0.39     -0.24
    8    1   23      1.06      1.38
    9    1   23      0.11      0.15
   10    1   23     -0.59      0.45
   11    1   23     -0.09     -0.52
   12    1   23      0.22     -0.01
   13    1   23      0.12     -0.06
   14    1   23      0.14     -0.58
   15    1   23     -0.41      0.77
   16    1   23     -0.32      0.05
   17    1   23      0.23      0.80
   18    1   23      0.80      0.82
   19    1   23      0.77      0.11
   20    1   23      0.46      0.20
   21    1   23      0.40      0.76
    7    2   23      0.92     -0.89
    8    2   23      0.99      0.31
    9    2   23      0.97      0.05
   10    2   23      0.45      1.27
   11    2   23     -0.11      1.57
   12    2   23      0.32     -0.68
   13    2   23      0.54      0.48
   14    2   23      0.65     -0.30
   15    2   23      0.21     -0.54
   16    2   23      0.95      0.09
   17    2   23     -0.09     -0.51
   18    2   23     -0.08     -1.18
   19    2   23      0.07      0.42
   20    2   23     -0.32     -0.78
   21    2   23     -0.46     -0.80
    7    3   23      0.39     -0.51
    8    3   23      0.01     -0.34
    9    3   23     -0.47      0.26
   10    3   23     -0.83      0.28
   11    3   23     -0.07     -1.69
   12    3   23      0.86     -0.69
   13    3   23      0.18      0.84
   14    3   23      0.31     -1.24
   15    3   23     -0.50     -0.03
   16    3   23      0.04      0.10
   17    3   23     -0.24      0.12
   18    3   23     -0.65     -0.53
   19    3   23     -0.34     -0.04
   20    3   23      0.45      0.30
   21    3   23      0.28      0.52
    6    4   23     -0.39     -0.22
    7    4   23     -0.68      0.14
    8    4   23     -1.41      0.76
    9    4   23     -0.82     -1.47
   10    4   23     -1.08     -1.73
   11    4   23     -0.31      0.23
   12    4   23      0.53     -0.70
   13    4   23      0.14     -0.20
   14    4   23      0.19      0.86
   15    4   23     -0.79      0.49
   16    4   23      0.22     -0.08
   17    4   23     -0.37      0.00
   18    4   23      0.38     -0.15
   19    4   23      0.49      0.02
   20    4   23     -0.15     -0.35
   21    4   23     -0.10     -0.46
    6    5   23     -0.42      0.12
    7    5   23     -1.27      0.03
    8    5   23      0.60      0.71
    9    5   23     -0.85      0.14
   10    5   23     -2.01     -1.69
   11    5   23     -0.86     -0.40
   12    5   23      0.17      1.13
   13    5   23     -0.89      0.93
   14    5   23     -0.29     -0.88
   15    5   23     -0.57      1.00
   16    5   23      0.54     -0.48
   17    5   23     -0.42     -0.38
   18    5   23     -0.48      0.21
   19    5   23      0.33     -0.20
   20    5   23     -0.05     -0.77
   21    5   23     -0.39      0.86
    6    6   23      2.73      1.30
    7    6   23     -0.26      0.69
    8    6   23     -1.53      1.53
    9    6   23     -0.19     -0.04
   10    6   23     -0.28     -0.97
   11    6   23      0.39      0.52
   12    6   23      0.01      0.56
   13    6   23     -0.23      0.25
   14    6   23      0.54      0.03
   15    6   23     -0.45     -0.83
   16    6   23      0.35     -0.21
   17    6   23     -0.33      0.55
   18    6   23     -0.28      0.17
   19    6   23      0.36     -0.41
   20    6   23      0.22      0.02
   21    6   23     -0.11     -0.11
    5    7   23     -0.24      1.88
    6    7   23      0.94     -1.80
    7    7   23     -0.07     -0.54
    8    7   23      0.30     -0.10
    9    7   23     -0.44     -0.27
   10    7   23      0.51     -0.37
   11    7   23      0.79      0.88
   12    7   23      0.35      0.15
   13    7   23     -0.32     -0.32
   14    7   23      1.13     -0.60
   15    7   23     -0.09      1.22
   16    7   23     -0.06      0.37
   17    7   23      0.13      0.30
   18    7   23      0.51      0.51
   19    7   23     -0.11      0.54
   20    7   23     -0.09     -0.09
    4    8   23      0.88      0.27
    5    8   23     -0.69      1.92
    6    8   23      0.20      0.71
    7    8   23     -1.03     -0.89
    8    8   23      0.72      0.40
    9    8   23      1.17     -0.07
   10    8   23     -1.30     -0.25
   11    8   23     -0.36      1.33
   12    8   23     -0.53      1.20
   13    8   23     -0.41     -0.08
   14    8   23      0.58      0.05
   15    8   23     -0.28      0.36
   16    8   23      0.30      0.40
   17    8   23      0.47     -0.11
   18    8   23     -0.19      0.34
   19    8   23     -0.06      0.18
   20    8   23      0.49      0.10
    2    9   23     -0.64     -1.90
    3    9   23      0.37     -2.60
    4    9   23     -1.83      0.25
    5    9   23      0.03      0.90
    6    9   23      0.23     -2.32
    7    9   23     -0.77     -0.65
    8    9   23      0.02     -1.71
    9    9   23     -1.01     -1.18
   10    9   23      0.82     -0.59
   11    9   23      1.06     -0.42
   12    9   23      0.37      0.36
   13    9   23     -0.55      0.73
   14    9   23      0.24     -0.19
   15    9   23     -0.17     -0.17
   16    9   23     -0.02     -0.06
   17    9   23     -0.17      0.49
   18    9   23      0.61      0.32
   19    9   23      0.23     -0.54
   20    9   23     -0.39     -0.62
    0   10   23      0.26     -0.04
    1   10   23      0.24     -1.15
    2   10   23      1.44      0.25
    3   10   23      1.85      0.17
    4   10   23      1.59      1.02
    5   10   23     -0.76      0.92
    6   10   23      0.96     -0.86
    7   10   23      0.56     -1.21
    8   10   23      1.06      0.56
    9   10   23      1.22     -0.15
   10   10   23     -0.45     -0.08
   11   10   23     -0.10      0.10
   12   10   23     -0.56     -0.98
   13   10   23     -0.29     -0.45
   14   10   23     -0.24      0.65
   15   10   23     -0.47      0.30
   16   10   23      0.32      0.64
   17   10   23      0.62     -0.03
   18   10   23      0.02     -0.15
   19   10   23     -0.06     -0.03
   20   10   23     -0.23     -0.19
    0   11   23      0.41     -0.05
    1   11   23     -0.26      1.69
    2   11   23      0.75     -1.18
    3   11   23      0.36     -0.75
    4   11   23     -1.26     -0.55
    5   11   23      1.13      0.70
    6   11   23      0.73     -1.61
    7   11   23     -1.54     -0.42
    8   11   23      0.73     -1.16
    9   11   23      0.08     -1.07
   10   11   23     -0.83     -1.18
   11   11   23     -1.05     -0.99
   12   11   23      0.51      0.18
   13   11   23     -0.09     -0.13
   14   11   23      0.12      0.20
   15   11   23      0.57      0.06
   16   11   23      0.05     -0.06
   17   11   23     -0.55     -0.12
   18   11   23     -0.20     -0.24
   19   11   23     -0.40      0.37
   20   11   23     -0.19      0.26
    0   12   23      1.75      0.47
    1   12   23     -2.01      0.19
    2   12   23     -1.26      1.81
    3   12   23      0.36      0.88
    4   12   23      0.01      0.28
    5   12   23     -1.60      0.63
    6   12   23     -0.54      0.28
    7   12   23     -0.78     -0.61
    8   12   23      0.37     -0.71
    9   12   23      0.49     -0.56
   10   12   23     -0.28      0.49
   11   12   23      0.80     -0.26
   12   12   23      0.29     -1.19
   13   12   23     -0.64      0.54
   14   12   23     -0.45      0.71
   15   12   23      0.45     -0.72
   16   12   23     -0.36      0.66
   17   12   23     -0.36      0.20
   18   12   23      0.35     -0.74
   19   12   23     -0.13      0.17
    0   13   23     -0.34     -0.25
    1   13   23     -0.88      0.21
    2   13   23     -0.87      0.25
    3   13   23     -0.60      0.31
    4   13   23     -0.42     -0.33
    5   13   23      0.70      0.94
    6   13   23      1.02     -0.85
    7   13   23     -0.25      0.20
    8   13   23     -0.41      0.06
    9   13   23     -0.57      0.47
   10   13   23      1.01      0.83
   11   13   23      0.24     -0.34
   12   13   23     -0.21     -0.35
   13   13   23     -1.04     -0.15
   14   13   23     -0.45      0.55
   15   13   23      0.47     -0.83
   16   13   23     -0.13     -0.37
   17   13   23     -0.19      0.55
   18   13   23     -0.07     -0.48
   19   13   23     -0.77     -0.09
    0   14   23      1.05     -0.22
    1   14   23     -2.46     -1.32
    2   14   23     -0.72     -0.88
    3   14   23      0.23     -0.52
    4   14   23      2.06     -0.03
    5   14   23      1.57      0.97
    6   14   23     -0.06      0.91
    7   14   23     -0.51      0.08
    8   14   23      0.41     -1.05
    9   14   23     -0.69     -0.04
   10   14   23     -0.22      1.21
   11   14   23      0.47      0.42
   12   14   23      0.13     -0.56
   13   14   23      0.69      0.34
   14   14   23     -0.43      0.27
   15   14   23     -0.71     -0.45
   16   14   23      0.04      0.31
   17   14   23      0.24     -0.36
   18   14   23     -0.02     -0.35
   19   14   23      0.65      0.57
    0   15   23      1.09     -0.20
    1   15   23      0.21      0.86
    2   15   23     -1.45      1.23
    3   15   23     -1.02     -0.89
    4   15   23     -0.62     -0.95
    5   15   23     -1.26      1.48
    6   15   23      0.08     -0.47
    7   15   23      0.98     -0.87
    8   15   23      0.17      0.17
    9   15   23     -0.48      0.35
   10   15   23      0.20      0.00
   11   15   23      0.11     -0.49
   12   15   23      1.08     -0.17
   13   15   23     -0.23     -0.20
   14   15   23     -0.90      0.89
   15   15   23      0.16      0.12
   16   15   23     -0.31      0.26
   17   15   23      0.06      0.57
   18   15   23      0.48     -0.43
    0   16   23     -1.84     -0.32
    1   16   23     -2.46      0.28
    2   16   23      2.42     -0.03
    3   16   23      1.79     -0.41
    4   16   23      0.86     -0.09
    5   16   23      1.70      1.26
    6   16   23      1.05      0.07
    7   16   23     -0.94      0.04
    8   16   23     -0.63      0.06
    9   16   23     -0.72      0.02
   10   16   23     -0.17     -0.52
   11   16   23      0.24     -0.15
   12   16   23     -0.60     -0.47
   13   16   23     -0.40     -0.24
   14   16   23      0.40      0.38
   15   16   23      0.69      0.08
   16   16   23     -0.12     -0.26
   17   16   23      0.36     -0.21
   18   16   23      0.50      0.38
    0   17   23      0.39      0.03
    1   17   23      0.54     -0.27
    2   17   23     -0.30      0.60
    3   17   23     -0.17      0.07
    4   17   23      0.55     -0.79
    5   17   23     -0.27     -0.47
    6   17   23      0.56     -0.59
    7   17   23      1.38     -0.66
    8   17   23      0.82      0.17
    9   17   23      0.35      0.03
   10   17   23     -0.61     -0.52
   11   17   23     -0.93     -0.14
   12   17   23      0.76      0.51
   13   17   23      0.28     -0.30
   14   17   23     -0.28      0.70
   15   17   23      0.61      0.54
   16   17   23     -0.11     -0.07
   17   17   23     -0.47      0.43
    0   18   23     -1.50      0.21
    1   18   23     -1.13     -0.13
    2   18   23      1.62     -0.95
    3   18   23     -0.43      0.19
    4   18   23     -0.69      0.88
    5   18   23      0.91      1.06
    6   18   23      0.39     -0.09
    7   18   23     -0.42     -0.07
    8   18   23     -0.02     -0.74
    9   18   23     -0.13     -0.47
   10   18   23      0.22     -0.16
   11   18   23      0.85      0.04
   12   18   23      0.39     -0.11
   13   18   23     -0.11      0.09
   14   18   23     -0.33      0.35
   15   18   23     -0.47      0.14
   16   18   23     -0.31     -0.36
   17   18   23      0.52     -0.31
    0   19   23     -0.42     -0.22
    1   19   23      0.17      0.66
    2   19   23     -0.18     -0.03
    3   19   23     -0.34      0.11
    4   19   23      0.69      0.46
    5   19   23     -0.18     -0.13
    6   19   23     -0.25     -0.34
    7   19   23      0.18     -0.87
    8   19   23     -0.23     -0.19
    9   19   23     -0.49     -0.05
   10   19   23     -0.80      0.00
   11   19   23      0.01      0.21
   12   19   23     -0.12      0.54
   13   19   23     -1.04      0.20
   14   19   23     -0.11      0.00
   15   19   23      0.82     -0.64
   16   19   23     -0.18     -0.21
    0   20   23      0.77      0.06
    1   20   23     -0.42      0.02
    2   20   23      0.30     -0.68
    3   20   23      0.83      0.22
    4   20   23     -0.54      0.80
    5   20   23     -0.41     -0.01
    6   20   23      1.01     -0.04
    7   20   23      0.58      0.95
    8   20   23     -0.86      0.19
    9   20   23     -0.13     -0.37
   10   20   23      0.39      0.38
   11   20   23      0.34      0.48
   12   20   23      0.32      0.25
   13   20   23     -0.07     -0.15
   14   20   23      0.32     -0.29
   15   20   23      0.11     -0.12
   16   20   23     -0.23     -0.32
    0   21   23     -0.59     -0.04
    1   21   23      0.15      1.12
    2   21   23      0.21     -0.45
    3   21   23     -0.68     -1.02
    4   21   23     -0.52     -0.73
    5   21   23     -0.19      0.17
    6   21   23      0.45      0.31
    7   21   23     -0.08     -1.23
    8   21   23     -0.30     -0.31
    9   21   23      0.77     -0.40
   10   21   23     -0.25     -0.41
   11   21   23     -0.20      0.08
   12   21   23     -0.16     -0.03
   13   21   23      0.11     -0.22
   14   21   23      0.22     -0.16
   15   21   23     -0.07      0.01
    0   22   23      0.06      0.26
    1   22   23      0.31      0.49
    2   22   23      0.42      0.55
    3   22   23     -0.28      0.01
    4   22   23     -1.25     -0.29
    5   22   23     -0.19     -0.46
    6   22   23     -0.05      0.25
    7   22   23     -0.65      0.10
    8   22   23     -0.29     -0.24
    9   22   23      0.83     -0.56
   10   22   23     -0.05     -0.59
   11   22   23     -0.79     -0.43
   12   22   23     -0.10      0.61
   13   22   23     -0.36      0.06
   14   22   23      0.08     -0.51
    0   23   23      0.05     -0.13
    1   23   23      0.65     -0.15
    2   23   23      0.16     -0.10
    3   23   23     -0.10      0.65
    4   23   23      0.28     -0.91
    5   23   23     -0.67     -0.65
    6   23   23     -0.37      0.32
    7   23   23      0.67     -0.96
    8   23   23      0.06      0.48
    9   23   23      0.11      0.23
   10   23   23     -0.15     -0.71
   11   23   23      0.61     -0.52
   12   23   23      0.17      0.14
   13   23   23      0.10      0.24
   14   23   23     -0.01     -0.40
    0   24   23      0.25      0.15
    1   24   23      0.01      0.08
    2   24   23      0.10     -0.04
    3   24   23      0.53     -0.37
    4   24   23     -0.50     -0.13
    5   24   23     -0.20     -0.12
    6   24   23      0.37      0.66
    7   24   23      0.39      0.21
    8   24   23      0.18     -0.30
    9   24   23      0.48      0.38
   10   24   23     -0.20      0.76
   11   24   23     -0.82     -0.32
   12   24   23      0.67     -0.35
   13   24   23      0.26     -0.34
    0   25   23      0.02     -0.24
    1   25   23      0.23      0.07
    2   25   23     -0.23     -0.57
    3   25   23     -0.51      0.75
    4   25   23      0.45      0.46
    5   25   23      0.44     -0.13
    6   25   23     -0.27     -0.33
    7   25   23     -0.32     -0.71
    8   25   23     -0.17      0.84
    9   25   23      0.44     -0.11
   10   25   23     -0.15     -0.36
   11   25   23     -0.02      0.21
   12   25   23      0.27     -0.07
    0   26   23      0.48     -0.08
    1   26   23      0.35     -0.12
    2   26   23      0.40     -0.22
    3   26   23      0.19     -0.12
    4   26   23     -0.71      0.19
    5   26   23     -0.49      0.02
    6   26   23     -0.28      0.19
    7   26   23      0.42     -0.19
    8   26   23      0.48     -0.57
    9   26   23     -0.13      0.42
   10   26   23     -0.15      0.66
   11   26   23     -0.16     -0.13
    0   27   23     -0.55     -0.06
    1   27   23     -0.44      0.54
    2   27   23      0.04     -0.44
    3   27   23      0.03      0.22
    4   27   23      0.02      0.13
    5   27   23     -0.04     -0.21
    6   27   23      0.35      0.15
    7   27   23      0.41      0.11
    8   27   23     -0.32      0.34
    9   27   23     -0.77     -0.12
   10   27   23     -0.20      0.35
    0   28   23     -0.50     -0.07
    1   28   23      0.07     -0.25
    2   28   23      0.80     -0.05
    3   28   23      0.46      0.13
    4   28   23     -0.01     -0.10
    5   28   23      0.33     -0.01
    6   28   23     -0.29     -0.06
    7   28   23      0.06      0.05
    8   28   23      0.40      0.09
    0   29   23      0.46      0.07
    1   29   23     -0.19     -0.11
    2   29   23      0.06     -0.30
    3   29   23     -0.21     -0.20
    4   29   23     -0.22     -0.29
    5   29   23     -0.22      0.00
    6   29   23     -0.18      0.14
    0   30   23      0.40     -0.16
    1   30   23     -0.20      0.28
    2   30   23     -0.58     -0.17
    3   30   23      0.07     -0.34
    4   30   23      0.03     -0.29
    0    0    0      0.00      0.00
# SQUEEZE RESULTS
# Note: Data are Listed for all Voids in the P1 Unit Cell
# i.e. Centre of Gravity, Solvent Accessible Volume,
# Recovered number of Electrons in the Void and
# Details about the Squeezed Material
loop_
  _platon_squeeze_void_nr
  _platon_squeeze_void_average_x
  _platon_squeeze_void_average_y
  _platon_squeeze_void_average_z
  _platon_squeeze_void_volume
  _platon_squeeze_void_count_electrons
  _platon_squeeze_void_content
   1  0.041  0.136 -0.009      8646      2050 ' '
_platon_squeeze_details
(replace by semicolon in column 1 when used as .sqf)
TITL b_a.res in P222(1)
CELL   24.1093   34.2098   23.7848     90.00     90.00     90.00
SPGR P2221
# Solvent Accessible Volume =    8615.0
# Electrons Found in S.A.V. =    2042.9
# Note: Atoms in Void as Cxxx and Qxxx all others
C101 0.500 0.445 0.255 !       4.46 eA-3
C102 0.500 0.961 0.753 !       3.27 eA-3
C103 0.682 0.427 0.323 !       2.60 eA-3
C104 0.889 0.586 0.882 !       2.49 eA-3
C105 0.302 0.922 0.345 !       2.48 eA-3
C106 0.477 1.001 0.253 !       2.35 eA-3
C107 0.500 0.484 0.246 !       2.20 eA-3
Q108 0.576 0.530 0.075 !       2.14 eA-3
C109 0.779 0.096 0.649 !       2.07 eA-3
C110 0.660 0.557 0.686 !       1.97 eA-3
C111 0.500 0.453 0.745 !       1.96 eA-3
C112 0.422 0.007 0.752 !       1.95 eA-3
C113 0.290 0.414 0.252 !       1.95 eA-3
C114 0.389 0.033 0.733 !       1.87 eA-3
C115 0.705 0.382 0.297 !       1.86 eA-3
C116 0.708 0.548 0.771 !       1.76 eA-3
C117 0.772 0.040 0.235 !       1.72 eA-3
C118 0.250 0.113 0.858 !       1.63 eA-3
C119 0.271 0.553 0.267 !       1.63 eA-3
C120 0.346 0.499 0.279 !       1.61 eA-3
C121 0.775 0.647 0.167 !       1.61 eA-3
Q122 0.358 0.468 0.566 !       1.59 eA-3
Q123 0.610 0.971 0.559 !       1.59 eA-3
C124 0.737 0.609 0.815 !       1.59 eA-3
C125 0.062 0.335 0.334 !       1.57 eA-3
C126 0.723 0.252 0.405 !       1.57 eA-3
C127 0.275 0.014 0.269 !       1.57 eA-3
C128 0.664 0.038 0.770 !       1.57 eA-3
C129 0.481 0.031 0.769 !       1.56 eA-3
C130 0.478 0.483 0.772 !       1.55 eA-3
C131 0.800 0.782 0.241 !       1.50 eA-3
C132 0.209 0.851 0.204 !       1.49 eA-3
Q133 0.438 0.969 0.939 !       1.44 eA-3
C134 0.796 0.399 0.144 !       1.42 eA-3
C135 0.680 0.454 0.755 !       1.41 eA-3
C136 0.802 0.720 0.607 !       1.41 eA-3
C137 0.879 0.922 0.799 !       1.36 eA-3
C138 0.777 0.564 0.256 !       1.36 eA-3
C139 0.207 0.787 0.733 !       1.36 eA-3
C140 0.653 0.008 0.751 !       1.35 eA-3
C141 0.803 0.718 0.632 !       1.34 eA-3
C142 0.273 0.046 0.256 !       1.32 eA-3
C143 0.721 0.045 0.771 !       1.32 eA-3
C144 0.821 0.658 0.162 !       1.31 eA-3
C145 0.804 0.119 0.598 !       1.31 eA-3
C146 0.775 0.851 0.627 !       1.30 eA-3
C147 0.905 0.079 0.260 !       1.29 eA-3
C148 0.007 0.783 0.130 !       1.29 eA-3
C149 0.057 0.074 0.242 !       1.28 eA-3
C150 0.191 0.475 0.743 !       1.26 eA-3
C151 0.168 0.726 0.752 !       1.26 eA-3
C152 0.128 0.056 0.806 !       1.25 eA-3
C153 0.720 0.023 0.760 !       1.25 eA-3
C154 0.822 0.913 0.355 !       1.24 eA-3
C155 0.133 0.084 0.884 !       1.24 eA-3
C156 0.242 0.838 0.325 !       1.24 eA-3
C157 0.586 0.494 0.745 !       1.23 eA-3
C158 0.249 0.266 0.121 !       1.23 eA-3
Q159 0.254 0.838 0.236 !       1.23 eA-3
C160 0.167 0.726 0.722 !       1.23 eA-3
C161 0.182 0.640 0.577 !       1.23 eA-3
C162 0.242 0.276 0.105 !       1.22 eA-3
C163 0.257 0.596 0.255 !       1.22 eA-3
C164 0.223 0.452 0.742 !       1.22 eA-3
Q165 0.608 0.510 0.202 !       1.20 eA-3
C166 0.845 0.210 0.900 !       1.20 eA-3
C167 0.082 0.589 0.299 !       1.20 eA-3
C168 1.001 0.945 0.750 !       1.20 eA-3
C169 0.722 0.141 0.803 !       1.19 eA-3
Q170 0.500 0.219 0.745 !       1.19 eA-3
C171 0.235 0.014 0.741 !       1.19 eA-3
C172 0.793 0.244 0.153 !       1.19 eA-3
C173 0.861 0.743 0.364 !       1.19 eA-3
C174 0.779 0.632 0.201 !       1.19 eA-3
C175 0.737 0.853 0.315 !       1.18 eA-3
C176 0.253 0.877 0.181 !       1.18 eA-3
C177 0.249 0.148 0.716 !       1.18 eA-3
C178 0.804 0.350 0.093 !       1.18 eA-3
C179 0.835 0.203 0.194 !       1.17 eA-3
C180 0.148 0.632 0.602 !       1.17 eA-3
C181 0.270 0.072 0.813 !       1.16 eA-3
C182 0.600 0.532 0.719 !       1.16 eA-3
C183 0.826 0.233 0.238 !       1.15 eA-3
C184 0.214 0.314 0.594 !       1.15 eA-3
C185 0.994 0.282 0.693 !       1.15 eA-3
C186 0.203 0.328 0.570 !       1.13 eA-3
C187 0.142 0.113 0.867 !       1.13 eA-3
C188 0.259 0.609 0.332 !       1.13 eA-3
C189 0.249 0.870 0.248 !       1.12 eA-3
C190 0.858 0.741 0.337 !       1.12 eA-3
C191 0.023 0.225 0.676 !       1.12 eA-3
C192 0.765 0.376 0.120 !       1.12 eA-3
Q193 0.367 0.532 0.696 !       1.11 eA-3
C194 0.176 0.960 0.740 !       1.10 eA-3
Q195 0.748 0.784 0.244 !       1.09 eA-3
C196 0.894 0.407 0.705 !       1.08 eA-3
C197 0.774 0.975 0.261 !       1.08 eA-3
C198 0.056 0.279 0.788 !       1.08 eA-3
C199 0.967 0.495 0.756 !       1.08 eA-3
(replace by semicolon in column 1 when used as .sqf)
;
_shelx_shelxl_version_number     2014/7
_olex2_submission_special_instructions 'No special instructions were received'
loop_
_space_group_symop_operation_xyz
'x, y, z'
'-x, -y, z+1/2'
'-x, y, -z+1/2'
'x, -y, -z'
loop_
_atom_site_label
_atom_site_type_symbol
_atom_site_fract_x
_atom_site_fract_y
_atom_site_fract_z
_atom_site_U_iso_or_equiv
_atom_site_adp_type
_atom_site_occupancy
_atom_site_site_symmetry_order
_atom_site_calc_flag
_atom_site_refinement_flags_posn
_atom_site_refinement_flags_adp
_atom_site_refinement_flags_occupancy
_atom_site_disorder_assembly
_atom_site_disorder_group
Cd1 Cd 0.39049(3) 0.53471(3) 0.43377(5) 0.0519(3) Uani 1 1 d . U . . .
Cd2 Cd 0.40853(4) 0.96609(3) 0.93306(6) 0.0694(4) Uani 1 1 d . U . . .
Fe1 Fe 0.89016(9) 0.51878(9) 0.43201(16) 0.0964(10) Uani 1 1 d . U . . .
Fe2 Fe 0.91054(12) 0.98432(10) 0.93007(17) 0.1097(11) Uani 1 1 d . U . . .
V2 V 0.4322(2) 0.72057(13) 0.7440(2) 0.0610(16) Uani 0.517(5) 1 d . U . A 1
V1 V 0.4525(7) 0.7861(3) 1.2507(4) 0.169(4) Uani 0.517(5) 1 d . U . A 1
O18 O 0.3876(3) 0.5210(3) 0.6162(4) 0.058(2) Uani 1 1 d . U . . .
C94 C 0.4074(7) 0.9496(5) 1.0764(9) 0.078(4) Uani 1 1 d . U . . .
O11 O 0.4052(5) 0.9774(3) 1.1117(5) 0.092(4) Uani 1 1 d . U . . .
C108 C 0.4036(7) 0.6894(4) 0.8650(6) 0.064(3) Uani 1 1 d . U . . .
H108 H 0.3656 0.6777 0.8652 0.077 Uiso 1 1 calc R . . . .
O20 O 0.4041(5) 0.8983(3) 0.9184(6) 0.083(3) Uani 1 1 d . U . . .
O15 O 0.3937(4) 0.7682(3) 0.7319(4) 0.068(2) Uani 1 1 d . U . . .
O17 O 0.3887(4) 0.5441(3) 0.5292(5) 0.073(3) Uani 1 1 d . U . . .
O3 O 0.8815(6) 0.5000 0.5000 0.099(4) Uani 1 2 d S TU P . .
N12 N 0.4026(5) 0.7264(3) 0.8294(5) 0.066(2) Uani 1 1 d . U . . .
C114 C 0.4083(4) 0.6318(2) 0.6844(3) 0.054(3) Uani 1 1 d . U . . .
C119 C 0.4055(4) 0.59477(19) 0.6607(3) 0.051(3) Uani 1 1 d G U . . .
H119 H 0.4137 0.5724 0.6829 0.061 Uiso 1 1 calc R . . . .
C118 C 0.3906(4) 0.59042(18) 0.6046(4) 0.056(3) Uani 1 1 d G U . . .
C117 C 0.3785(4) 0.6232(2) 0.5722(3) 0.063(3) Uani 1 1 d G U . . .
H117 H 0.3684 0.6202 0.5339 0.075 Uiso 1 1 calc R . . . .
C116 C 0.3814(4) 0.6602(2) 0.5959(4) 0.067(3) Uani 1 1 d DG U . . .
C115 C 0.3963(4) 0.66458(18) 0.6520(4) 0.054(3) Uani 1 1 d G U . . .
O4 O 0.8493(4) 0.9501(4) 0.9227(6) 0.109(3) Uani 1 1 d . U . . .
C29 C 1.0861(3) 0.5142(2) 0.4256(6) 0.078(4) Uani 1 1 d . U . . .
H29 H 1.1040 0.4901 0.4179 0.093 Uiso 1 1 calc R . . . .
C28 C 1.1172(3) 0.5466(3) 0.4415(6) 0.086(4) Uani 1 1 d G U . . .
C27 C 1.0910(4) 0.5819(3) 0.4529(6) 0.097(5) Uani 1 1 d G U . . .
H27 H 1.1123 0.6040 0.4638 0.117 Uiso 1 1 calc R . . . .
C26 C 1.0337(4) 0.5849(3) 0.4483(7) 0.115(5) Uani 1 1 d DG U . . .
C25 C 1.0025(3) 0.5525(3) 0.4324(7) 0.103(5) Uani 1 1 d G U . . .
C24 C 1.0287(3) 0.5172(3) 0.4211(6) 0.093(5) Uani 1 1 d G U . . .
O19 O 0.4057(6) 0.9346(3) 0.8445(5) 0.096(3) Uani 1 1 d . U . . .
O1 O 0.8324(4) 0.5566(4) 0.4255(7) 0.111(3) Uani 1 1 d . U . . .
O5 O 0.9667(5) 0.9436(4) 0.9223(7) 0.117(4) Uani 1 1 d . U . . .
O2 O 0.9482(4) 0.5579(4) 0.4283(7) 0.111(4) Uani 1 1 d . U . . .
C85 C 0.3981(10) 0.8360(3) 1.1526(5) 0.161(6) Uani 1 1 d . U . . .
C84 C 0.4023(10) 0.8692(3) 1.1860(4) 0.155(6) Uani 1 1 d G U . . .
C89 C 0.4061(8) 0.9059(3) 1.1612(5) 0.135(7) Uani 1 1 d G U . . .
H89 H 0.4090 0.9286 1.1840 0.162 Uiso 1 1 calc R . . . .
C88 C 0.4057(7) 0.9094(2) 1.1030(5) 0.102(5) Uani 1 1 d G U . . .
C87 C 0.4015(8) 0.8762(3) 1.0696(4) 0.128(6) Uani 1 1 d G U . . .
H87 H 0.4012 0.8785 1.0298 0.154 Uiso 1 1 calc R . . . .
C86 C 0.3977(10) 0.8395(3) 1.0944(5) 0.163(6) Uani 1 1 d DG U . . .
C113 C 0.4241(6) 0.6327(4) 0.7409(6) 0.057(3) Uani 1 1 d . U . . .
H113 H 0.4343 0.6083 0.7569 0.068 Uiso 1 1 calc R . . . .
C50 C 0.6792(3) 0.9623(4) 0.9309(6) 0.101(4) Uani 1 1 d D U . . .
C51 C 0.7126(4) 0.9936(3) 0.9153(6) 0.107(5) Uani 1 1 d G U . . .
H51 H 0.6962 1.0179 0.9054 0.128 Uiso 1 1 calc DR . . . .
C46 C 0.7699(4) 0.9894(3) 0.9142(6) 0.111(5) Uani 1 1 d G U . . .
C47 C 0.7938(3) 0.9538(4) 0.9287(7) 0.104(4) Uani 1 1 d G U . . .
C48 C 0.7605(4) 0.9225(3) 0.9444(7) 0.129(5) Uani 1 1 d DG U . . .
C49 C 0.7032(4) 0.9268(3) 0.9455(6) 0.111(5) Uani 1 1 d G U . . .
H49 H 0.6803 0.9054 0.9562 0.133 Uiso 1 1 calc DR . . . .
C126 C 0.3962(5) 0.7963(2) 0.8214(4) 0.073(3) Uani 1 1 d . U . . .
C127 C 0.3980(5) 0.8299(3) 0.8541(3) 0.076(4) Uani 1 1 d G U . . .
H127 H 0.3964 0.8280 0.8940 0.092 Uiso 1 1 calc R . . . .
C128 C 0.4020(5) 0.8664(2) 0.8286(5) 0.081(4) Uani 1 1 d G U . . .
C129 C 0.4043(6) 0.8692(2) 0.7704(5) 0.094(4) Uani 1 1 d G U . . .
H129 H 0.4071 0.8941 0.7529 0.112 Uiso 1 1 calc R . . . .
C130 C 0.4025(6) 0.8355(3) 0.7376(4) 0.095(4) Uani 1 1 d DG U . . .
C131 C 0.3985(5) 0.7991(2) 0.7632(4) 0.074(3) Uani 1 1 d G U . . .
N2 N 0.9470(5) 0.4793(5) 0.3982(7) 0.103(4) Uani 1 1 d D U . . .
N1 N 0.8407(5) 0.4849(5) 0.3779(8) 0.104(4) Uani 1 1 d . U . . .
N5 N 0.8582(6) 1.0246(5) 0.8953(8) 0.114(4) Uani 1 1 d . U . . .
C12 C 0.6654(2) 0.5395(3) 0.4341(5) 0.069(3) Uani 1 1 d . U . . .
C11 C 0.6888(3) 0.5731(3) 0.4571(5) 0.087(5) Uani 1 1 d G U . . .
H11 H 0.6658 0.5920 0.4747 0.104 Uiso 1 1 calc R . . . .
C10 C 0.7458(3) 0.5788(3) 0.4543(6) 0.108(5) Uani 1 1 d DG U . . .
C9 C 0.7794(2) 0.5511(3) 0.4286(6) 0.104(5) Uani 1 1 d G U . . .
C8 C 0.7560(3) 0.5176(3) 0.4056(5) 0.085(4) Uani 1 1 d G U . . .
C13 C 0.6990(3) 0.5118(3) 0.4083(5) 0.076(4) Uani 1 1 d G U . . .
H13 H 0.6830 0.4889 0.3926 0.091 Uiso 1 1 calc R . . . .
O6 O 0.9179(7) 1.0000 1.0000 0.110(4) Uani 1 2 d S TU P . .
C62 C 1.0457(5) 0.9833(4) 0.9070(7) 0.114(5) Uani 1 1 d . U . . .
C63 C 1.0216(4) 0.9489(4) 0.9263(8) 0.116(5) Uani 1 1 d G U . . .
C64 C 1.0547(5) 0.9196(3) 0.9489(8) 0.139(5) Uani 1 1 d DG U . . .
C65 C 1.1118(5) 0.9246(3) 0.9522(7) 0.120(6) Uani 1 1 d G U . . .
H65 H 1.1344 0.9045 0.9676 0.144 Uiso 1 1 calc R . . . .
C66 C 1.1359(3) 0.9590(4) 0.9329(7) 0.108(5) Uani 1 1 d G U . . .
C67 C 1.1028(5) 0.9884(3) 0.9103(7) 0.108(5) Uani 1 1 d G U . . .
H67 H 1.1193 1.0119 0.8971 0.129 Uiso 1 1 calc R . . . .
O10 O 0.4108(5) 0.9525(3) 1.0267(6) 0.085(3) Uani 1 1 d . U . . .
C125 C 0.3992(7) 0.7592(4) 0.8501(7) 0.068(3) Uani 1 1 d . U . . .
H125 H 0.3984 0.7603 0.8900 0.082 Uiso 1 1 calc R . . . .
C59 C 0.5342(4) 0.9955(3) 0.9029(6) 0.114(6) Uani 1 1 d . U . . .
H59 H 0.5153 1.0145 0.8810 0.137 Uiso 1 1 calc R . . . .
N7 N 0.5043(3) 0.9693(3) 0.9356(5) 0.084(3) Uani 1 1 d G U . . .
C58 C 0.5320(4) 0.9414(3) 0.9676(6) 0.126(6) Uani 1 1 d G U . . .
H58 H 0.5115 0.9235 0.9900 0.151 Uiso 1 1 calc R . . . .
C57 C 0.5896(4) 0.9399(4) 0.9670(6) 0.135(7) Uani 1 1 d G U . . .
H57 H 0.6085 0.9209 0.9889 0.163 Uiso 1 1 calc DR . . . .
C56 C 0.6195(3) 0.9661(4) 0.9343(6) 0.098(4) Uani 1 1 d DG U . . .
C60 C 0.5918(4) 0.9940(4) 0.9022(6) 0.117(6) Uani 1 1 d G U . . .
H60 H 0.6123 1.0119 0.8799 0.141 Uiso 1 1 calc DR . . . .
N6 N 0.9626(6) 1.0175(5) 0.8831(8) 0.115(4) Uani 1 1 d . U . . .
C45 C 0.8004(8) 1.0216(7) 0.8965(9) 0.111(5) Uani 1 1 d . U . . .
H45 H 0.7800 1.0437 0.8840 0.133 Uiso 1 1 calc R . . . .
C2 C 0.9189(6) 0.4445(6) 0.3724(10) 0.116(5) Uani 1 1 d D U . . .
H2 H 0.9053 0.4278 0.4040 0.139 Uiso 1 1 calc R . . . .
C61 C 1.0183(8) 1.0143(6) 0.8803(11) 0.121(6) Uani 1 1 d . U . . .
H61 H 1.0391 1.0333 0.8601 0.145 Uiso 1 1 calc R . . . .
C44 C 0.8512(8) 1.0911(7) 0.8459(11) 0.140(6) Uani 1 1 d D U . . .
H44A H 0.8197 1.1019 0.8675 0.168 Uiso 1 1 calc R . . . .
H44B H 0.8366 1.0775 0.8123 0.168 Uiso 1 1 calc R . . . .
C7 C 0.7884(6) 0.4869(6) 0.3773(9) 0.094(5) Uani 1 1 d . U . . .
H7 H 0.7687 0.4673 0.3573 0.112 Uiso 1 1 calc R . . . .
C33 C 0.9705(7) 0.6200(6) 0.5132(10) 0.134(6) Uani 1 1 d D U . . .
H33A H 0.9548 0.6454 0.5235 0.201 Uiso 1 1 calc R . . . .
H33B H 0.9405 0.6021 0.5028 0.201 Uiso 1 1 calc R . . . .
H33C H 0.9910 0.6092 0.5453 0.201 Uiso 1 1 calc R . . . .
C122 C 0.4145(8) 0.7212(5) 0.5506(8) 0.101(5) Uani 1 1 d D U . . .
H12A H 0.4243 0.7342 0.5860 0.151 Uiso 1 1 calc GR . . . .
H12B H 0.4064 0.7410 0.5219 0.151 Uiso 1 1 calc GR . . . .
H12C H 0.4456 0.7049 0.5381 0.151 Uiso 1 1 calc GR . . . .
C40 C 0.9359(8) 1.0472(7) 0.8414(11) 0.131(5) Uani 1 1 d D U . . .
H40 H 0.9212 1.0339 0.8071 0.157 Uiso 1 1 calc R . . . .
C14 C 0.7687(7) 0.6151(5) 0.4839(9) 0.128(5) Uani 1 1 d D U . . .
C17 C 0.7259(7) 0.6411(6) 0.5118(11) 0.132(6) Uani 1 1 d D U . . .
H17A H 0.7008 0.6517 0.4832 0.198 Uiso 1 1 calc GR . . . .
H17B H 0.7447 0.6626 0.5312 0.198 Uiso 1 1 calc GR . . . .
H17C H 0.7046 0.6258 0.5390 0.198 Uiso 1 1 calc GR . . . .
C15 C 0.7993(8) 0.6401(6) 0.4393(11) 0.143(6) Uani 1 1 d D U . . .
H15A H 0.8249 0.6234 0.4180 0.214 Uiso 1 1 calc GR . . . .
H15B H 0.8202 0.6609 0.4580 0.214 Uiso 1 1 calc GR . . . .
H15C H 0.7722 0.6517 0.4135 0.214 Uiso 1 1 calc GR . . . .
C134 C 0.4596(9) 0.8143(5) 0.6523(10) 0.119(6) Uani 1 1 d D U . . .
H13A H 0.4941 0.8204 0.6722 0.179 Uiso 1 1 calc GR . . . .
H13B H 0.4649 0.8184 0.6119 0.179 Uiso 1 1 calc GR . . . .
H13C H 0.4495 0.7870 0.6591 0.179 Uiso 1 1 calc GR . . . .
C71 C 0.9930(10) 0.8593(7) 0.9202(13) 0.172(8) Uani 1 1 d D U . . .
H71A H 0.9641 0.8773 0.9072 0.259 Uiso 1 1 calc R . . . .
H71B H 1.0167 0.8519 0.8885 0.259 Uiso 1 1 calc R . . . .
H71C H 0.9756 0.8359 0.9360 0.259 Uiso 1 1 calc R . . . .
C70 C 0.9908(10) 0.8881(7) 1.0166(12) 0.164(7) Uani 1 1 d D U . . .
H70A H 1.0134 0.8977 1.0478 0.246 Uiso 1 1 calc GR . . . .
H70B H 0.9718 0.8640 1.0281 0.246 Uiso 1 1 calc GR . . . .
H70C H 0.9632 0.9079 1.0063 0.246 Uiso 1 1 calc GR . . . .
C68 C 1.0283(9) 0.8794(6) 0.9657(12) 0.158(6) Uani 1 1 d D U . . .
C69 C 1.0717(9) 0.8492(7) 0.9832(14) 0.167(8) Uani 1 1 d D U . . .
H69A H 1.0957 0.8603 1.0123 0.251 Uiso 1 1 calc R . . . .
H69B H 1.0531 0.8259 0.9980 0.251 Uiso 1 1 calc R . . . .
H69C H 1.0942 0.8420 0.9505 0.251 Uiso 1 1 calc R . . . .
C30 C 1.0096(7) 0.6250(5) 0.4637(10) 0.133(5) Uani 1 1 d D U . . .
O14 O 0.4010(4) 0.6999(3) 0.6728(4) 0.064(2) Uani 1 1 d . U . . .
C124 C 0.3878(5) 0.5498(4) 0.5796(7) 0.057(3) Uani 1 1 d . U . . .
C136 C 0.4027(7) 0.9026(5) 0.8650(9) 0.078(4) Uani 1 1 d . U . . .
N11 N 0.4264(5) 0.6623(3) 0.7736(5) 0.061(2) Uani 1 1 d . U . . .
C112 C 0.4472(6) 0.6223(4) 0.8603(7) 0.065(3) Uani 1 1 d . U . . .
H11A H 0.4104 0.6095 0.8590 0.077 Uiso 1 1 calc R . . . .
H11B H 0.4740 0.6053 0.8403 0.077 Uiso 1 1 calc R . . . .
C107 C 0.4440(6) 0.6615(4) 0.8310(6) 0.060(3) Uani 1 1 d . U . . .
H107 H 0.4819 0.6734 0.8325 0.072 Uiso 1 1 calc R . . . .
C132 C 0.4134(9) 0.8410(5) 0.6735(8) 0.112(4) Uani 1 1 d D U . . .
C120 C 0.3637(7) 0.6957(4) 0.5596(7) 0.083(3) Uani 1 1 d D U . . .
C23 C 0.9991(6) 0.4820(5) 0.4026(9) 0.098(5) Uani 1 1 d . U . . .
H23 H 1.0205 0.4597 0.3933 0.117 Uiso 1 1 calc R . . . .
C20 C 0.5143(3) 0.5560(3) 0.4706(5) 0.104(6) Uani 1 1 d . U . . .
H20 H 0.4935 0.5729 0.4944 0.125 Uiso 1 1 calc R . . . .
C19 C 0.5718(3) 0.5582(3) 0.4699(5) 0.112(6) Uani 1 1 d G U . . .
H19 H 0.5904 0.5765 0.4932 0.135 Uiso 1 1 calc R . . . .
C18 C 0.6022(2) 0.5335(3) 0.4351(5) 0.059(3) Uani 1 1 d G U . . .
C22 C 0.5749(3) 0.5067(3) 0.4010(5) 0.093(5) Uani 1 1 d G U . . .
H22 H 0.5956 0.4898 0.3772 0.112 Uiso 1 1 calc R . . . .
C21 C 0.5174(3) 0.5045(3) 0.4017(5) 0.092(5) Uani 1 1 d G U . . .
H21 H 0.4987 0.4862 0.3784 0.111 Uiso 1 1 calc R . . . .
N3 N 0.4870(2) 0.5292(3) 0.4365(4) 0.054(3) Uani 1 1 d G U . . .
C43 C 0.8924(9) 1.1239(7) 0.8287(12) 0.159(7) Uani 1 1 d D U . . .
H43A H 0.8711 1.1447 0.8096 0.190 Uiso 1 1 calc R . . . .
H43B H 0.9081 1.1353 0.8635 0.190 Uiso 1 1 calc R . . . .
C4 C 0.9241(8) 0.3819(8) 0.3140(11) 0.148(7) Uani 1 1 d D U . . .
H4 H 0.9339 0.3554 0.3200 0.177 Uiso 1 1 calc R . . . .
C1 C 0.8709(6) 0.4563(7) 0.3400(10) 0.120(5) Uani 1 1 d . U . . .
H1 H 0.8850 0.4716 0.3072 0.144 Uiso 1 1 calc R . . . .
C3 C 0.9586(7) 0.4190(7) 0.3362(11) 0.136(6) Uani 1 1 d . U . . .
H3A H 0.9905 0.4101 0.3591 0.163 Uiso 1 1 calc R . . . .
H3B H 0.9729 0.4343 0.3040 0.163 Uiso 1 1 calc R . . . .
C16 C 0.8102(7) 0.6037(6) 0.5296(10) 0.133(6) Uani 1 1 d D U . . .
H16A H 0.8389 0.5868 0.5134 0.199 Uiso 1 1 calc R . . . .
H16B H 0.8275 0.6273 0.5450 0.199 Uiso 1 1 calc R . . . .
H16C H 0.7908 0.5896 0.5597 0.199 Uiso 1 1 calc R . . . .
C42 C 0.9403(9) 1.1124(8) 0.7908(12) 0.166(7) Uani 1 1 d D U . . .
H42A H 0.9634 1.1354 0.7812 0.199 Uiso 1 1 calc R . . . .
H42B H 0.9266 1.1003 0.7556 0.199 Uiso 1 1 calc R . . . .
C135 C 0.4187(12) 0.8844(5) 0.6522(10) 0.132(6) Uani 1 1 d D U . . .
H13D H 0.3838 0.8983 0.6592 0.199 Uiso 1 1 calc GR . . . .
H13E H 0.4267 0.8845 0.6118 0.199 Uiso 1 1 calc GR . . . .
H13F H 0.4489 0.8974 0.6724 0.199 Uiso 1 1 calc GR . . . .
C31 C 1.0526(7) 0.6569(6) 0.4811(12) 0.142(7) Uani 1 1 d D U . . .
H31A H 1.0789 0.6611 0.4502 0.213 Uiso 1 1 calc R . . . .
H31B H 1.0332 0.6814 0.4894 0.213 Uiso 1 1 calc R . . . .
H31C H 1.0728 0.6482 0.5146 0.213 Uiso 1 1 calc R . . . .
C39 C 0.8852(8) 1.0633(7) 0.8819(10) 0.122(4) Uani 1 1 d D U . . .
H39 H 0.8997 1.0765 0.9165 0.147 Uiso 1 1 calc R . . . .
C5 C 0.8742(8) 0.3957(7) 0.2824(11) 0.145(7) Uani 1 1 d D U . . .
H5 H 0.8661 0.3881 0.2448 0.174 Uiso 1 1 calc R . . . .
C6 C 0.8375(8) 0.4233(7) 0.3167(11) 0.135(6) Uani 1 1 d D U . . .
H6A H 0.8076 0.4337 0.2925 0.162 Uiso 1 1 calc R . . . .
H6B H 0.8201 0.4086 0.3480 0.162 Uiso 1 1 calc R . . . .
C32 C 0.9744(8) 0.6397(7) 0.4138(11) 0.149(6) Uani 1 1 d D U . . .
H32A H 0.9982 0.6433 0.3808 0.223 Uiso 1 1 calc R . . . .
H32B H 0.9455 0.6204 0.4051 0.223 Uiso 1 1 calc R . . . .
H32C H 0.9569 0.6646 0.4237 0.223 Uiso 1 1 calc R . . . .
C121 C 0.3182(8) 0.7206(5) 0.5888(7) 0.093(5) Uani 1 1 d D U . . .
H12D H 0.2831 0.7061 0.5887 0.139 Uiso 1 1 calc GR . . . .
H12E H 0.3135 0.7453 0.5684 0.139 Uiso 1 1 calc GR . . . .
H12F H 0.3294 0.7260 0.6276 0.139 Uiso 1 1 calc GR . . . .
O16 O 0.5000 0.7294(7) 0.7500 0.054(4) Uani 0.517(5) 2 d S TU P A 1
O9 O 0.5000 0.7872(15) 1.2500 0.168(8) Uani 0.517(5) 2 d S TU P A 1
O7 O 0.3999(10) 0.7996(4) 1.1772(6) 0.169(5) Uani 1 1 d . U . . .
C109 C 0.4225(7) 0.6952(4) 0.9254(7) 0.071(3) Uani 1 1 d D U . . .
H10A H 0.4580 0.7098 0.9259 0.086 Uiso 1 1 calc R . . . .
H10B H 0.3946 0.7108 0.9461 0.086 Uiso 1 1 calc R . . . .
O8 O 0.4053(10) 0.7332(4) 1.2314(6) 0.172(5) Uani 1 1 d . U . . .
C111 C 0.4650(6) 0.6270(4) 0.9205(6) 0.069(3) Uani 1 1 d D U . . .
H11C H 0.5041 0.6357 0.9213 0.083 Uiso 1 1 calc R . . . .
H11D H 0.4631 0.6012 0.9393 0.083 Uiso 1 1 calc R . . . .
C101 C 0.4036(9) 0.6705(3) 1.3575(4) 0.126(6) Uani 1 1 d . U . . .
H101 H 0.4053 0.6727 1.3972 0.151 Uiso 1 1 calc R . . . .
C96 C 0.4079(9) 0.7037(3) 1.3240(5) 0.149(6) Uani 1 1 d DG U . . .
C97 C 0.4053(10) 0.7004(3) 1.2659(5) 0.162(6) Uani 1 1 d G U . . .
C98 C 0.3986(10) 0.6639(4) 1.2411(4) 0.154(6) Uani 1 1 d DG U . . .
C99 C 0.3943(8) 0.6307(3) 1.2745(5) 0.125(6) Uani 1 1 d G U . . .
H99 H 0.3897 0.6057 1.2576 0.150 Uiso 1 1 calc R . . . .
C100 C 0.3969(8) 0.6340(3) 1.3327(5) 0.110(5) Uani 1 1 d G U . . .
N9 N 0.4178(12) 0.8399(5) 1.2811(8) 0.170(5) Uani 1 1 d . U . . .
C110 C 0.4300(7) 0.6560(4) 0.9538(7) 0.078(4) Uani 1 1 d D U . . .
H11E H 0.3930 0.6443 0.9605 0.094 Uiso 1 1 calc R . . . .
H11F H 0.4477 0.6602 0.9909 0.094 Uiso 1 1 calc R . . . .
C123 C 0.3394(8) 0.6833(6) 0.5018(7) 0.102(5) Uani 1 1 d D U . . .
H12G H 0.3682 0.6704 0.4796 0.153 Uiso 1 1 calc GR . . . .
H12H H 0.3261 0.7065 0.4817 0.153 Uiso 1 1 calc GR . . . .
H12I H 0.3084 0.6652 0.5078 0.153 Uiso 1 1 calc GR . . . .
C83 C 0.4134(14) 0.8689(6) 1.2460(10) 0.163(7) Uani 1 1 d . U . . .
H83 H 0.4182 0.8941 1.2623 0.196 Uiso 1 1 calc R . . . .
N10 N 0.4228(13) 0.7747(5) 1.3329(8) 0.173(5) Uani 1 1 d D U . . .
C78 C 0.4358(16) 0.8093(6) 1.3681(10) 0.175(6) Uani 1 1 d D U . . .
H78 H 0.4767 0.8130 1.3639 0.210 Uiso 1 1 calc R . . . .
C77 C 0.4109(15) 0.8434(6) 1.3395(10) 0.172(6) Uani 1 1 d D U . . .
H77 H 0.3701 0.8426 1.3471 0.206 Uiso 1 1 calc R . . . .
C102 C 0.3980(12) 0.6606(5) 1.1776(7) 0.168(6) Uani 1 1 d D U . . .
C82 C 0.4334(15) 0.8818(6) 1.3663(10) 0.173(7) Uani 1 1 d D U . . .
H82A H 0.4737 0.8839 1.3590 0.207 Uiso 1 1 calc R . . . .
H82B H 0.4149 0.9046 1.3487 0.207 Uiso 1 1 calc R . . . .
C79 C 0.4263(15) 0.8102(6) 1.4273(10) 0.175(7) Uani 1 1 d . U . . .
H79A H 0.4473 0.7883 1.4444 0.211 Uiso 1 1 calc R . . . .
H79B H 0.3864 0.8049 1.4339 0.211 Uiso 1 1 calc R . . . .
C105 C 0.3938(16) 0.6182(5) 1.1595(10) 0.183(8) Uani 1 1 d D U . . .
H10C H 0.3935 0.6167 1.1183 0.274 Uiso 1 1 calc R . . . .
H10D H 0.4257 0.6037 1.1740 0.274 Uiso 1 1 calc R . . . .
H10E H 0.3595 0.6068 1.1744 0.274 Uiso 1 1 calc R . . . .
C95 C 0.4170(15) 0.7403(5) 1.3564(10) 0.168(7) Uani 1 1 d D U . . .
H95 H 0.4187 0.7386 1.3962 0.202 Uiso 1 1 calc R . . . .
C93 C 0.3235(14) 0.7879(8) 1.0756(12) 0.215(9) Uani 1 1 d D U . . .
H93A H 0.2963 0.8091 1.0738 0.322 Uiso 1 1 calc GR . . . .
H93B H 0.3249 0.7775 1.1140 0.322 Uiso 1 1 calc GR . . . .
H93C H 0.3127 0.7670 1.0496 0.322 Uiso 1 1 calc GR . . . .
C91 C 0.3790(17) 0.8121(7) 0.9960(9) 0.202(9) Uani 1 1 d D U . . .
H91A H 0.3517 0.8328 0.9889 0.303 Uiso 1 1 calc R . . . .
H91B H 0.4155 0.8206 0.9828 0.303 Uiso 1 1 calc R . . . .
H91C H 0.3680 0.7883 0.9759 0.303 Uiso 1 1 calc R . . . .
C81 C 0.4231(15) 0.8824(6) 1.4287(11) 0.174(8) Uani 1 1 d . U . . .
H81A H 0.4420 0.9056 1.4448 0.209 Uiso 1 1 calc R . . . .
H81B H 0.3829 0.8857 1.4352 0.209 Uiso 1 1 calc R . . . .
C80 C 0.4417(16) 0.8480(7) 1.4590(10) 0.185(8) Uani 1 1 d . U . . .
H80A H 0.4245 0.8476 1.4968 0.222 Uiso 1 1 calc R . . . .
H80B H 0.4825 0.8492 1.4640 0.222 Uiso 1 1 calc R . . . .
C133 C 0.3617(9) 0.8290(6) 0.6416(10) 0.124(6) Uani 1 1 d D U . . .
H13G H 0.3304 0.8453 0.6536 0.186 Uiso 1 1 calc R . . . .
H13H H 0.3678 0.8326 0.6012 0.186 Uiso 1 1 calc R . . . .
H13I H 0.3533 0.8015 0.6493 0.186 Uiso 1 1 calc R . . . .
C104 C 0.4526(12) 0.6745(6) 1.1521(10) 0.170(7) Uani 1 1 d D U . . .
H10F H 0.4833 0.6593 1.1680 0.255 Uiso 1 1 calc GR . . . .
H10G H 0.4581 0.7023 1.1608 0.255 Uiso 1 1 calc GR . . . .
H10H H 0.4516 0.6710 1.1113 0.255 Uiso 1 1 calc GR . . . .
C106 C 0.3939(8) 0.5991(5) 1.3690(8) 0.080(4) Uani 1 1 d . U . . .
O12 O 0.3945(4) 0.6020(3) 1.4199(5) 0.066(3) Uani 1 1 d . U . . .
O13 O 0.3872(5) 0.5663(3) 1.3448(4) 0.076(3) Uani 1 1 d . U . . .
C103 C 0.3488(13) 0.6829(7) 1.1512(11) 0.183(8) Uani 1 1 d D U . . .
H10I H 0.3412 0.6724 1.1136 0.274 Uiso 1 1 calc GR . . . .
H10J H 0.3580 0.7107 1.1483 0.274 Uiso 1 1 calc GR . . . .
H10K H 0.3158 0.6797 1.1749 0.274 Uiso 1 1 calc GR . . . .
C35 C 1.2126(4) 0.5698(3) 0.4685(6) 0.125(6) Uani 1 1 d . U . . .
H35 H 1.1949 0.5908 0.4875 0.150 Uiso 1 1 calc R . . . .
C36 C 1.2701(3) 0.5674(3) 0.4676(6) 0.115(6) Uani 1 1 d G U . . .
H36 H 1.2918 0.5868 0.4859 0.138 Uiso 1 1 calc R . . . .
N4 N 1.2960(2) 0.5367(3) 0.4398(4) 0.064(3) Uani 1 1 d G U . . .
C37 C 1.2643(3) 0.5083(3) 0.4130(5) 0.100(5) Uani 1 1 d G U . . .
H37 H 1.2820 0.4873 0.3940 0.120 Uiso 1 1 calc R . . . .
C38 C 1.2068(3) 0.5107(3) 0.4139(6) 0.102(6) Uani 1 1 d G U . . .
H38 H 1.1851 0.4913 0.3956 0.123 Uiso 1 1 calc R . . . .
C34 C 1.1809(2) 0.5414(3) 0.4417(6) 0.089(4) Uani 1 1 d G U . . .
C76 C 1.2260(5) 0.9881(4) 0.8997(6) 0.118(5) Uani 1 1 d . U . . .
H76 H 1.2057 1.0029 0.8729 0.141 Uiso 1 1 calc R . . . .
C75 C 1.2835(5) 0.9904(3) 0.9013(5) 0.109(5) Uani 1 1 d G U . . .
H75 H 1.3026 1.0069 0.8756 0.130 Uiso 1 1 calc R . . . .
N8 N 1.3131(4) 0.9687(3) 0.9405(6) 0.103(4) Uani 1 1 d G U . . .
C74 C 1.2852(5) 0.9446(4) 0.9781(6) 0.130(6) Uani 1 1 d G U . . .
H74 H 1.3054 0.9297 1.0049 0.155 Uiso 1 1 calc R . . . .
C73 C 1.2276(5) 0.9422(4) 0.9765(6) 0.135(6) Uani 1 1 d G U . . .
H73 H 1.2086 0.9258 1.0022 0.162 Uiso 1 1 calc R . . . .
C72 C 1.1980(4) 0.9640(4) 0.9373(7) 0.112(5) Uani 1 1 d G U . . .
C54 C 0.8279(10) 0.8848(8) 1.0046(12) 0.166(8) Uani 1 1 d D U . . .
H54A H 0.8089 0.8960 1.0373 0.250 Uiso 1 1 calc R . . . .
H54B H 0.8419 0.8588 1.0140 0.250 Uiso 1 1 calc R . . . .
H54C H 0.8590 0.9018 0.9939 0.250 Uiso 1 1 calc R . . . .
C52 C 0.7869(9) 0.8818(6) 0.9552(11) 0.153(6) Uani 1 1 d D U . . .
C53 C 0.8140(10) 0.8646(8) 0.9026(11) 0.161(7) Uani 1 1 d D U . . .
H53A H 0.7865 0.8631 0.8723 0.242 Uiso 1 1 calc R . . . .
H53B H 0.8449 0.8813 0.8909 0.242 Uiso 1 1 calc R . . . .
H53C H 0.8278 0.8383 0.9110 0.242 Uiso 1 1 calc R . . . .
C55 C 0.7426(9) 0.8529(7) 0.9770(11) 0.162(7) Uani 1 1 d D U . . .
H55A H 0.7250 0.8636 1.0108 0.243 Uiso 1 1 calc R . . . .
H55B H 0.7144 0.8488 0.9479 0.243 Uiso 1 1 calc R . . . .
H55C H 0.7602 0.8278 0.9862 0.243 Uiso 1 1 calc R . . . .
C41 C 0.9732(8) 1.0829(7) 0.8260(12) 0.152(7) Uani 1 1 d D U . . .
H41A H 0.9866 1.0956 0.8608 0.182 Uiso 1 1 calc R . . . .
H41B H 1.0059 1.0738 0.8044 0.182 Uiso 1 1 calc R . . . .
C90 C 0.3816(12) 0.8037(5) 1.0589(9) 0.190(7) Uani 1 1 d D U . . .
C92 C 0.4249(13) 0.7718(6) 1.0613(11) 0.193(8) Uani 1 1 d D U . . .
H92A H 0.4614 0.7829 1.0530 0.290 Uiso 1 1 calc GR . . . .
H92B H 0.4160 0.7516 1.0334 0.290 Uiso 1 1 calc GR . . . .
H92C H 0.4252 0.7601 1.0989 0.290 Uiso 1 1 calc GR . . . .
V2A V 0.3799(3) 0.71392(13) 0.7495(2) 0.0606(17) Uani 0.483(5) 1 d . U . A 2
V1A V 0.3794(9) 0.7836(2) 1.2491(4) 0.170(4) Uani 0.483(5) 1 d . U . A 2
O16A O 0.3148(9) 0.7047(5) 0.7510(9) 0.066(4) Uani 0.483(5) 1 d . U . A 2
O9A O 0.322(2) 0.7825(8) 1.2491(13) 0.167(7) Uani 0.483(5) 1 d . U . A 2
loop_
_atom_site_aniso_label
_atom_site_aniso_U_11
_atom_site_aniso_U_22
_atom_site_aniso_U_33
_atom_site_aniso_U_23
_atom_site_aniso_U_13
_atom_site_aniso_U_12
Cd1 0.0345(5) 0.0333(5) 0.0878(7) -0.0079(6) -0.0020(5) -0.0019(4)
Cd2 0.0734(7) 0.0262(6) 0.1087(9) -0.0067(7) 0.0092(6) -0.0030(5)
Fe1 0.0170(11) 0.110(2) 0.162(3) -0.044(2) 0.0006(15) 0.0041(12)
Fe2 0.0689(18) 0.118(2) 0.142(3) 0.041(2) -0.0044(18) -0.0004(16)
V2 0.074(4) 0.032(2) 0.077(3) -0.007(2) -0.011(2) 0.001(2)
V1 0.372(11) 0.042(4) 0.093(4) -0.001(3) 0.036(6) -0.003(4)
O18 0.028(4) 0.041(4) 0.104(6) -0.015(4) 0.009(4) 0.002(4)
C94 0.085(9) 0.039(5) 0.109(5) 0.005(4) 0.007(5) 0.003(5)
O11 0.119(10) 0.042(5) 0.114(7) 0.001(5) -0.008(6) 0.016(5)
C108 0.071(7) 0.044(4) 0.077(4) -0.001(3) -0.001(4) 0.004(4)
O20 0.087(7) 0.037(4) 0.124(6) -0.011(4) -0.001(5) 0.003(4)
O15 0.082(5) 0.035(3) 0.087(5) -0.003(3) -0.014(4) 0.002(3)
O17 0.060(6) 0.067(6) 0.092(5) -0.025(4) 0.004(4) -0.003(5)
O3 0.041(7) 0.095(8) 0.161(6) -0.054(5) 0.000 0.000
N12 0.084(6) 0.038(4) 0.077(4) -0.007(3) -0.007(4) 0.003(4)
C114 0.052(7) 0.035(4) 0.074(5) -0.002(3) -0.003(4) 0.000(4)
C119 0.043(7) 0.036(4) 0.073(5) -0.003(4) -0.005(5) 0.002(4)
C118 0.053(7) 0.040(4) 0.074(5) -0.008(3) -0.007(5) 0.005(4)
C117 0.077(9) 0.046(4) 0.065(6) -0.008(4) -0.007(5) 0.013(4)
C116 0.080(8) 0.047(4) 0.075(5) -0.009(3) -0.011(5) 0.015(4)
C115 0.054(7) 0.034(4) 0.072(4) -0.004(3) -0.002(4) 0.002(4)
O4 0.057(4) 0.133(6) 0.138(9) 0.048(6) -0.017(4) -0.015(4)
C29 0.027(4) 0.087(6) 0.119(11) -0.003(7) 0.014(5) 0.005(4)
C28 0.028(4) 0.090(6) 0.138(11) -0.001(7) 0.005(5) 0.002(3)
C27 0.037(5) 0.090(7) 0.165(14) -0.008(7) 0.006(5) 0.003(4)
C26 0.038(4) 0.099(6) 0.208(13) -0.031(6) -0.002(5) 0.009(4)
C25 0.025(4) 0.097(6) 0.186(13) -0.030(6) 0.006(5) 0.015(3)
C24 0.026(4) 0.095(6) 0.157(12) -0.028(6) 0.010(5) 0.011(3)
O19 0.133(9) 0.036(4) 0.119(6) -0.012(4) -0.006(5) -0.002(5)
O1 0.028(3) 0.112(6) 0.194(9) -0.038(6) -0.003(4) 0.000(3)
O5 0.057(4) 0.120(6) 0.175(10) 0.032(6) -0.011(5) 0.003(4)
O2 0.021(3) 0.107(6) 0.204(10) -0.038(6) 0.003(4) 0.011(3)
C85 0.347(17) 0.040(5) 0.096(6) 0.004(4) 0.035(7) -0.009(6)
C84 0.326(18) 0.040(5) 0.098(6) 0.001(4) 0.032(7) -0.002(7)
C89 0.267(19) 0.041(6) 0.096(6) 0.001(5) 0.022(7) 0.000(7)
C88 0.169(14) 0.038(4) 0.098(6) 0.003(4) 0.021(7) 0.004(5)
C87 0.247(18) 0.043(5) 0.094(7) 0.003(5) 0.030(8) -0.009(6)
C86 0.350(17) 0.044(5) 0.096(6) 0.006(4) 0.031(7) -0.016(7)
C113 0.063(7) 0.032(4) 0.075(5) 0.001(3) -0.003(4) -0.003(4)
C50 0.061(5) 0.140(8) 0.102(10) 0.020(7) 0.002(5) -0.015(4)
C51 0.064(5) 0.141(8) 0.116(13) 0.026(8) 0.002(5) -0.015(5)
C46 0.068(5) 0.139(7) 0.127(12) 0.032(7) 0.002(5) -0.011(4)
C47 0.049(4) 0.133(7) 0.130(11) 0.022(7) -0.019(5) -0.023(4)
C48 0.060(5) 0.138(7) 0.190(13) 0.040(7) -0.017(6) -0.023(4)
C49 0.058(5) 0.135(8) 0.140(13) 0.022(8) -0.019(6) -0.023(5)
C126 0.088(9) 0.036(4) 0.096(5) -0.007(3) -0.006(5) 0.003(4)
C127 0.089(10) 0.037(4) 0.104(6) -0.012(4) -0.004(6) 0.001(5)
C128 0.089(10) 0.036(4) 0.118(6) -0.007(4) -0.005(6) 0.004(4)
C129 0.120(12) 0.042(5) 0.118(6) -0.004(4) -0.002(6) 0.000(6)
C130 0.125(11) 0.041(4) 0.117(6) 0.000(4) -0.002(5) -0.003(5)
C131 0.092(9) 0.034(4) 0.096(5) -0.008(3) -0.008(5) -0.001(4)
N2 0.029(4) 0.112(6) 0.169(9) -0.045(6) 0.005(4) 0.008(4)
N1 0.027(4) 0.119(7) 0.166(8) -0.051(6) 0.000(4) 0.004(4)
N5 0.066(5) 0.133(6) 0.143(9) 0.051(6) 0.008(5) 0.002(4)
C12 0.021(4) 0.077(6) 0.109(9) 0.005(6) -0.003(4) 0.002(3)
C11 0.026(4) 0.085(7) 0.149(11) -0.011(7) -0.006(5) -0.001(4)
C10 0.029(4) 0.100(7) 0.197(11) -0.034(7) -0.002(5) -0.001(4)
C9 0.025(4) 0.107(6) 0.180(11) -0.031(7) -0.006(5) 0.003(4)
C8 0.019(4) 0.096(6) 0.140(10) -0.015(7) -0.002(4) 0.003(3)
C13 0.019(4) 0.088(7) 0.120(10) -0.004(7) -0.007(4) 0.005(4)
O6 0.073(9) 0.111(9) 0.146(6) 0.041(6) 0.000 0.000
C62 0.071(5) 0.105(7) 0.166(13) 0.028(7) -0.002(5) 0.004(4)
C63 0.062(5) 0.106(7) 0.180(13) 0.034(7) -0.008(5) 0.004(4)
C64 0.075(5) 0.114(7) 0.228(14) 0.046(8) -0.021(6) 0.004(5)
C65 0.078(6) 0.098(8) 0.184(15) 0.030(9) -0.016(6) 0.008(5)
C66 0.079(5) 0.089(7) 0.157(12) 0.013(8) -0.008(5) 0.011(4)
C67 0.069(5) 0.092(8) 0.162(14) 0.027(8) 0.001(6) 0.006(5)
O10 0.089(7) 0.054(6) 0.113(5) 0.007(4) 0.008(4) -0.005(5)
C125 0.081(9) 0.036(4) 0.087(6) -0.011(3) -0.007(5) 0.000(4)
C59 0.074(6) 0.103(9) 0.164(12) 0.033(9) -0.006(6) -0.021(5)
N7 0.081(5) 0.053(6) 0.118(8) -0.020(6) 0.011(4) -0.010(4)
C58 0.070(6) 0.119(10) 0.188(13) 0.052(10) 0.024(6) -0.004(5)
C57 0.072(6) 0.151(11) 0.183(13) 0.064(11) 0.027(6) -0.002(6)
C56 0.058(5) 0.128(9) 0.110(10) 0.022(8) 0.003(5) -0.015(5)
C60 0.074(6) 0.133(10) 0.146(12) 0.040(10) -0.006(6) -0.020(5)
N6 0.072(5) 0.123(7) 0.151(9) 0.040(7) 0.003(5) 0.004(4)
C45 0.063(5) 0.133(8) 0.136(13) 0.031(8) 0.009(5) 0.000(5)
C2 0.033(5) 0.124(7) 0.191(10) -0.067(7) 0.005(5) 0.009(4)
C61 0.072(5) 0.115(9) 0.175(13) 0.040(9) 0.004(5) 0.005(5)
C44 0.082(8) 0.153(10) 0.184(14) 0.077(9) 0.026(8) 0.021(7)
C7 0.027(4) 0.106(8) 0.148(11) -0.026(8) -0.001(5) 0.003(4)
C33 0.047(8) 0.108(12) 0.247(14) -0.047(9) 0.006(8) 0.007(8)
C122 0.118(8) 0.078(8) 0.105(11) 0.011(7) -0.001(7) 0.022(6)
C40 0.072(6) 0.150(8) 0.170(9) 0.067(7) 0.022(6) 0.017(5)
C14 0.040(6) 0.111(8) 0.234(12) -0.051(7) -0.007(6) -0.004(5)
C17 0.041(7) 0.114(10) 0.241(15) -0.058(10) -0.007(8) -0.004(7)
C15 0.060(9) 0.119(10) 0.249(14) -0.044(10) 0.003(9) -0.011(8)
C134 0.157(12) 0.067(9) 0.133(12) 0.002(8) 0.015(8) -0.016(8)
C71 0.099(12) 0.133(12) 0.285(17) 0.045(11) -0.038(11) -0.002(9)
C70 0.087(11) 0.139(14) 0.265(16) 0.061(11) -0.029(9) -0.002(9)
C68 0.087(8) 0.120(8) 0.265(15) 0.060(8) -0.028(8) -0.005(6)
C69 0.086(10) 0.120(11) 0.30(2) 0.062(11) -0.032(11) -0.009(8)
C30 0.045(7) 0.105(7) 0.247(13) -0.037(7) 0.003(6) 0.011(5)
O14 0.077(5) 0.036(4) 0.080(4) -0.005(3) -0.011(3) 0.004(3)
C124 0.033(6) 0.046(4) 0.091(5) -0.017(3) 0.003(4) 0.000(4)
C136 0.077(9) 0.036(4) 0.120(6) -0.010(4) -0.002(5) 0.002(5)
N11 0.071(6) 0.035(4) 0.078(4) -0.002(3) -0.005(4) -0.002(3)
C112 0.062(8) 0.046(5) 0.086(6) 0.004(4) 0.003(5) 0.005(5)
C107 0.061(6) 0.042(4) 0.077(4) -0.002(3) -0.002(4) 0.000(4)
C132 0.155(11) 0.062(7) 0.119(6) 0.002(5) 0.005(6) -0.013(6)
C120 0.108(8) 0.058(5) 0.082(6) 0.000(5) -0.004(6) 0.031(5)
C23 0.028(4) 0.097(7) 0.168(13) -0.033(7) 0.006(5) 0.012(4)
C20 0.026(5) 0.125(10) 0.161(11) -0.074(10) -0.002(5) -0.010(5)
C19 0.028(5) 0.140(11) 0.169(12) -0.073(10) 0.002(5) -0.009(5)
C18 0.019(4) 0.070(7) 0.089(8) 0.005(6) -0.003(4) -0.001(3)
C22 0.025(4) 0.108(9) 0.147(11) -0.043(9) 0.004(5) -0.008(4)
C21 0.028(5) 0.100(9) 0.149(10) -0.052(9) 0.005(5) -0.008(4)
N3 0.014(4) 0.063(6) 0.086(6) -0.006(5) -0.005(3) -0.005(3)
C43 0.093(9) 0.163(10) 0.220(16) 0.092(10) 0.032(10) 0.016(8)
C4 0.076(8) 0.152(10) 0.215(15) -0.092(10) -0.016(9) 0.025(7)
C1 0.035(5) 0.137(8) 0.186(9) -0.070(7) 0.003(5) 0.009(5)
C3 0.051(7) 0.153(10) 0.203(13) -0.088(10) -0.001(7) 0.026(6)
C16 0.045(8) 0.119(12) 0.235(13) -0.058(10) -0.011(8) 0.003(8)
C42 0.097(9) 0.175(12) 0.226(15) 0.097(11) 0.037(10) 0.025(8)
C135 0.188(16) 0.068(7) 0.141(13) 0.008(7) 0.002(10) -0.017(8)
C31 0.054(8) 0.112(10) 0.261(18) -0.041(10) 0.003(9) 0.004(7)
C39 0.067(6) 0.131(7) 0.169(11) 0.057(6) 0.019(6) 0.007(5)
C5 0.073(8) 0.157(11) 0.205(14) -0.084(11) -0.011(8) 0.019(8)
C6 0.061(7) 0.140(10) 0.204(14) -0.076(10) -0.011(7) 0.007(6)
C32 0.060(9) 0.126(12) 0.260(14) -0.023(9) -0.006(8) 0.010(8)
C121 0.114(9) 0.068(8) 0.096(10) -0.009(7) -0.005(7) 0.030(7)
O16 0.055(4) 0.052(4) 0.054(4) 0.000 -0.0007(14) 0.000
O9 0.369(11) 0.048(13) 0.086(13) 0.000 0.036(7) 0.000
O7 0.367(13) 0.042(5) 0.098(5) 0.006(4) 0.039(6) -0.008(6)
C109 0.081(9) 0.059(6) 0.075(5) 0.000(4) -0.002(5) 0.012(5)
O8 0.371(13) 0.048(4) 0.096(7) 0.006(4) 0.033(7) -0.001(5)
C111 0.060(7) 0.060(6) 0.088(6) 0.003(5) 0.001(5) 0.006(6)
C101 0.235(18) 0.045(5) 0.097(7) 0.009(5) 0.017(8) -0.009(6)
C96 0.307(18) 0.046(5) 0.093(6) 0.008(4) 0.030(7) -0.007(6)
C97 0.343(17) 0.049(5) 0.096(6) 0.008(4) 0.024(7) -0.008(6)
C98 0.318(17) 0.047(5) 0.097(6) 0.008(4) 0.013(7) -0.002(6)
C99 0.235(18) 0.043(6) 0.097(6) 0.006(5) 0.006(7) -0.003(7)
C100 0.189(14) 0.044(5) 0.096(6) 0.009(4) 0.009(7) -0.005(6)
N9 0.358(13) 0.052(5) 0.100(6) 0.000(4) 0.032(6) -0.001(6)
C110 0.088(9) 0.065(6) 0.082(6) 0.009(5) 0.007(6) 0.015(6)
C123 0.123(11) 0.088(10) 0.094(7) -0.009(6) -0.015(7) 0.043(8)
C83 0.345(19) 0.046(6) 0.100(6) -0.002(5) 0.029(7) -0.001(7)
N10 0.370(13) 0.053(5) 0.096(6) 0.003(4) 0.036(7) -0.008(6)
C78 0.364(16) 0.059(6) 0.101(6) -0.004(5) 0.032(7) -0.007(7)
C77 0.353(16) 0.061(6) 0.102(6) -0.004(5) 0.029(7) -0.010(7)
C102 0.352(19) 0.056(8) 0.098(7) 0.006(6) 0.008(8) -0.002(9)
C82 0.33(2) 0.066(7) 0.118(9) -0.015(6) 0.026(10) -0.002(9)
C79 0.36(2) 0.066(8) 0.100(7) -0.008(6) 0.031(8) -0.011(10)
C105 0.37(2) 0.060(8) 0.118(13) -0.001(7) -0.003(12) -0.004(10)
C95 0.351(19) 0.050(5) 0.103(8) 0.005(5) 0.030(8) -0.011(7)
C93 0.400(19) 0.096(13) 0.148(16) -0.012(12) 0.033(12) -0.046(10)
C91 0.41(2) 0.073(12) 0.122(9) -0.008(8) 0.025(11) -0.025(13)
C81 0.34(2) 0.068(8) 0.118(9) -0.015(7) 0.026(11) -0.015(10)
C80 0.36(2) 0.073(8) 0.117(9) -0.014(7) 0.024(10) -0.008(11)
C133 0.161(11) 0.073(10) 0.137(11) -0.001(8) -0.004(8) -0.012(8)
C104 0.356(19) 0.056(11) 0.098(12) -0.005(9) 0.014(10) -0.004(10)
C106 0.109(10) 0.042(5) 0.091(6) 0.006(4) 0.003(6) -0.002(5)
O12 0.069(6) 0.038(5) 0.091(6) 0.009(4) 0.006(5) -0.003(5)
O13 0.103(8) 0.043(4) 0.083(6) 0.007(4) 0.004(6) -0.005(5)
C103 0.36(2) 0.074(11) 0.114(13) 0.007(9) -0.002(10) 0.002(11)
C35 0.035(5) 0.120(9) 0.222(15) -0.061(10) -0.004(6) 0.004(5)
C36 0.035(5) 0.108(9) 0.202(14) -0.052(10) -0.002(6) 0.003(5)
N4 0.020(4) 0.063(6) 0.109(7) 0.004(6) -0.008(4) -0.005(4)
C37 0.016(4) 0.104(8) 0.180(13) -0.047(9) -0.007(5) -0.007(4)
C38 0.013(4) 0.111(8) 0.183(14) -0.045(9) -0.010(5) -0.005(4)
C34 0.035(4) 0.091(8) 0.142(11) -0.010(7) 0.003(4) -0.001(4)
C76 0.088(7) 0.086(10) 0.179(12) 0.025(9) -0.004(7) 0.008(6)
C75 0.084(7) 0.062(9) 0.180(12) 0.021(8) -0.004(7) 0.010(6)
N8 0.112(7) 0.032(7) 0.165(11) -0.003(7) -0.015(7) 0.005(5)
C74 0.102(7) 0.083(11) 0.204(13) 0.042(10) -0.018(7) 0.002(7)
C73 0.099(7) 0.104(11) 0.202(12) 0.046(10) -0.020(7) 0.002(6)
C72 0.082(5) 0.082(9) 0.171(11) 0.021(8) -0.006(5) 0.009(5)
C54 0.096(11) 0.159(15) 0.244(16) 0.047(11) -0.049(10) -0.027(10)
C52 0.081(8) 0.141(8) 0.236(15) 0.040(8) -0.037(8) -0.018(6)
C53 0.102(12) 0.137(13) 0.245(15) 0.041(10) -0.030(9) -0.009(10)
C55 0.092(10) 0.146(12) 0.247(18) 0.048(11) -0.039(10) -0.023(9)
C41 0.082(8) 0.158(10) 0.214(15) 0.083(10) 0.031(8) 0.011(7)
C90 0.393(19) 0.059(7) 0.118(8) -0.006(6) 0.029(10) -0.031(8)
C92 0.40(2) 0.063(9) 0.117(13) -0.003(9) 0.037(13) -0.025(10)
V2A 0.077(4) 0.029(3) 0.075(3) -0.007(2) -0.008(3) -0.003(2)
V1A 0.367(11) 0.048(4) 0.094(5) 0.009(3) 0.041(6) -0.002(6)
O16A 0.081(5) 0.036(8) 0.081(9) -0.011(7) -0.009(5) -0.002(5)
O9A 0.366(12) 0.043(11) 0.092(13) 0.034(9) 0.032(8) -0.005(7)
loop_
_atom_type_symbol
_atom_type_description
_atom_type_scat_dispersion_real
_atom_type_scat_dispersion_imag
_atom_type_scat_source
C C 0.0181 0.0091 'International Tables Vol C Tables 4.2.6.8 and 6.1.1.4'
H H 0.0000 0.0000 'International Tables Vol C Tables 4.2.6.8 and 6.1.1.4'
Cd Cd 0.1185 4.6533 'International Tables Vol C Tables 4.2.6.8 and 6.1.1.4'
Fe Fe -1.1336 3.1974 'International Tables Vol C Tables 4.2.6.8 and 6.1.1.4'
N N 0.0311 0.0180 'International Tables Vol C Tables 4.2.6.8 and 6.1.1.4'
O O 0.0492 0.0322 'International Tables Vol C Tables 4.2.6.8 and 6.1.1.4'
V V 0.0687 2.1097 'International Tables Vol C Tables 4.2.6.8 and 6.1.1.4'
loop_
_geom_angle_atom_site_label_1
_geom_angle_atom_site_label_2
_geom_angle_atom_site_label_3
_geom_angle
_geom_angle_site_symmetry_1
_geom_angle_site_symmetry_3
O18 Cd1 O17 129.9(4) 4_566 .
O18 Cd1 N3 88.7(3) 4_566 .
O18 Cd1 C106 113.1(5) 4_566 1_554
O18 Cd1 O12 140.0(4) 4_566 1_554
O18 Cd1 O13 85.1(4) 4_566 1_554
O18 Cd1 N4 92(3) 4_566 1_455
O17 Cd1 N3 90.2(4) . .
O17 Cd1 C106 117.0(5) . 1_554
O17 Cd1 O12 90.2(4) . 1_554
O17 Cd1 O13 144.8(4) . 1_554
N3 Cd1 C106 93.0(5) . 1_554
N3 Cd1 O13 95.4(4) . 1_554
O12 Cd1 N3 92.4(3) 1_554 .
O12 Cd1 C106 26.8(4) 1_554 1_554
O12 Cd1 O13 55.0(4) 1_554 1_554
O13 Cd1 C106 28.2(4) 1_554 1_554
N4 Cd1 O17 85(4) 1_455 .
N4 Cd1 N3 174(4) 1_455 .
N4 Cd1 C106 92(4) 1_455 1_554
N4 Cd1 O12 91(3) 1_455 1_554
N4 Cd1 O13 90(4) 1_455 1_554
O11 Cd2 O20 142.3(5) 4_577 .
O11 Cd2 O19 88.2(4) 4_577 .
O11 Cd2 O10 130.6(4) 4_577 .
O11 Cd2 N7 90.4(4) 4_577 .
O11 Cd2 C136 114.3(5) 4_577 .
O11 Cd2 N8 88(4) 4_577 1_455
O20 Cd2 O19 54.3(4) . .
O20 Cd2 C136 28.1(5) . .
O19 Cd2 C136 26.2(5) . .
O10 Cd2 O20 86.8(4) . .
O10 Cd2 O19 141.1(4) . .
O10 Cd2 N7 87.7(4) . .
O10 Cd2 C136 115.0(5) . .
O10 Cd2 N8 88(4) . 1_455
N7 Cd2 O20 95.5(4) . .
N7 Cd2 O19 94.2(4) . .
N7 Cd2 C136 96.0(5) . .
N8 Cd2 O20 90(4) 1_455 .
N8 Cd2 O19 93(5) 1_455 .
N8 Cd2 N7 172(5) 1_455 .
N8 Cd2 C136 91(5) 1_455 .
O3 Fe1 O1 103.7(6) . .
O3 Fe1 O2 112.4(6) . .
O3 Fe1 N2 101.4(6) . .
O3 Fe1 N1 107.2(6) . .
O1 Fe1 O2 93.1(5) . .
O1 Fe1 N2 152.6(7) . .
O1 Fe1 N1 84.9(6) . .
O2 Fe1 N2 87.4(5) . .
O2 Fe1 N1 139.7(7) . .
N2 Fe1 N1 77.3(5) . .
O4 Fe2 O5 95.2(6) . .
O4 Fe2 N5 84.2(6) . .
O4 Fe2 N6 141.1(7) . .
O5 Fe2 N5 150.6(7) . .
O5 Fe2 N6 85.3(6) . .
O6 Fe2 O4 110.8(7) . .
O6 Fe2 O5 103.8(6) . .
O6 Fe2 N5 103.8(7) . .
O6 Fe2 N6 106.7(7) . .
N6 Fe2 N5 77.4(6) . .
O15 V2 N12 84.4(5) . .
O15 V2 O14 89.5(5) . .
O15 V2 N11 145.7(6) . .
O14 V2 N12 135.2(5) . .
O14 V2 N11 85.6(5) . .
N11 V2 N12 75.7(5) . .
O16 V2 O15 109.8(9) . .
O16 V2 N12 103.1(4) . .
O16 V2 O14 120.5(5) . .
O16 V2 N11 101.9(9) . .
O9 V1 V1 2(3) . 3_657
O9 V1 O7 123.7(11) . .
O9 V1 O8 123(3) . .
O9 V1 N9 111(3) . .
O9 V1 N10 111.0(12) . .
O7 V1 V1 124.2(8) . 3_657
O8 V1 V1 121.2(7) . 3_657
O8 V1 O7 73.1(7) . .
N9 V1 V1 113.2(9) . 3_657
N9 V1 O7 82.1(9) . .
N9 V1 O8 125.3(12) . .
N10 V1 V1 110.6(11) . 3_657
N10 V1 O7 125.1(13) . .
N10 V1 O8 82.3(8) . .
N10 V1 N9 73.4(8) . .
C124 O18 Cd1 106.6(8) . 4_566
O11 C94 C88 113.8(16) . .
O10 C94 O11 126.5(16) . .
O10 C94 C88 119.7(16) . .
C94 O11 Cd2 109.6(11) . 4_577
N12 C108 H108 108.8 . .
N12 C108 C107 103.2(11) . .
C107 C108 H108 108.8 . .
C109 C108 H108 108.8 . .
C109 C108 N12 114.9(12) . .
C109 C108 C107 112.0(12) . .
C136 O20 Cd2 91.9(10) . .
C131 O15 V2 124.6(9) . .
C131 O15 V2A 132.4(9) . .
C124 O17 Cd1 178.7(11) . .
Fe1 O3 Fe1 166.3(9) 4_566 .
C108 N12 V2 116.1(9) . .
C108 N12 V2A 110.5(9) . .
C125 N12 V2 118.8(12) . .
C125 N12 C108 122.6(14) . .
C125 N12 V2A 123.4(12) . .
C119 C114 C115 120.0 . .
C119 C114 C113 115.0(8) . .
C115 C114 C113 125.0(8) . .
C114 C119 H119 120.0 . .
C114 C119 C118 120.0 . .
C118 C119 H119 120.0 . .
C119 C118 C124 119.2(8) . .
C117 C118 C119 120.0 . .
C117 C118 C124 120.8(8) . .
C118 C117 H117 120.0 . .
C116 C117 C118 120.0 . .
C116 C117 H117 120.0 . .
C117 C116 C120 118.3(8) . .
C115 C116 C117 120.0 . .
C115 C116 C120 121.5(8) . .
C116 C115 C114 120.0 . .
O14 C115 C114 121.0(7) . .
O14 C115 C116 118.9(7) . .
C47 O4 Fe2 134.7(12) . .
C28 C29 H29 120.0 . .
C28 C29 C24 120.0 . .
C24 C29 H29 120.0 . .
C29 C28 C27 120.0 . .
C29 C28 C34 116.5(7) . .
C27 C28 C34 123.4(7) . .
C28 C27 H27 120.0 . .
C26 C27 C28 120.0 . .
C26 C27 H27 120.0 . .
C27 C26 C25 120.0 . .
C27 C26 C30 115.0(9) . .
C25 C26 C30 125.0(9) . .
C24 C25 C26 120.0 . .
O2 C25 C26 116.3(9) . .
O2 C25 C24 123.7(9) . .
C29 C24 C23 116.7(8) . .
C25 C24 C29 120.0 . .
C25 C24 C23 123.3(9) . .
C136 O19 Cd2 93.2(12) . .
C9 O1 Fe1 128.2(11) . .
C63 O5 Fe2 125.5(11) . .
C25 O2 Fe1 127.9(10) . .
C84 C85 C86 120.0 . .
O7 C85 C84 119.6(11) . .
O7 C85 C86 120.1(10) . .
C85 C84 C89 120.0 . .
C85 C84 C83 124.8(11) . .
C89 C84 C83 114.2(12) . .
C84 C89 H89 120.0 . .
C84 C89 C88 120.0 . .
C88 C89 H89 120.0 . .
C89 C88 C94 119.6(11) . .
C87 C88 C94 120.4(11) . .
C87 C88 C89 120.0 . .
C88 C87 H87 120.0 . .
C86 C87 C88 120.0 . .
C86 C87 H87 120.0 . .
C85 C86 C90 118.7(12) . .
C87 C86 C85 120.0 . .
C87 C86 C90 120.2(12) . .
C114 C113 H113 116.1 . .
N11 C113 C114 127.9(13) . .
N11 C113 H113 116.1 . .
C51 C50 C49 120.0 . .
C51 C50 C56 121.4(10) . .
C49 C50 C56 118.6(10) . .
C50 C51 H51 120.0 . .
C46 C51 C50 120.0 . .
C46 C51 H51 120.0 . .
C47 C46 C51 120.0 . .
C45 C46 C51 116.7(11) . .
C45 C46 C47 123.3(11) . .
O4 C47 C46 117.9(10) . .
O4 C47 C48 121.9(10) . .
C46 C47 C48 120.0 . .
C47 C48 C52 119.8(11) . .
C49 C48 C47 120.0 . .
C49 C48 C52 119.9(10) . .
C50 C49 H49 120.0 . .
C48 C49 C50 120.0 . .
C48 C49 H49 120.0 . .
C127 C126 C131 120.0 . .
C127 C126 C125 117.5(9) . .
C131 C126 C125 122.0(9) . .
C126 C127 H127 120.0 . .
C128 C127 C126 120.0 . .
C128 C127 H127 120.0 . .
C127 C128 C129 120.0 . .
C127 C128 C136 119.1(11) . .
C129 C128 C136 120.9(11) . .
C128 C129 H129 120.0 . .
C128 C129 C130 120.0 . .
C130 C129 H129 120.0 . .
C129 C130 C131 120.0 . .
C129 C130 C132 116.4(9) . .
C131 C130 C132 123.1(9) . .
O15 C131 C126 120.7(9) . .
O15 C131 C130 119.1(9) . .
C130 C131 C126 120.0 . .
C2 N2 Fe1 112.0(9) . .
C23 N2 Fe1 125.1(13) . .
C23 N2 C2 122.7(14) . .
C7 N1 Fe1 122.9(13) . .
C7 N1 C1 120.6(16) . .
C1 N1 Fe1 116.5(9) . .
C45 N5 Fe2 123.9(14) . .
C45 N5 C39 119.9(16) . .
C39 N5 Fe2 114.3(11) . .
C11 C12 C13 120.0 . .
C11 C12 C18 120.4(7) . .
C13 C12 C18 119.5(7) . .
C12 C11 H11 120.0 . .
C12 C11 C10 120.0 . .
C10 C11 H11 120.0 . .
C11 C10 C14 116.8(9) . .
C9 C10 C11 120.0 . .
C9 C10 C14 123.1(9) . .
O1 C9 C10 120.1(9) . .
O1 C9 C8 119.9(9) . .
C10 C9 C8 120.0 . .
C9 C8 C7 123.6(9) . .
C13 C8 C9 120.0 . .
C13 C8 C7 116.4(9) . .
C12 C13 H13 120.0 . .
C8 C13 C12 120.0 . .
C8 C13 H13 120.0 . .
Fe2 O6 Fe2 168.4(11) . 4_577
C63 C62 C67 120.0 . .
C63 C62 C61 126.4(12) . .
C67 C62 C61 113.5(12) . .
O5 C63 C62 120.3(11) . .
O5 C63 C64 119.7(11) . .
C62 C63 C64 120.0 . .
C63 C64 C68 119.9(11) . .
C65 C64 C63 120.0 . .
C65 C64 C68 119.8(11) . .
C64 C65 H65 120.0 . .
C64 C65 C66 120.0 . .
C66 C65 H65 120.0 . .
C65 C66 C72 119.1(9) . .
C67 C66 C65 120.0 . .
C67 C66 C72 120.9(9) . .
C62 C67 H67 120.0 . .
C66 C67 C62 120.0 . .
C66 C67 H67 120.0 . .
C94 O10 Cd2 171.4(12) . .
N12 C125 C126 128.2(15) . .
N12 C125 H125 115.9 . .
C126 C125 H125 115.9 . .
N7 C59 H59 120.0 . .
N7 C59 C60 120.0 . .
C60 C59 H59 120.0 . .
C59 N7 Cd2 122.3(5) . .
C59 N7 C58 120.0 . .
C58 N7 Cd2 117.5(5) . .
N7 C58 H58 120.0 . .
N7 C58 C57 120.0 . .
C57 C58 H58 120.0 . .
C58 C57 H57 120.0 . .
C56 C57 C58 120.0 . .
C56 C57 H57 120.0 . .
C57 C56 C50 119.2(9) . .
C57 C56 C60 120.0 . .
C60 C56 C50 120.6(9) . .
C59 C60 H60 120.0 . .
C56 C60 C59 120.0 . .
C56 C60 H60 120.0 . .
C61 N6 Fe2 126.7(15) . .
C61 N6 C40 115.7(17) . .
C40 N6 Fe2 117.3(11) . .
C46 C45 N5 126.3(18) . .
C46 C45 H45 116.9 . .
N5 C45 H45 116.9 . .
N2 C2 H2 107.2 . .
N2 C2 C3 113.2(14) . .
C1 C2 N2 110.9(17) . .
C1 C2 H2 107.2 . .
C1 C2 C3 110.7(18) . .
C3 C2 H2 107.2 . .
C62 C61 H61 119.7 . .
N6 C61 C62 120.6(19) . .
N6 C61 H61 119.7 . .
H44A C44 H44B 108.9 . .
C43 C44 H44A 110.8 . .
C43 C44 H44B 110.8 . .
C39 C44 H44A 110.8 . .
C39 C44 H44B 110.8 . .
C39 C44 C43 104.8(18) . .
N1 C7 C8 124.4(16) . .
N1 C7 H7 117.8 . .
C8 C7 H7 117.8 . .
H33A C33 H33B 109.5 . .
H33A C33 H33C 109.5 . .
H33B C33 H33C 109.5 . .
C30 C33 H33A 109.5 . .
C30 C33 H33B 109.5 . .
C30 C33 H33C 109.5 . .
H12A C122 H12B 109.5 . .
H12A C122 H12C 109.5 . .
H12B C122 H12C 109.5 . .
C120 C122 H12A 109.5 . .
C120 C122 H12B 109.5 . .
C120 C122 H12C 109.5 . .
N6 C40 H40 111.6 . .
N6 C40 C39 98.8(16) . .
C39 C40 H40 111.6 . .
C41 C40 N6 114.8(17) . .
C41 C40 H40 111.6 . .
C41 C40 C39 107.7(19) . .
C10 C14 C15 107.7(16) . .
C10 C14 C16 110.8(16) . .
C17 C14 C10 115.5(13) . .
C17 C14 C15 107.6(18) . .
C17 C14 C16 106.5(17) . .
C16 C14 C15 108.5(16) . .
C14 C17 H17A 109.5 . .
C14 C17 H17B 109.5 . .
C14 C17 H17C 109.5 . .
H17A C17 H17B 109.5 . .
H17A C17 H17C 109.5 . .
H17B C17 H17C 109.5 . .
C14 C15 H15A 109.5 . .
C14 C15 H15B 109.5 . .
C14 C15 H15C 109.5 . .
H15A C15 H15B 109.5 . .
H15A C15 H15C 109.5 . .
H15B C15 H15C 109.5 . .
H13A C134 H13B 109.5 . .
H13A C134 H13C 109.5 . .
H13B C134 H13C 109.5 . .
C132 C134 H13A 109.5 . .
C132 C134 H13B 109.5 . .
C132 C134 H13C 109.5 . .
H71A C71 H71B 109.5 . .
H71A C71 H71C 109.5 . .
H71B C71 H71C 109.5 . .
C68 C71 H71A 109.5 . .
C68 C71 H71B 109.5 . .
C68 C71 H71C 109.5 . .
H70A C70 H70B 109.5 . .
H70A C70 H70C 109.5 . .
H70B C70 H70C 109.5 . .
C68 C70 H70A 109.5 . .
C68 C70 H70B 109.5 . .
C68 C70 H70C 109.5 . .
C71 C68 C64 115.9(19) . .
C71 C68 C70 108(2) . .
C70 C68 C64 105.8(19) . .
C69 C68 C64 112.6(17) . .
C69 C68 C71 105(2) . .
C69 C68 C70 109(2) . .
C68 C69 H69A 109.5 . .
C68 C69 H69B 109.5 . .
C68 C69 H69C 109.5 . .
H69A C69 H69B 109.5 . .
H69A C69 H69C 109.5 . .
H69B C69 H69C 109.5 . .
C26 C30 C31 115.9(13) . .
C26 C30 C32 108.4(16) . .
C33 C30 C26 108.5(16) . .
C33 C30 C31 106.7(18) . .
C33 C30 C32 106.9(16) . .
C32 C30 C31 110.1(18) . .
C115 O14 V2 133.2(8) . .
C115 O14 V2A 123.8(8) . .
O18 C124 C118 115.3(12) . .
O17 C124 O18 122.2(13) . .
O17 C124 C118 122.3(14) . .
O20 C136 Cd2 59.9(9) . .
O20 C136 C128 118.2(15) . .
O19 C136 Cd2 60.6(10) . .
O19 C136 O20 120.5(17) . .
O19 C136 C128 121.0(18) . .
C128 C136 Cd2 177.1(12) . .
C113 N11 V2 123.1(10) . .
C113 N11 C107 125.3(12) . .
C113 N11 V2A 117.5(10) . .
C107 N11 V2 108.4(9) . .
C107 N11 V2A 115.0(9) . .
H11A C112 H11B 108.0 . .
C107 C112 H11A 109.4 . .
C107 C112 H11B 109.4 . .
C111 C112 H11A 109.4 . .
C111 C112 H11B 109.4 . .
C111 C112 C107 111.0(13) . .
C108 C107 H107 107.3 . .
N11 C107 C108 106.9(12) . .
N11 C107 C112 118.2(12) . .
N11 C107 H107 107.3 . .
C112 C107 C108 109.3(12) . .
C112 C107 H107 107.3 . .
C130 C132 C135 116.1(15) . .
C134 C132 C130 112.0(16) . .
C134 C132 C135 113.5(17) . .
C133 C132 C130 108.7(16) . .
C133 C132 C134 105.9(17) . .
C133 C132 C135 99.2(17) . .
C116 C120 C123 112.5(12) . .
C122 C120 C116 107.8(12) . .
C122 C120 C121 108.6(14) . .
C122 C120 C123 109.7(15) . .
C121 C120 C116 112.0(13) . .
C121 C120 C123 106.3(13) . .
C24 C23 H23 117.6 . .
N2 C23 C24 124.7(15) . .
N2 C23 H23 117.6 . .
C19 C20 H20 120.0 . .
C19 C20 N3 120.0 . .
N3 C20 H20 120.0 . .
C20 C19 H19 120.0 . .
C18 C19 C20 120.0 . .
C18 C19 H19 120.0 . .
C19 C18 C12 116.7(7) . .
C19 C18 C22 120.0 . .
C22 C18 C12 123.2(7) . .
C18 C22 H22 120.0 . .
C21 C22 C18 120.0 . .
C21 C22 H22 120.0 . .
C22 C21 H21 120.0 . .
N3 C21 C22 120.0 . .
N3 C21 H21 120.0 . .
C20 N3 Cd1 115.7(4) . .
C21 N3 Cd1 123.8(4) . .
C21 N3 C20 120.0 . .
C44 C43 H43A 108.0 . .
C44 C43 H43B 108.0 . .
H43A C43 H43B 107.3 . .
C42 C43 C44 117(2) . .
C42 C43 H43A 108.0 . .
C42 C43 H43B 108.0 . .
C3 C4 H4 125.2 . .
C5 C4 H4 125.2 . .
C5 C4 C3 110(2) . .
N1 C1 H1 106.9 . .
C2 C1 N1 104.3(17) . .
C2 C1 H1 106.9 . .
C2 C1 C6 115(2) . .
C6 C1 N1 116.7(14) . .
C6 C1 H1 106.9 . .
C2 C3 C4 107.9(15) . .
C2 C3 H3A 110.1 . .
C2 C3 H3B 110.1 . .
C4 C3 H3A 110.1 . .
C4 C3 H3B 110.1 . .
H3A C3 H3B 108.4 . .
C14 C16 H16A 109.5 . .
C14 C16 H16B 109.5 . .
C14 C16 H16C 109.5 . .
H16A C16 H16B 109.5 . .
H16A C16 H16C 109.5 . .
H16B C16 H16C 109.5 . .
C43 C42 H42A 111.0 . .
C43 C42 H42B 111.0 . .
C43 C42 C41 103.9(19) . .
H42A C42 H42B 109.0 . .
C41 C42 H42A 111.0 . .
C41 C42 H42B 111.0 . .
C132 C135 H13D 109.5 . .
C132 C135 H13E 109.5 . .
C132 C135 H13F 109.5 . .
H13D C135 H13E 109.5 . .
H13D C135 H13F 109.5 . .
H13E C135 H13F 109.5 . .
C30 C31 H31A 109.5 . .
C30 C31 H31B 109.5 . .
C30 C31 H31C 109.5 . .
H31A C31 H31B 109.5 . .
H31A C31 H31C 109.5 . .
H31B C31 H31C 109.5 . .
N5 C39 C44 115.8(18) . .
N5 C39 C40 98.5(17) . .
N5 C39 H39 111.8 . .
C44 C39 C40 106.2(18) . .
C44 C39 H39 111.8 . .
C40 C39 H39 111.8 . .
C4 C5 H5 123.5 . .
C4 C5 C6 113(2) . .
C6 C5 H5 123.5 . .
C1 C6 C5 110.6(16) . .
C1 C6 H6A 109.5 . .
C1 C6 H6B 109.5 . .
C5 C6 H6A 109.5 . .
C5 C6 H6B 109.5 . .
H6A C6 H6B 108.1 . .
C30 C32 H32A 109.5 . .
C30 C32 H32B 109.5 . .
C30 C32 H32C 109.5 . .
H32A C32 H32B 109.5 . .
H32A C32 H32C 109.5 . .
H32B C32 H32C 109.5 . .
C120 C121 H12D 109.5 . .
C120 C121 H12E 109.5 . .
C120 C121 H12F 109.5 . .
H12D C121 H12E 109.5 . .
H12D C121 H12F 109.5 . .
H12E C121 H12F 109.5 . .
V2 O16 V2 159.2(17) 3_656 .
V1 O9 V1 176(6) . 3_657
C85 O7 V1 123.0(14) . .
C85 O7 V1A 130.4(12) . .
C108 C109 H10A 109.7 . .
C108 C109 H10B 109.7 . .
H10A C109 H10B 108.2 . .
C110 C109 C108 110.0(13) . .
C110 C109 H10A 109.7 . .
C110 C109 H10B 109.7 . .
C97 O8 V1 123.0(14) . .
C97 O8 V1A 127.5(12) . .
C112 C111 H11C 108.7 . .
C112 C111 H11D 108.7 . .
C112 C111 C110 114.0(13) . .
H11C C111 H11D 107.6 . .
C110 C111 H11C 108.7 . .
C110 C111 H11D 108.7 . .
C96 C101 H101 120.0 . .
C96 C101 C100 120.0 . .
C100 C101 H101 120.0 . .
C101 C96 C97 120.0 . .
C101 C96 C95 113.8(12) . .
C97 C96 C95 126.2(12) . .
C96 C97 O8 121.4(11) . .
C96 C97 C98 120.0 . .
C98 C97 O8 118.4(11) . .
C97 C98 C102 119.3(11) . .
C99 C98 C97 120.0 . .
C99 C98 C102 120.7(11) . .
C98 C99 H99 120.0 . .
C98 C99 C100 120.0 . .
C100 C99 H99 120.0 . .
C101 C100 C106 119.0(11) . .
C99 C100 C101 120.0 . .
C99 C100 C106 121.0(11) . .
C83 N9 V1 118.1(16) . .
C83 N9 C77 124.0(19) . .
C83 N9 V1A 113.6(18) . .
C77 N9 V1 116.9(16) . .
C77 N9 V1A 110.8(15) . .
C109 C110 C111 114.3(13) . .
C109 C110 H11E 108.7 . .
C109 C110 H11F 108.7 . .
C111 C110 H11E 108.7 . .
C111 C110 H11F 108.7 . .
H11E C110 H11F 107.6 . .
C120 C123 H12G 109.5 . .
C120 C123 H12H 109.5 . .
C120 C123 H12I 109.5 . .
H12G C123 H12H 109.5 . .
H12G C123 H12I 109.5 . .
H12H C123 H12I 109.5 . .
C84 C83 H83 114.7 . .
N9 C83 C84 130.5(19) . .
N9 C83 H83 114.7 . .
C78 N10 V1 107.6(15) . .
C78 N10 V1A 119.1(15) . .
C95 N10 V1 126.4(16) . .
C95 N10 C78 120.0(19) . .
C95 N10 V1A 116.3(18) . .
N10 C78 H78 104.7 . .
C77 C78 N10 107(2) . .
C77 C78 H78 104.7 . .
C79 C78 N10 123(2) . .
C79 C78 H78 104.7 . .
C79 C78 C77 112(2) . .
N9 C77 C78 110(2) . .
N9 C77 H77 107.0 . .
N9 C77 C82 116(2) . .
C78 C77 H77 107.0 . .
C78 C77 C82 110(2) . .
C82 C77 H77 107.0 . .
C98 C102 C105 110.7(16) . .
C98 C102 C104 111(2) . .
C98 C102 C103 112.2(19) . .
C105 C102 C104 104(2) . .
C105 C102 C103 108(2) . .
C104 C102 C103 110.4(19) . .
C77 C82 H82A 109.4 . .
C77 C82 H82B 109.4 . .
H82A C82 H82B 108.0 . .
C81 C82 C77 111(2) . .
C81 C82 H82A 109.4 . .
C81 C82 H82B 109.4 . .
C78 C79 H79A 108.0 . .
C78 C79 H79B 108.0 . .
C78 C79 C80 117(2) . .
H79A C79 H79B 107.2 . .
C80 C79 H79A 108.0 . .
C80 C79 H79B 108.0 . .
C102 C105 H10C 109.5 . .
C102 C105 H10D 109.5 . .
C102 C105 H10E 109.5 . .
H10C C105 H10D 109.5 . .
H10C C105 H10E 109.5 . .
H10D C105 H10E 109.5 . .
C96 C95 H95 118.2 . .
N10 C95 C96 123.6(19) . .
N10 C95 H95 118.2 . .
H93A C93 H93B 109.5 . .
H93A C93 H93C 109.5 . .
H93B C93 H93C 109.5 . .
C90 C93 H93A 109.5 . .
C90 C93 H93B 109.5 . .
C90 C93 H93C 109.5 . .
H91A C91 H91B 109.5 . .
H91A C91 H91C 109.5 . .
H91B C91 H91C 109.5 . .
C90 C91 H91A 109.5 . .
C90 C91 H91B 109.5 . .
C90 C91 H91C 109.5 . .
C82 C81 H81A 108.4 . .
C82 C81 H81B 108.4 . .
H81A C81 H81B 107.5 . .
C80 C81 C82 115(2) . .
C80 C81 H81A 108.4 . .
C80 C81 H81B 108.4 . .
C79 C80 H80A 109.4 . .
C79 C80 H80B 109.4 . .
C81 C80 C79 111(2) . .
C81 C80 H80A 109.4 . .
C81 C80 H80B 109.4 . .
H80A C80 H80B 108.0 . .
C132 C133 H13G 109.5 . .
C132 C133 H13H 109.5 . .
C132 C133 H13I 109.5 . .
H13G C133 H13H 109.5 . .
H13G C133 H13I 109.5 . .
H13H C133 H13I 109.5 . .
C102 C104 H10F 109.5 . .
C102 C104 H10G 109.5 . .
C102 C104 H10H 109.5 . .
H10F C104 H10G 109.5 . .
H10F C104 H10H 109.5 . .
H10G C104 H10H 109.5 . .
C100 C106 Cd1 178.7(14) . 1_556
O12 C106 Cd1 59.8(9) . 1_556
O12 C106 C100 121.0(15) . .
O12 C106 O13 121.7(16) . .
O13 C106 Cd1 62.1(8) . 1_556
O13 C106 C100 117.2(16) . .
C106 O12 Cd1 93.3(10) . 1_556
C106 O13 Cd1 89.7(10) . 1_556
C102 C103 H10I 109.5 . .
C102 C103 H10J 109.5 . .
C102 C103 H10K 109.5 . .
H10I C103 H10J 109.5 . .
H10I C103 H10K 109.5 . .
H10J C103 H10K 109.5 . .
C36 C35 H35 120.0 . .
C36 C35 C34 120.0 . .
C34 C35 H35 120.0 . .
C35 C36 H36 120.0 . .
N4 C36 C35 120.0 . .
N4 C36 H36 120.0 . .
C36 N4 Cd1 120.0(4) . 1_655
C36 N4 C37 120.0 . .
C37 N4 Cd1 119.9(4) . 1_655
N4 C37 H37 120.0 . .
N4 C37 C38 120.0 . .
C38 C37 H37 120.0 . .
C37 C38 H38 120.0 . .
C37 C38 C34 120.0 . .
C34 C38 H38 120.0 . .
C35 C34 C28 117.9(7) . .
C38 C34 C28 122.1(7) . .
C38 C34 C35 120.0 . .
C75 C76 H76 120.0 . .
C75 C76 C72 120.0 . .
C72 C76 H76 120.0 . .
C76 C75 H75 120.0 . .
N8 C75 C76 120.0 . .
N8 C75 H75 120.0 . .
C75 N8 Cd2 118.7(7) . 1_655
C74 N8 Cd2 120.6(6) . 1_655
C74 N8 C75 120.0 . .
N8 C74 H74 120.0 . .
N8 C74 C73 120.0 . .
C73 C74 H74 120.0 . .
C74 C73 H73 120.0 . .
C72 C73 C74 120.0 . .
C72 C73 H73 120.0 . .
C76 C72 C66 120.2(10) . .
C73 C72 C66 119.7(10) . .
C73 C72 C76 120.0 . .
H54A C54 H54B 109.5 . .
H54A C54 H54C 109.5 . .
H54B C54 H54C 109.5 . .
C52 C54 H54A 109.5 . .
C52 C54 H54B 109.5 . .
C52 C54 H54C 109.5 . .
C54 C52 C48 109.2(19) . .
C54 C52 C55 103.4(19) . .
C53 C52 C48 112.6(19) . .
C53 C52 C54 112(2) . .
C53 C52 C55 108.9(18) . .
C55 C52 C48 110.2(17) . .
C52 C53 H53A 109.5 . .
C52 C53 H53B 109.5 . .
C52 C53 H53C 109.5 . .
H53A C53 H53B 109.5 . .
H53A C53 H53C 109.5 . .
H53B C53 H53C 109.5 . .
C52 C55 H55A 109.5 . .
C52 C55 H55B 109.5 . .
C52 C55 H55C 109.5 . .
H55A C55 H55B 109.5 . .
H55A C55 H55C 109.5 . .
H55B C55 H55C 109.5 . .
C40 C41 H41A 109.6 . .
C40 C41 H41B 109.6 . .
C42 C41 C40 110.2(19) . .
C42 C41 H41A 109.6 . .
C42 C41 H41B 109.6 . .
H41A C41 H41B 108.1 . .
C86 C90 C93 111(2) . .
C91 C90 C86 113.5(17) . .
C91 C90 C93 106(2) . .
C92 C90 C86 112.4(19) . .
C92 C90 C93 111(2) . .
C92 C90 C91 102(2) . .
C90 C92 H92A 109.5 . .
C90 C92 H92B 109.5 . .
C90 C92 H92C 109.5 . .
H92A C92 H92B 109.5 . .
H92A C92 H92C 109.5 . .
H92B C92 H92C 109.5 . .
O15 V2A N12 87.4(5) . .
O15 V2A O14 89.3(5) . .
O15 V2A N11 138.6(6) . .
N12 V2A N11 77.5(5) . .
O14 V2A N12 149.1(6) . .
O14 V2A N11 84.9(5) . .
O16A V2A O15 111.3(8) . .
O16A V2A N12 106.6(9) . .
O16A V2A O14 103.2(8) . .
O16A V2A N11 109.9(8) . .
O7 V1A O8 88.6(8) . .
O7 V1A N9 87.1(8) . .
O7 V1A N10 136.3(15) . .
O8 V1A N9 135.8(15) . .
O8 V1A N10 85.5(9) . .
N10 V1A N9 68.4(8) . .
O9A V1A O7 105.9(18) . .
O9A V1A O8 107.9(17) . .
O9A V1A N9 115.6(16) . .
O9A V1A N10 117.2(16) . .
loop_
_geom_bond_atom_site_label_1
_geom_bond_atom_site_label_2
_geom_bond_distance
_geom_bond_site_symmetry_2
Cd1 O18 2.248(8) 4_566
Cd1 O17 2.292(11) .
Cd1 N3 2.336(5) .
Cd1 C106 2.689(18) 1_554
Cd1 O12 2.329(9) 1_554
Cd1 O13 2.377(10) 1_554
Cd1 N4 2.284(11) 1_455
Cd2 O11 2.208(11) 4_577
Cd2 O20 2.348(10) .
Cd2 O19 2.367(12) .
Cd2 O10 2.276(13) .
Cd2 N7 2.312(7) .
Cd2 C136 2.712(17) .
Cd2 N8 2.309(19) 1_455
Fe1 O3 1.752(4) .
Fe1 O1 1.907(12) .
Fe1 O2 1.937(12) .
Fe1 N2 2.085(13) .
Fe1 N1 2.104(15) .
Fe2 O4 1.892(12) .
Fe2 O5 1.952(13) .
Fe2 N5 2.042(16) .
Fe2 O6 1.757(5) .
Fe2 N6 2.029(17) .
V2 O15 1.896(10) .
V2 N12 2.162(14) .
V2 O14 1.984(11) .
V2 N11 2.118(12) .
V2 O16 1.668(7) .
V1 V1 2.29(3) 3_657
V1 O9 1.145(17) .
V1 O7 2.21(2) .
V1 O8 2.19(2) .
V1 N9 2.15(2) .
V1 N10 2.12(2) .
O18 Cd1 2.248(8) 4_566
O18 C124 1.313(17) .
C94 O11 1.27(2) .
C94 C88 1.514(18) .
C94 O10 1.19(2) .
O11 Cd2 2.208(11) 4_577
C108 H108 1.0000 .
C108 N12 1.521(19) .
C108 C107 1.59(2) .
C108 C109 1.52(2) .
O20 C136 1.28(2) .
O15 C131 1.299(11) .
O15 V2A 1.931(10) .
O17 C124 1.216(17) .
O3 Fe1 1.752(4) 4_566
N12 C125 1.228(17) .
N12 V2A 2.024(14) .
C114 C119 1.3900 .
C114 C115 1.3900 .
C114 C113 1.396(16) .
C119 H119 0.9500 .
C119 C118 1.3900 .
C118 C117 1.3900 .
C118 C124 1.513(15) .
C117 H117 0.9500 .
C117 C116 1.3900 .
C116 C115 1.3900 .
C116 C120 1.551(14) .
C115 O14 1.310(10) .
O4 C47 1.351(13) .
C29 H29 0.9500 .
C29 C28 1.3900 .
C29 C24 1.3900 .
C28 C27 1.3900 .
C28 C34 1.546(8) .
C27 H27 0.9500 .
C27 C26 1.3900 .
C26 C25 1.3900 .
C26 C30 1.535(15) .
C25 C24 1.3900 .
C25 O2 1.327(11) .
C24 C23 1.467(18) .
O19 C136 1.199(19) .
O1 C9 1.294(11) .
O5 C63 1.341(14) .
C85 C84 1.3900 .
C85 C86 1.3900 .
C85 O7 1.375(15) .
C84 C89 1.3900 .
C84 C83 1.45(3) .
C89 H89 0.9500 .
C89 C88 1.3900 .
C88 C87 1.3900 .
C87 H87 0.9500 .
C87 C86 1.3900 .
C86 C90 1.536(16) .
C113 H113 0.9500 .
C113 N11 1.278(16) .
C50 C51 1.3900 .
C50 C49 1.3900 .
C50 C56 1.447(10) .
C51 H51 0.9500 .
C51 C46 1.3900 .
C46 C47 1.3900 .
C46 C45 1.39(2) .
C47 C48 1.3900 .
C48 C49 1.3900 .
C48 C52 1.55(2) .
C49 H49 0.9500 .
C126 C127 1.3900 .
C126 C131 1.3900 .
C126 C125 1.441(17) .
C127 H127 0.9500 .
C127 C128 1.3900 .
C128 C129 1.3900 .
C128 C136 1.513(18) .
C129 H129 0.9500 .
C129 C130 1.3900 .
C130 C131 1.3900 .
C130 C132 1.559(18) .
N2 C2 1.502(18) .
N2 C23 1.262(19) .
N1 C7 1.261(19) .
N1 C1 1.52(2) .
N5 C45 1.40(2) .
N5 C39 1.51(3) .
C12 C11 1.3900 .
C12 C13 1.3900 .
C12 C18 1.539(7) .
C11 H11 0.9500 .
C11 C10 1.3900 .
C10 C9 1.3900 .
C10 C14 1.530(17) .
C9 C8 1.3900 .
C8 C13 1.3900 .
C8 C7 1.472(19) .
C13 H13 0.9500 .
O6 Fe2 1.757(5) 4_577
C62 C63 1.3900 .
C62 C67 1.3900 .
C62 C61 1.40(2) .
C63 C64 1.3900 .
C64 C65 1.3900 .
C64 C68 1.565(19) .
C65 H65 0.9500 .
C65 C66 1.3900 .
C66 C67 1.3900 .
C66 C72 1.512(12) .
C67 H67 0.9500 .
C125 H125 0.9500 .
C59 H59 0.9500 .
C59 N7 1.3900 .
C59 C60 1.3900 .
N7 C58 1.3900 .
C58 H58 0.9500 .
C58 C57 1.3900 .
C57 H57 0.9500 .
C57 C56 1.3900 .
C56 C60 1.3900 .
C60 H60 0.9500 .
N6 C61 1.35(2) .
N6 C40 1.56(2) .
C45 H45 0.9500 .
C2 H2 1.0000 .
C2 C1 1.45(3) .
C2 C3 1.56(2) .
C61 H61 0.9500 .
C44 H44A 0.9900 .
C44 H44B 0.9900 .
C44 C43 1.55(2) .
C44 C39 1.52(2) .
C7 H7 0.9500 .
C33 H33A 0.9800 .
C33 H33B 0.9800 .
C33 H33C 0.9800 .
C33 C30 1.52(2) .
C122 H12A 0.9800 .
C122 H12B 0.9800 .
C122 H12C 0.9800 .
C122 C120 1.519(19) .
C40 H40 1.0000 .
C40 C39 1.65(3) .
C40 C41 1.56(2) .
C14 C17 1.515(19) .
C14 C15 1.55(2) .
C14 C16 1.53(2) .
C17 H17A 0.9800 .
C17 H17B 0.9800 .
C17 H17C 0.9800 .
C15 H15A 0.9800 .
C15 H15B 0.9800 .
C15 H15C 0.9800 .
C134 H13A 0.9800 .
C134 H13B 0.9800 .
C134 H13C 0.9800 .
C134 C132 1.53(2) .
C71 H71A 0.9800 .
C71 H71B 0.9800 .
C71 H71C 0.9800 .
C71 C68 1.54(2) .
C70 H70A 0.9800 .
C70 H70B 0.9800 .
C70 H70C 0.9800 .
C70 C68 1.54(2) .
C68 C69 1.53(2) .
C69 H69A 0.9800 .
C69 H69B 0.9800 .
C69 H69C 0.9800 .
C30 C31 1.56(2) .
C30 C32 1.54(2) .
O14 V2A 1.954(12) .
N11 C107 1.429(18) .
N11 V2A 2.169(13) .
C112 H11A 0.9900 .
C112 H11B 0.9900 .
C112 C107 1.512(19) .
C112 C111 1.50(2) .
C107 H107 1.0000 .
C132 C135 1.57(2) .
C132 C133 1.52(2) .
C120 C121 1.550(18) .
C120 C123 1.553(19) .
C23 H23 0.9500 .
C20 H20 0.9500 .
C20 C19 1.3900 .
C20 N3 1.3900 .
C19 H19 0.9500 .
C19 C18 1.3900 .
C18 C22 1.3900 .
C22 H22 0.9500 .
C22 C21 1.3900 .
C21 H21 0.9500 .
C21 N3 1.3900 .
C43 H43A 0.9900 .
C43 H43B 0.9900 .
C43 C42 1.52(2) .
C4 H4 0.9500 .
C4 C3 1.60(3) .
C4 C5 1.50(2) .
C1 H1 1.0000 .
C1 C6 1.49(3) .
C3 H3A 0.9900 .
C3 H3B 0.9900 .
C16 H16A 0.9800 .
C16 H16B 0.9800 .
C16 H16C 0.9800 .
C42 H42A 0.9900 .
C42 H42B 0.9900 .
C42 C41 1.53(2) .
C135 H13D 0.9800 .
C135 H13E 0.9800 .
C135 H13F 0.9800 .
C31 H31A 0.9800 .
C31 H31B 0.9800 .
C31 H31C 0.9800 .
C39 H39 1.0000 .
C5 H5 0.9500 .
C5 C6 1.53(2) .
C6 H6A 0.9900 .
C6 H6B 0.9900 .
C32 H32A 0.9800 .
C32 H32B 0.9800 .
C32 H32C 0.9800 .
C121 H12D 0.9800 .
C121 H12E 0.9800 .
C121 H12F 0.9800 .
O16 V2 1.668(7) 3_656
O9 V1 1.145(17) 3_657
O7 V1A 1.865(18) .
C109 H10A 0.9900 .
C109 H10B 0.9900 .
C109 C110 1.514(17) .
O8 C97 1.388(15) .
O8 V1A 1.882(17) .
C111 H11C 0.9900 .
C111 H11D 0.9900 .
C111 C110 1.523(17) .
C101 H101 0.9500 .
C101 C96 1.3900 .
C101 C100 1.3900 .
C96 C97 1.3900 .
C96 C95 1.486(18) .
C97 C98 1.3900 .
C98 C99 1.3900 .
C98 C102 1.515(16) .
C99 H99 0.9500 .
C99 C100 1.3900 .
C100 C106 1.474(19) .
N9 C83 1.30(3) .
N9 C77 1.40(3) .
N9 V1A 2.27(2) .
C110 H11E 0.9900 .
C110 H11F 0.9900 .
C123 H12G 0.9800 .
C123 H12H 0.9800 .
C123 H12I 0.9800 .
C83 H83 0.9500 .
N10 C78 1.48(2) .
N10 C95 1.31(2) .
N10 V1A 2.27(3) .
C78 H78 1.0000 .
C78 C77 1.48(4) .
C78 C79 1.43(3) .
C77 H77 1.0000 .
C77 C82 1.56(2) .
C102 C105 1.518(17) .
C102 C104 1.526(19) .
C102 C103 1.543(18) .
C82 H82A 0.9900 .
C82 H82B 0.9900 .
C82 C81 1.51(3) .
C79 H79A 0.9900 .
C79 H79B 0.9900 .
C79 C80 1.54(3) .
C105 H10C 0.9800 .
C105 H10D 0.9800 .
C105 H10E 0.9800 .
C95 H95 0.9500 .
C93 H93A 0.9800 .
C93 H93B 0.9800 .
C93 H93C 0.9800 .
C93 C90 1.552(19) .
C91 H91A 0.9800 .
C91 H91B 0.9800 .
C91 H91C 0.9800 .
C91 C90 1.525(18) .
C81 H81A 0.9900 .
C81 H81B 0.9900 .
C81 C80 1.45(3) .
C80 H80A 0.9900 .
C80 H80B 0.9900 .
C133 H13G 0.9800 .
C133 H13H 0.9800 .
C133 H13I 0.9800 .
C104 H10F 0.9800 .
C104 H10G 0.9800 .
C104 H10H 0.9800 .
C106 Cd1 2.689(17) 1_556
C106 O12 1.217(19) .
C106 O13 1.271(19) .
O12 Cd1 2.329(9) 1_556
O13 Cd1 2.377(10) 1_556
C103 H10I 0.9800 .
C103 H10J 0.9800 .
C103 H10K 0.9800 .
C35 H35 0.9500 .
C35 C36 1.3900 .
C35 C34 1.3900 .
C36 H36 0.9500 .
C36 N4 1.3900 .
N4 Cd1 2.284(6) 1_655
N4 C37 1.3900 .
C37 H37 0.9500 .
C37 C38 1.3900 .
C38 H38 0.9500 .
C38 C34 1.3900 .
C76 H76 0.9500 .
C76 C75 1.3900 .
C76 C72 1.3900 .
C75 H75 0.9500 .
C75 N8 1.3900 .
N8 Cd2 2.309(9) 1_655
N8 C74 1.3900 .
C74 H74 0.9500 .
C74 C73 1.3900 .
C73 H73 0.9500 .
C73 C72 1.3900 .
C54 H54A 0.9800 .
C54 H54B 0.9800 .
C54 H54C 0.9800 .
C54 C52 1.54(2) .
C52 C53 1.53(2) .
C52 C55 1.55(2) .
C53 H53A 0.9800 .
C53 H53B 0.9800 .
C53 H53C 0.9800 .
C55 H55A 0.9800 .
C55 H55B 0.9800 .
C55 H55C 0.9800 .
C41 H41A 0.9900 .
C41 H41B 0.9900 .
C90 C92 1.510(19) .
C92 H92A 0.9800 .
C92 H92B 0.9800 .
C92 H92C 0.9800 .
V2A O16A 1.60(2) .
V1A O9A 1.39(5) .
loop_
_geom_torsion_atom_site_label_1
_geom_torsion_atom_site_label_2
_geom_torsion_atom_site_label_3
_geom_torsion_atom_site_label_4
_geom_torsion
_geom_torsion_site_symmetry_1
_geom_torsion_site_symmetry_4
Cd1 O18 C124 O17 0.7(16) 4_566 .
Cd1 O18 C124 C118 -175.3(8) 4_566 .
Cd1 N4 C37 C38 -176.4(7) 1_655 .
Cd2 O20 C136 O19 2.3(18) . .
Cd2 O20 C136 C128 177.4(12) . .
Cd2 O19 C136 O20 -2.3(17) . .
Cd2 O19 C136 C128 -177.2(13) . .
Cd2 N7 C58 C57 174.6(8) . .
Cd2 N8 C74 C73 -170.6(9) 1_655 .
Fe1 O1 C9 C10 143.0(10) . .
Fe1 O1 C9 C8 -38(2) . .
Fe1 N2 C2 C1 43(2) . .
Fe1 N2 C2 C3 168.1(17) . .
Fe1 N2 C23 C24 -14(3) . .
Fe1 N1 C7 C8 12(3) . .
Fe1 N1 C1 C2 32(2) . .
Fe1 N1 C1 C6 159.5(18) . .
Fe2 O4 C47 C46 34(2) . .
Fe2 O4 C47 C48 -151.7(10) . .
Fe2 O5 C63 C62 -35(2) . .
Fe2 O5 C63 C64 146.4(10) . .
Fe2 N5 C45 C46 -9(3) . .
Fe2 N5 C39 C44 168.4(17) . .
Fe2 N5 C39 C40 55.8(19) . .
Fe2 N6 C61 C62 7(3) . .
Fe2 N6 C40 C39 41(2) . .
Fe2 N6 C40 C41 155.2(17) . .
V2 O15 C131 C126 -47.0(14) . .
V2 O15 C131 C130 136.9(8) . .
V2 N12 C125 C126 20(2) . .
V2 N11 C107 C108 60.3(12) . .
V2 N11 C107 C112 -176.0(11) . .
V1 O8 C97 C96 35(2) . .
V1 O8 C97 C98 -149.3(12) . .
V1 N9 C83 C84 34(5) . .
V1 N9 C77 C78 6(3) . .
V1 N9 C77 C82 131(2) . .
V1 N10 C78 C77 55(3) . .
V1 N10 C78 C79 -174(3) . .
V1 N10 C95 C96 -26(5) . .
C94 C88 C87 C86 -177.4(16) . .
O11 C94 C88 C89 -5(2) . .
O11 C94 C88 C87 172.8(13) . .
C108 N12 C125 C126 -178.0(14) . .
C108 C109 C110 C111 50.0(19) . .
O15 V2 O16 V2 -173.3(4) . 3_656
N12 V2 O15 C131 49.8(11) . .
N12 V2 O16 V2 98.0(4) . 3_656
N12 C108 C107 N11 -48.5(14) . .
N12 C108 C107 C112 -177.5(12) . .
N12 C108 C109 C110 -171.6(13) . .
C114 C119 C118 C117 0.0 . .
C114 C119 C118 C124 180.0(10) . .
C114 C115 O14 V2 8.8(15) . .
C114 C115 O14 V2A -39.2(12) . .
C114 C113 N11 V2 -21(2) . .
C114 C113 N11 C107 -178.6(13) . .
C114 C113 N11 V2A 19.2(19) . .
C119 C114 C115 C116 0.0 . .
C119 C114 C115 O14 -177.0(10) . .
C119 C114 C113 N11 -175.0(12) . .
C119 C118 C117 C116 0.0 . .
C119 C118 C124 O18 14.7(14) . .
C119 C118 C124 O17 -161.4(11) . .
C118 C117 C116 C115 0.0 . .
C118 C117 C116 C120 -175.8(11) . .
C117 C118 C124 O18 -165.4(8) . .
C117 C118 C124 O17 18.6(17) . .
C117 C116 C115 C114 0.0 . .
C117 C116 C115 O14 177.1(10) . .
C117 C116 C120 C122 -115.6(12) . .
C117 C116 C120 C121 125.1(12) . .
C117 C116 C120 C123 5.5(16) . .
C116 C115 O14 V2 -168.3(7) . .
C116 C115 O14 V2A 143.7(7) . .
C115 C114 C119 C118 0.0 . .
C115 C114 C113 N11 6(2) . .
C115 C116 C120 C122 68.7(14) . .
C115 C116 C120 C121 -50.6(16) . .
C115 C116 C120 C123 -170.2(11) . .
O4 Fe2 O6 Fe2 -36.8(5) . 4_577
O4 C47 C48 C49 -174.5(15) . .
O4 C47 C48 C52 -0.2(18) . .
C29 C28 C27 C26 0.0 . .
C29 C28 C34 C35 -166.5(8) . .
C29 C28 C34 C38 16.6(14) . .
C29 C24 C23 N2 177.4(18) . .
C28 C29 C24 C25 0.0 . .
C28 C29 C24 C23 178.4(15) . .
C28 C27 C26 C25 0.0 . .
C28 C27 C26 C30 178.2(16) . .
C27 C28 C34 C35 17.6(14) . .
C27 C28 C34 C38 -159.3(9) . .
C27 C26 C25 C24 0.0 . .
C27 C26 C25 O2 -179.1(15) . .
C27 C26 C30 C33 -118.9(14) . .
C27 C26 C30 C31 1(2) . .
C27 C26 C30 C32 125.4(14) . .
C26 C25 C24 C29 0.0 . .
C26 C25 C24 C23 -178.3(16) . .
C26 C25 O2 Fe1 -157.8(10) . .
C25 C26 C30 C33 59(2) . .
C25 C26 C30 C31 179.2(16) . .
C25 C26 C30 C32 -56.5(19) . .
C25 C24 C23 N2 -4(3) . .
C24 C29 C28 C27 0.0 . .
C24 C29 C28 C34 -176.0(12) . .
C24 C25 O2 Fe1 23(2) . .
O1 Fe1 O3 Fe1 -141.8(4) . 4_566
O1 C9 C8 C13 -179.5(16) . .
O1 C9 C8 C7 0.2(17) . .
O5 Fe2 O4 C47 171.9(16) . .
O5 Fe2 O6 Fe2 -137.9(4) . 4_577
O5 C63 C64 C65 178.8(18) . .
O5 C63 C64 C68 4(2) . .
O2 Fe1 O3 Fe1 -42.5(4) . 4_566
O2 C25 C24 C29 179.1(17) . .
O2 C25 C24 C23 0.8(19) . .
C85 C84 C89 C88 0.0 . .
C85 C84 C83 N9 -5(5) . .
C85 C86 C90 C93 56(2) . .
C85 C86 C90 C91 176(2) . .
C85 C86 C90 C92 -69(2) . .
C85 O7 V1A O8 -176(2) . .
C85 O7 V1A N9 -40(3) . .
C85 O7 V1A N10 -94(3) . .
C85 O7 V1A O9A 75(3) . .
C84 C85 C86 C87 0.0 . .
C84 C85 C86 C90 -168(2) . .
C84 C85 O7 V1 -36(2) . .
C84 C85 O7 V1A 28(3) . .
C84 C89 C88 C94 177.5(16) . .
C84 C89 C88 C87 0.0 . .
C89 C84 C83 N9 -174(3) . .
C89 C88 C87 C86 0.0 . .
C88 C94 O11 Cd2 179.7(11) . 4_577
C88 C87 C86 C85 0.0 . .
C88 C87 C86 C90 168(2) . .
C87 C86 C90 C93 -112(2) . .
C87 C86 C90 C91 8(3) . .
C87 C86 C90 C92 122.6(19) . .
C86 C85 C84 C89 0.0 . .
C86 C85 C84 C83 -168(2) . .
C86 C85 O7 V1 137.8(12) . .
C86 C85 O7 V1A -158.5(17) . .
C113 C114 C119 C118 -179.6(10) . .
C113 C114 C115 C116 179.5(11) . .
C113 C114 C115 O14 2.5(12) . .
C113 N11 C107 C108 -139.4(14) . .
C113 N11 C107 C112 -16(2) . .
C50 C51 C46 C47 0.0 . .
C50 C51 C46 C45 178.2(16) . .
C50 C56 C60 C59 175.6(13) . .
C51 C50 C49 C48 0.0 . .
C51 C50 C56 C57 -158.6(9) . .
C51 C50 C56 C60 25.8(15) . .
C51 C46 C47 O4 174.8(15) . .
C51 C46 C47 C48 0.0 . .
C51 C46 C45 N5 175.9(18) . .
C46 C47 C48 C49 0.0 . .
C46 C47 C48 C52 174.3(17) . .
C47 C46 C45 N5 -6(3) . .
C47 C48 C49 C50 0.0 . .
C47 C48 C52 C54 62(2) . .
C47 C48 C52 C53 -63(2) . .
C47 C48 C52 C55 175.0(14) . .
C49 C50 C51 C46 0.0 . .
C49 C50 C56 C57 19.4(14) . .
C49 C50 C56 C60 -156.2(9) . .
C49 C48 C52 C54 -123.6(17) . .
C49 C48 C52 C53 111.1(18) . .
C49 C48 C52 C55 -11(2) . .
C126 C127 C128 C129 0.0 . .
C126 C127 C128 C136 178.8(12) . .
C127 C126 C131 O15 -176.0(12) . .
C127 C126 C131 C130 0.0 . .
C127 C126 C125 N12 -173.9(14) . .
C127 C128 C129 C130 0.0 . .
C127 C128 C136 O20 5.6(19) . .
C127 C128 C136 O19 -179.4(13) . .
C128 C129 C130 C131 0.0 . .
C128 C129 C130 C132 -172.0(14) . .
C129 C128 C136 O20 -175.7(12) . .
C129 C128 C136 O19 -1(2) . .
C129 C130 C131 O15 176.1(12) . .
C129 C130 C131 C126 0.0 . .
C129 C130 C132 C134 126.2(14) . .
C129 C130 C132 C135 -6(2) . .
C129 C130 C132 C133 -117.1(13) . .
C131 C126 C127 C128 0.0 . .
C131 C126 C125 N12 -2(2) . .
C131 C130 C132 C134 -45(2) . .
C131 C130 C132 C135 -178.0(15) . .
C131 C130 C132 C133 71.2(17) . .
N2 Fe1 O3 Fe1 49.4(4) . 4_566
N2 C2 C1 N1 -46(2) . .
N2 C2 C1 C6 -175.1(19) . .
N2 C2 C3 C4 177(2) . .
N1 Fe1 O3 Fe1 129.4(4) . 4_566
N1 C1 C6 C5 -177(2) . .
N5 Fe2 O4 C47 -37.6(16) . .
N5 Fe2 O6 Fe2 52.1(5) . 4_577
C12 C11 C10 C9 0.0 . .
C12 C11 C10 C14 -176.2(15) . .
C12 C18 C22 C21 -176.0(11) . .
C11 C12 C13 C8 0.0 . .
C11 C12 C18 C19 -13.5(12) . .
C11 C12 C18 C22 162.7(8) . .
C11 C10 C9 O1 179.5(16) . .
C11 C10 C9 C8 0.0 . .
C11 C10 C14 C17 -1(2) . .
C11 C10 C14 C15 -121.5(13) . .
C11 C10 C14 C16 119.9(14) . .
C10 C9 C8 C13 0.0 . .
C10 C9 C8 C7 179.7(15) . .
C9 C10 C14 C17 -177.3(16) . .
C9 C10 C14 C15 62.4(17) . .
C9 C10 C14 C16 -56.2(19) . .
C9 C8 C13 C12 0.0 . .
C9 C8 C7 N1 11(3) . .
C13 C12 C11 C10 0.0 . .
C13 C12 C18 C19 168.7(8) . .
C13 C12 C18 C22 -15.2(13) . .
C13 C8 C7 N1 -169.8(18) . .
O6 Fe2 O4 C47 65.0(16) . .
C62 C63 C64 C65 0.0 . .
C62 C63 C64 C68 -174.7(19) . .
C63 C62 C67 C66 0.0 . .
C63 C62 C61 N6 16(3) . .
C63 C64 C65 C66 0.0 . .
C63 C64 C68 C71 52(2) . .
C63 C64 C68 C70 -68(2) . .
C63 C64 C68 C69 173.2(19) . .
C64 C65 C66 C67 0.0 . .
C64 C65 C66 C72 179.6(15) . .
C65 C64 C68 C71 -123.1(18) . .
C65 C64 C68 C70 116.9(16) . .
C65 C64 C68 C69 -1(3) . .
C65 C66 C67 C62 0.0 . .
C65 C66 C72 C76 152.8(10) . .
C65 C66 C72 C73 -22.6(16) . .
C67 C62 C63 O5 -178.8(18) . .
C67 C62 C63 C64 0.0 . .
C67 C62 C61 N6 -167.4(19) . .
C67 C66 C72 C76 -27.6(16) . .
C67 C66 C72 C73 156.9(9) . .
O10 C94 O11 Cd2 0(2) . 4_577
O10 C94 C88 C89 175.0(15) . .
O10 C94 C88 C87 -8(2) . .
C125 C126 C127 C128 172.2(12) . .
C125 C126 C131 O15 12.1(14) . .
C125 C126 C131 C130 -171.9(13) . .
C59 N7 C58 C57 0.0 . .
N7 C59 C60 C56 0.0 . .
N7 C58 C57 C56 0.0 . .
C58 C57 C56 C50 -175.6(13) . .
C58 C57 C56 C60 0.0 . .
C57 C56 C60 C59 0.0 . .
C56 C50 C51 C46 178.0(13) . .
C56 C50 C49 C48 -178.0(13) . .
C60 C59 N7 Cd2 -174.3(8) . .
C60 C59 N7 C58 0.0 . .
N6 Fe2 O4 C47 -99.2(18) . .
N6 Fe2 O6 Fe2 132.9(5) . 4_577
N6 C40 C39 N5 -55.7(19) . .
N6 C40 C39 C44 -175.8(18) . .
N6 C40 C41 C42 -173(2) . .
C45 C46 C47 O4 -3.3(18) . .
C45 C46 C47 C48 -178.0(17) . .
C45 N5 C39 C44 -27(3) . .
C45 N5 C39 C40 -139.4(19) . .
C2 N2 C23 C24 172(2) . .
C2 C1 C6 C5 -54(3) . .
C61 C62 C63 O5 -3(2) . .
C61 C62 C63 C64 176(2) . .
C61 C62 C67 C66 -176.5(18) . .
C61 N6 C40 C39 -145(2) . .
C61 N6 C40 C41 -30(3) . .
C44 C43 C42 C41 -63(3) . .
C7 N1 C1 C2 -146(2) . .
C7 N1 C1 C6 -19(3) . .
C7 C8 C13 C12 -179.7(14) . .
C40 N6 C61 C62 -167(2) . .
C14 C10 C9 O1 -4.6(17) . .
C14 C10 C9 C8 176.0(16) . .
C68 C64 C65 C66 174.7(19) . .
C30 C26 C25 C24 -178.0(17) . .
C30 C26 C25 O2 2.8(18) . .
O14 V2 O15 C131 -174.6(11) . .
O14 V2 O16 V2 -71.7(6) . 3_656
C124 C118 C117 C116 -180.0(10) . .
C136 C128 C129 C130 -178.7(12) . .
N11 V2 O15 C131 104.1(13) . .
N11 V2 O16 V2 20.1(4) . 3_656
C112 C111 C110 C109 -50(2) . .
C107 C108 N12 V2 16.8(14) . .
C107 C108 N12 C125 -145.1(15) . .
C107 C108 N12 V2A 55.3(12) . .
C107 C108 C109 C110 -54.2(17) . .
C107 C112 C111 C110 53.2(18) . .
C132 C130 C131 O15 -12.5(15) . .
C132 C130 C131 C126 171.4(15) . .
C120 C116 C115 C114 175.6(11) . .
C120 C116 C115 O14 -7.3(12) . .
C23 N2 C2 C1 -143(2) . .
C23 N2 C2 C3 -18(3) . .
C20 C19 C18 C12 176.3(10) . .
C20 C19 C18 C22 0.0 . .
C19 C20 N3 Cd1 -172.3(6) . .
C19 C20 N3 C21 0.0 . .
C19 C18 C22 C21 0.0 . .
C18 C12 C11 C10 -177.9(12) . .
C18 C12 C13 C8 177.9(11) . .
C18 C22 C21 N3 0.0 . .
C22 C21 N3 Cd1 171.7(7) . .
C22 C21 N3 C20 0.0 . .
N3 C20 C19 C18 0.0 . .
C43 C44 C39 N5 -169(2) . .
C43 C44 C39 C40 -61(3) . .
C43 C42 C41 C40 60(3) . .
C4 C5 C6 C1 53(3) . .
C1 N1 C7 C8 -169.9(19) . .
C1 C2 C3 C4 -58(3) . .
C3 C2 C1 N1 -172.8(18) . .
C3 C2 C1 C6 58(3) . .
C3 C4 C5 C6 -55(3) . .
C39 N5 C45 C46 -172(2) . .
C39 C44 C43 C42 66(3) . .
C39 C40 C41 C42 -64(3) . .
C5 C4 C3 C2 56(3) . .
O16 V2 O15 C131 -52.1(11) . .
O7 C85 C84 C89 174(2) . .
O7 C85 C84 C83 6(3) . .
O7 C85 C86 C87 -174(2) . .
O7 C85 C86 C90 18(2) . .
C109 C108 N12 V2 139.1(11) . .
C109 C108 N12 C125 -23(2) . .
C109 C108 N12 V2A 177.6(11) . .
C109 C108 C107 N11 -172.7(12) . .
C109 C108 C107 C112 58.3(16) . .
O8 C97 C98 C99 -175(2) . .
O8 C97 C98 C102 7(2) . .
C111 C112 C107 C108 -56.0(16) . .
C111 C112 C107 N11 -178.5(12) . .
C101 C96 C97 O8 175(2) . .
C101 C96 C97 C98 0.0 . .
C101 C96 C95 N10 179(3) . .
C101 C100 C106 O12 4(3) . .
C101 C100 C106 O13 179.3(14) . .
C96 C101 C100 C99 0.0 . .
C96 C101 C100 C106 178.4(18) . .
C96 C97 C98 C99 0.0 . .
C96 C97 C98 C102 -178(2) . .
C97 O8 V1A O7 180(2) . .
C97 O8 V1A N9 95(2) . .
C97 O8 V1A N10 43(2) . .
C97 O8 V1A O9A -74(3) . .
C97 C96 C95 N10 1(5) . .
C97 C98 C99 C100 0.0 . .
C97 C98 C102 C105 176(2) . .
C97 C98 C102 C104 61(2) . .
C97 C98 C102 C103 -63(2) . .
C98 C99 C100 C101 0.0 . .
C98 C99 C100 C106 -178.4(18) . .
C99 C98 C102 C105 -1(3) . .
C99 C98 C102 C104 -116.6(18) . .
C99 C98 C102 C103 119.1(18) . .
C99 C100 C106 O12 -177.9(15) . .
C99 C100 C106 O13 -2(2) . .
C100 C101 C96 C97 0.0 . .
C100 C101 C96 C95 -178(2) . .
C100 C106 O12 Cd1 -178.8(16) . 1_556
C100 C106 O13 Cd1 178.8(16) . 1_556
N9 C77 C82 C81 179(3) . .
C83 C84 C89 C88 169(2) . .
C83 N9 C77 C78 -162(3) . .
C83 N9 C77 C82 -37(5) . .
N10 C78 C77 N9 -39(4) . .
N10 C78 C77 C82 -168(2) . .
N10 C78 C79 C80 180(3) . .
C78 N10 C95 C96 -176(3) . .
C78 C77 C82 C81 -56(4) . .
C78 C79 C80 C81 44(5) . .
C77 N9 C83 C84 -159(3) . .
C77 C78 C79 C80 -52(5) . .
C77 C82 C81 C80 51(4) . .
C102 C98 C99 C100 178(2) . .
C82 C81 C80 C79 -44(4) . .
C79 C78 C77 N9 -176(3) . .
C79 C78 C77 C82 56(4) . .
C95 C96 C97 O8 -7(3) . .
C95 C96 C97 C98 178(3) . .
C95 N10 C78 C77 -150(3) . .
C95 N10 C78 C79 -19(5) . .
O12 C106 O13 Cd1 -5.7(19) . 1_556
O13 C106 O12 Cd1 6(2) . 1_556
C35 C36 N4 Cd1 176.4(7) . 1_655
C35 C36 N4 C37 0.0 . .
C36 C35 C34 C28 -177.0(12) . .
C36 C35 C34 C38 0.0 . .
C36 N4 C37 C38 0.0 . .
N4 C37 C38 C34 0.0 . .
C37 C38 C34 C28 176.9(13) . .
C37 C38 C34 C35 0.0 . .
C34 C28 C27 C26 175.8(13) . .
C34 C35 C36 N4 0.0 . .
C76 C75 N8 Cd2 170.8(8) . 1_655
C76 C75 N8 C74 0.0 . .
C75 C76 C72 C66 -175.4(14) . .
C75 C76 C72 C73 0.0 . .
C75 N8 C74 C73 0.0 . .
N8 C74 C73 C72 0.0 . .
C74 C73 C72 C66 175.4(14) . .
C74 C73 C72 C76 0.0 . .
C72 C66 C67 C62 -179.6(16) . .
C72 C76 C75 N8 0.0 . .
C52 C48 C49 C50 -174.3(17) . .
C41 C40 C39 N5 -175.5(18) . .
C41 C40 C39 C44 64(2) . .
V2A O15 C131 C126 3.0(16) . .
V2A O15 C131 C130 -173.0(8) . .
V2A N12 C125 C126 -21(2) . .
V2A N11 C107 C108 23.2(14) . .
V2A N11 C107 C112 146.9(11) . .
V1A O8 C97 C96 -28(3) . .
V1A O8 C97 C98 147.6(16) . .
V1A N9 C83 C84 -19(4) . .
V1A N9 C77 C78 58(3) . .
V1A N9 C77 C82 -178(2) . .
V1A N10 C78 C77 5(3) . .
V1A N10 C78 C79 136(3) . .
V1A N10 C95 C96 29(4) . .
