#------------------------------------------------------------------------------
#$Date: 2017-06-22 03:33:54 +0300 (Thu, 22 Jun 2017) $
#$Revision: 198055 $
#$URL: file:///home/coder/svn-repositories/cod/cif/7/12/03/7120314.cif $
#------------------------------------------------------------------------------
#
# This file is available in the Crystallography Open Database (COD),
# http://www.crystallography.net/
#
# All data on this site have been placed in the public domain by the
# contributors.
#
data_7120314
loop_
_publ_author_name
'McDonald, Kyle Andrew'
'Ko, Nakeun'
'Noh, Kyungkyou'
'Bennion, Jonathan C.'
'Kim, Jaheon'
'Matzger, Adam'
_publ_section_title
;
 Thermal Decomposition Pathways of Nitro-functionalized Metal-Organic
 Frameworks
;
_journal_name_full               'Chem. Commun.'
_journal_paper_doi               10.1039/C7CC03354K
_journal_year                    2017
_chemical_compound_source
'copper nitrate, tetranitrobiphenyl dicarboxylic acid'
_chemical_formula_moiety         'C14 H6 Cu N4 O13 [+ solvent]'
_chemical_formula_sum            'C14 H6 Cu N4 O13'
_chemical_formula_weight         501.77
_chemical_melting_point          ?
_chemical_name_common            CuNbO-1
_chemical_name_systematic        CuNbO-1
_chemical_properties_physical    ', Moisture-sensitive'
_space_group_crystal_system      cubic
_space_group_IT_number           229
_space_group_name_Hall           '-I 4 2 3'
_space_group_name_H-M_alt        'I m -3 m'
_symmetry_space_group_name_Hall  '-I 4 2 3'
_symmetry_space_group_name_H-M   'I m -3 m'
_atom_sites_solution_hydrogens   mixed
_audit_creation_method           SHELXL-2014/7
_audit_update_record
;
2017-04-01 deposited with the CCDC.
2017-06-21 downloaded from the CCDC.
;
_cell_angle_alpha                90
_cell_angle_beta                 90
_cell_angle_gamma                90
_cell_formula_units_Z            12
_cell_length_a                   30.261(4)
_cell_length_b                   30.261(4)
_cell_length_c                   30.261(4)
_cell_measurement_reflns_used    20215
_cell_measurement_temperature    220(2)
_cell_measurement_theta_max      32.058
_cell_measurement_theta_min      2.087
_cell_volume                     27711(6)
_computing_cell_refinement
;
<i>HKL3000SM</i> (Otwinowski & Minor, 1997)
;
_computing_data_collection
;
<i>PAL BL2D-SMDC</i> (Shin <i>et al</i>., 2016<i>a</i>)
;
_computing_data_reduction
;
<i>HKL3000SM</i> (Otwinowski & Minor, 1997)
;
_computing_molecular_graphics    'Bruker SHELXTL'
_computing_publication_material  'Bruker SHELXTL'
_computing_structure_refinement  'SHELXL-2014/7 (Sheldrick, 2014)'
_computing_structure_solution    'SHELXS-97 (Sheldrick 2008)'
_diffrn_ambient_temperature      220(2)
_diffrn_measured_fraction_theta_full 0.950
_diffrn_measured_fraction_theta_max 0.950
_diffrn_measurement_device_type  'ADSC Q210 CCD area-detector'
_diffrn_measurement_method       'omega scan'
_diffrn_radiation_type           synchrotron
_diffrn_radiation_wavelength     0.900
_diffrn_reflns_av_R_equivalents  0.0174
_diffrn_reflns_av_unetI/netI     0.0098
_diffrn_reflns_Laue_measured_fraction_full 0.950
_diffrn_reflns_Laue_measured_fraction_max 0.950
_diffrn_reflns_limit_h_max       35
_diffrn_reflns_limit_h_min       -35
_diffrn_reflns_limit_k_max       34
_diffrn_reflns_limit_k_min       -34
_diffrn_reflns_limit_l_max       33
_diffrn_reflns_limit_l_min       -33
_diffrn_reflns_number            20215
_diffrn_reflns_point_group_measured_fraction_full 0.950
_diffrn_reflns_point_group_measured_fraction_max 0.950
_diffrn_reflns_theta_full        32.058
_diffrn_reflns_theta_max         32.058
_diffrn_reflns_theta_min         2.087
_diffrn_source                   synchrotron
_exptl_absorpt_coefficient_mu    0.472
_exptl_absorpt_correction_type   none
_exptl_crystal_colour            green
_exptl_crystal_density_diffrn    0.361
_exptl_crystal_description       block
_exptl_crystal_F_000             3012
_exptl_crystal_recrystallization_method 'solvothermal reaction in DMA'
_exptl_crystal_size_max          0.300
_exptl_crystal_size_mid          0.300
_exptl_crystal_size_min          0.200
_refine_diff_density_max         0.439
_refine_diff_density_min         -0.176
_refine_diff_density_rms         0.028
_refine_ls_extinction_coef       0.0046(19)
_refine_ls_extinction_expression Fc^*^=kFc[1+0.001xFc^2^\l^3^/sin(2\q)]^-1/4^
_refine_ls_extinction_method     'SHELXL-2014/7 (Sheldrick 2014)'
_refine_ls_goodness_of_fit_ref   1.101
_refine_ls_hydrogen_treatment    mixed
_refine_ls_matrix_type           full
_refine_ls_number_parameters     58
_refine_ls_number_reflns         2192
_refine_ls_number_restraints     2
_refine_ls_restrained_S_all      1.100
_refine_ls_R_factor_all          0.0849
_refine_ls_R_factor_gt           0.0777
_refine_ls_shift/su_max          0.001
_refine_ls_shift/su_mean         0.000
_refine_ls_structure_factor_coef Fsqd
_refine_ls_weighting_details
'w=1/[\s^2^(Fo^2^)+(0.2000P)^2^] where P=(Fo^2^+2Fc^2^)/3'
_refine_ls_weighting_scheme      calc
_refine_ls_wR_factor_gt          0.2517
_refine_ls_wR_factor_ref         0.2620
_reflns_Friedel_coverage         0.000
_reflns_number_gt                1666
_reflns_number_total             2192
_reflns_threshold_expression     'I > 2\s(I)'
_cod_data_source_file            c7cc03354k3.cif
_cod_data_source_block           CuNbO-1_sq
_cod_depositor_comments
;
The following automatic conversions were performed:

'_chemical_melting_point' value 'none' was changed to '?' - the value
is undefined or not given.

Automatic conversion script
Id: cif_fix_values 4973 2017-02-22 13:04:09Z antanas 
;
_cod_original_cell_volume        27711(10)
_cod_database_code               7120314
_shelx_shelxl_version_number     2014/7
_shelx_space_group_comment
;
The symmetry employed for this shelxl refinement is uniquely defined
by the following loop, which should always be used as a source of
symmetry information in preference to the above space-group names.
They are only intended as comments.
;
_shelx_estimated_absorpt_t_min   0.871
_shelx_estimated_absorpt_t_max   0.911
_shelx_res_file
;

    cunbo4_sq.res created by SHELXL-2014/7


TITL CuNbO4 in Im-3m No. 229 Z 96
CELL 0.90000  30.2610  30.2610  30.2610  90.000  90.000  90.000
ZERR  12   0.0035   0.0035   0.0035   0.000   0.000   0.000
LATT 2
SYMM -X, -Y, Z
SYMM -X, Y, -Z
SYMM X, -Y, -Z
SYMM Z, X, Y
SYMM Z, -X, -Y
SYMM -Z, -X, Y
SYMM -Z, X, -Y
SYMM Y, Z, X
SYMM -Y, Z, -X
SYMM Y, -Z, -X
SYMM -Y, -Z, X
SYMM Y, X, -Z
SYMM -Y, -X, -Z
SYMM Y, -X, Z
SYMM -Y, X, Z
SYMM X, Z, -Y
SYMM -X, Z, Y
SYMM -X, -Z, -Y
SYMM X, -Z, Y
SYMM Z, Y, -X
SYMM Z, -Y, X
SYMM -Z, Y, X
SYMM -Z, -Y, -X
SFAC C   H  N  O   Cu
DISP C 0.006 0.003 20.172
DISP Cu 0.151 1.949 9654.341
DISP H -0 0 0.633
DISP N 0.011 0.006 36.799
DISP O 0.019 0.01 63.088
UNIT 168 72 48 156 12
L.S. 12 0    9
ACTA
BOND
TEMP -53
SIZE 0.30 0.30 0.20
FMAP 2
PLAN 10
ABIN
WGHT    0.200000
EXTI    0.004627
FVAR       0.35870
CU1   5    0.500000    0.500000    0.044750    10.12500    0.10411    0.10411 =
         0.25057    0.00000    0.00000    0.00000
O1    4    0.500000    0.500000    0.114292    10.12500    0.20221    0.20221 =
         0.27564    0.00000    0.00000    0.00000
DFIX 0.85 O1 H1
DFIX 2.55 Cu1 H1
H1    2    0.481570    0.481570    0.125382    10.25000   -1.20000

O2    4    0.435484    0.500000    0.037354    10.50000    0.10126    0.16118 =
         0.28000    0.00000    0.00107    0.00000
C1    1    0.275380    0.500000    0.000000    10.25000    0.09682    0.27252 =
         0.28495    0.00000    0.00000    0.00000
C2    1    0.299721    0.500000    0.038340    10.50000    0.10785    0.28222 =
         0.27359    0.00000    0.01374    0.00000
C3    1    0.344486    0.500000    0.038113    10.50000    0.12133    0.23555 =
         0.27545    0.00000   -0.00903    0.00000
AFIX  43
H3    2    0.359603    0.500000    0.065249    10.50000   -1.20000
AFIX   0
C4    1    0.368344    0.500000    0.000000    10.25000    0.10381    0.18557 =
         0.26457    0.00000    0.00000    0.00000
C5    1    0.417550    0.500000    0.000000    10.25000    0.10284    0.13373 =
         0.28390    0.00000    0.00000    0.00000
N1    3    0.276918    0.500000    0.080821    10.50000    0.11053    0.53014 =
         0.30592    0.00000    0.00203    0.00000
O3    4    0.241562    0.500000    0.084682    10.50000    0.13807    1.11010 =
         0.32554    0.00000   -0.00316    0.00000
O4    4    0.295914    0.500000    0.111399    10.50000    0.17215    0.78040 =
         0.32201    0.00000    0.02090    0.00000

HKLF 4

REM  CuNbO4 in Im-3m No. 229 Z 96
REM R1 =  0.0777 for    1666 Fo > 4sig(Fo)  and  0.0849 for all    2192 data
REM     58 parameters refined using      2 restraints

END

WGHT      0.2000      0.0000

REM Highest difference peak  0.439,  deepest hole -0.176,  1-sigma level  0.028
Q1    1   0.5000  0.5000  0.0000  10.06250  0.05    0.44
Q2    1   0.4461  0.5000  0.0383  10.50000  0.05    0.25
Q3    1   0.2500  0.5487  0.0666  11.00000  0.05    0.14
Q4    1   0.5000  0.5000  0.1012  10.12500  0.05    0.11
Q5    1   0.3517  0.5000  0.0481  10.50000  0.05    0.10
Q6    1   0.3848  0.3848  0.0000  10.25000  0.05    0.08
Q7    1   0.4617  0.4617  0.0676  10.50000  0.05    0.08
Q8    1   0.5000  0.3923  0.3816  10.50000  0.05    0.06
Q9    1   0.4001  0.5000  0.3744  10.50000  0.05    0.06
Q10   1   0.4391  0.4471  0.1462  11.00000  0.05    0.06
;
_shelx_res_checksum              76516
_shelx_fab_file
;
    0    0   16    -10.14      0.00
    0    0   18      0.80      0.00
    0    0   20      1.40      0.00
    0    0   22     -1.18      0.00
    0    0   24      0.53      0.00
    0    0   26      0.26      0.00
    0    0   28     -0.26      0.00
    0    0   30      0.11      0.00
    0    0   32      0.92      0.00
    0    1    5     55.35      0.00
    0    1    7     -5.74      0.00
    0    1    9      2.26      0.00
    0    1   11      5.85      0.00
    0    1   13     -1.62      0.00
    0    1   15      4.02      0.00
    0    1   17      1.37      0.00
    0    1   19     -1.40      0.00
    0    1   21     -1.03      0.00
    0    1   23      0.99      0.00
    0    1   25     -0.61      0.00
    0    1   27      0.74      0.00
    0    1   29     -0.53      0.00
    0    1   31      0.49      0.00
    0    2   10    -15.55      0.00
    0    2   12     -1.88      0.00
    0    2   16     -1.18      0.00
    0    2   18      0.68      0.00
    0    2   20      1.80      0.00
    0    2   22     -0.13      0.00
    0    2   24     -0.49      0.00
    0    2   26      0.06      0.00
    0    2   28      0.02      0.00
    0    2   30      0.37      0.00
    0    2   32      0.28      0.00
    0    3    5    -72.69      0.00
    0    3    9     11.95      0.00
    0    3   11     14.99      0.00
    0    3   13      4.14      0.00
    0    3   15     -0.59      0.00
    0    3   17     -3.36      0.00
    0    3   19     -0.62      0.00
    0    3   21     -0.80      0.00
    0    3   23      0.77      0.00
    0    3   25      1.04      0.00
    0    3   27      0.00      0.00
    0    3   29     -0.61      0.00
    0    3   31     -0.37      0.00
    0    4    6     28.10      0.00
    0    4    8     -5.05      0.00
    0    4   10    -16.16      0.00
    0    4   12     -3.66      0.00
    0    4   14      2.52      0.00
    0    4   16      6.38      0.00
    0    4   18     -1.19      0.00
    0    4   20      0.44      0.00
    0    4   22     -1.09      0.00
    0    4   24     -0.71      0.00
    0    4   26      0.96      0.00
    0    4   28     -0.16      0.00
    0    4   30      0.06      0.00
    0    4   32     -0.98      0.00
    0    5    7     -6.13      0.00
    0    5    9    -13.57      0.00
    0    5   11      3.24      0.00
    0    5   13      5.03      0.00
    0    5   15     -1.32      0.00
    0    5   17     -2.94      0.00
    0    5   19     -1.41      0.00
    0    5   21      0.09      0.00
    0    5   23      0.54      0.00
    0    5   25      0.51      0.00
    0    5   27      0.62      0.00
    0    5   29     -0.19      0.00
    0    5   31     -0.36      0.00
    0    6    6    -10.07      0.00
    0    6    8    -18.86      0.00
    0    6   10      3.99      0.00
    0    6   12      0.11      0.00
    0    6   14      5.70      0.00
    0    6   16      1.19      0.00
    0    6   18     -1.54      0.00
    0    6   20     -0.80      0.00
    0    6   22     -0.76      0.00
    0    6   24     -0.24      0.00
    0    6   26      0.76      0.00
    0    6   28      0.37      0.00
    0    6   30      0.04      0.00
    0    6   32      0.58      0.00
    0    7    7     50.22      0.00
    0    7    9      9.21      0.00
    0    7   11     -9.33      0.00
    0    7   13     -4.54      0.00
    0    7   15      0.98      0.00
    0    7   17      0.23      0.00
    0    7   19     -0.77      0.00
    0    7   21      1.44      0.00
    0    7   23      0.32      0.00
    0    7   25      0.00      0.00
    0    7   27     -0.31      0.00
    0    7   29      0.42      0.00
    0    7   31      0.67      0.00
    0    8    8     16.31      0.00
    0    8   10      0.59      0.00
    0    8   12      0.17      0.00
    0    8   14      2.29      0.00
    0    8   16      0.03      0.00
    0    8   18     -0.58      0.00
    0    8   20     -1.07      0.00
    0    8   22      0.27      0.00
    0    8   24      0.35      0.00
    0    8   26      0.01      0.00
    0    8   28      0.59      0.00
    0    8   30      0.16      0.00
    0    8   32     -0.35      0.00
    0    9    9      4.28      0.00
    0    9   11     -1.89      0.00
    0    9   13     -6.31      0.00
    0    9   15      1.32      0.00
    0    9   17      1.84      0.00
    0    9   19      1.58      0.00
    0    9   21     -0.36      0.00
    0    9   23     -0.78      0.00
    0    9   25     -0.25      0.00
    0    9   27     -0.18      0.00
    0    9   29     -0.65      0.00
    0    9   31      0.25      0.00
    0   10   10      4.91      0.00
    0   10   12      6.09      0.00
    0   10   14     -3.79      0.00
    0   10   16     -4.28      0.00
    0   10   18     -0.21      0.00
    0   10   20     -0.83      0.00
    0   10   22      1.55      0.00
    0   10   24      0.35      0.00
    0   10   26     -0.36      0.00
    0   10   28      0.69      0.00
    0   10   30     -0.71      0.00
    0   10   32     -0.73      0.00
    0   11   11      6.45      0.00
    0   11   13      0.08      0.00
    0   11   15      0.26      0.00
    0   11   17      0.54      0.00
    0   11   19      0.26      0.00
    0   11   21     -1.31      0.00
    0   11   23     -0.77      0.00
    0   11   25      0.34      0.00
    0   11   27     -0.55      0.00
    0   11   29      0.18      0.00
    0   11   31      0.02      0.00
    0   12   12      5.50      0.00
    0   12   14     -3.86      0.00
    0   12   16     -2.97      0.00
    0   12   18      0.57      0.00
    0   12   20      1.08      0.00
    0   12   22      0.34      0.00
    0   12   24     -1.12      0.00
    0   12   26     -0.46      0.00
    0   12   28      0.01      0.00
    0   12   30     -0.53      0.00
    0   12   32      0.26      0.00
    0   13   13      7.20      0.00
    0   13   15      0.64      0.00
    0   13   17     -1.89      0.00
    0   13   19     -1.02      0.00
    0   13   21     -0.17      0.00
    0   13   23      0.07      0.00
    0   13   25      0.76      0.00
    0   13   27      0.66      0.00
    0   13   29      0.02      0.00
    0   13   31      0.08      0.00
    0   14   14      1.56      0.00
    0   14   16      1.19      0.00
    0   14   18      0.81      0.00
    0   14   20      1.10      0.00
    0   14   22     -0.26      0.00
    0   14   24     -0.53      0.00
    0   14   26     -0.44      0.00
    0   14   28      0.11      0.00
    0   14   30      0.05      0.00
    0   14   32     -1.91      0.00
    0   15   15      0.75      0.00
    0   15   17     -1.14      0.00
    0   15   19     -0.59      0.00
    0   15   21      0.15      0.00
    0   15   23      0.28      0.00
    0   15   25      0.72      0.00
    0   15   27      0.22      0.00
    0   15   29     -0.11      0.00
    0   15   31     -1.11      0.00
    0   16   16      2.63      0.00
    0   16   18      0.45      0.00
    0   16   20     -0.21      0.00
    0   16   22     -0.27      0.00
    0   16   24      0.12      0.00
    0   16   26      0.33      0.00
    0   16   28      0.93      0.00
    0   16   30     -0.50      0.00
    0   17   17     -0.10      0.00
    0   17   19      0.20      0.00
    0   17   21      1.04      0.00
    0   17   23      0.89      0.00
    0   17   25     -0.18      0.00
    0   17   27      0.19      0.00
    0   17   29     -0.62      0.00
    0   17   31     -2.75      0.00
    0   18   18      0.13      0.00
    0   18   20     -0.21      0.00
    0   18   22     -0.09      0.00
    0   18   24      0.47      0.00
    0   18   26      0.84      0.00
    0   18   28      0.12      0.00
    0   18   30      0.05      0.00
    0   19   19      0.66      0.00
    0   19   21      0.81      0.00
    0   19   23      0.15      0.00
    0   19   25      0.05      0.00
    0   19   27     -1.20      0.00
    0   19   29     -0.07      0.00
    0   20   20     -0.52      0.00
    0   20   22      0.64      0.00
    0   20   24      0.66      0.00
    0   20   26     -0.78      0.00
    0   21   21      0.29      0.00
    0   21   23      0.17      0.00
    0   21   25     -0.41      0.00
    0   22   22     -0.40      0.00
    0   22   24     -0.26      0.00
    0   23   23     -0.78      0.00
    0    1   33      1.02      0.00
    0    3   33     -0.68      0.00
    0    5   33      0.54      0.00
    0    7   33     -0.97      0.00
    0    9   33      0.06      0.00
    0   11   33      1.02      0.00
    0   13   33      0.57      0.00
    1    1    2    -31.27      0.00
    1    1   16      2.18      0.00
    1    1   18     -1.28      0.00
    1    1   20      0.73      0.00
    1    1   22     -0.62      0.00
    1    1   24      0.02      0.00
    1    1   26      1.04      0.00
    1    1   28     -0.78      0.00
    1    1   30      0.32      0.00
    1    1   32     -0.25      0.00
    1    2    3    -65.34      0.00
    1    2    5     20.39      0.00
    1    2    7    -15.24      0.00
    1    2    9      2.11      0.00
    1    2   11     -3.10      0.00
    1    2   13     -8.13      0.00
    1    2   15     -0.82      0.00
    1    2   17      2.08      0.00
    1    2   19      0.14      0.00
    1    2   21     -0.27      0.00
    1    2   23      0.47      0.00
    1    2   25     -0.50      0.00
    1    2   27     -0.28      0.00
    1    2   29      0.52      0.00
    1    2   31     -0.83      0.00
    1    3    6     13.74      0.00
    1    3    8      4.99      0.00
    1    3   10     -4.70      0.00
    1    3   12      7.42      0.00
    1    3   16     -1.58      0.00
    1    3   18     -0.77      0.00
    1    3   20      0.59      0.00
    1    3   22      0.42      0.00
    1    3   24     -0.08      0.00
    1    3   26      0.10      0.00
    1    3   28     -0.09      0.00
    1    3   30      0.00      0.00
    1    3   32     -0.16      0.00
    1    4    5    -14.55      0.00
    1    4    7     10.24      0.00
    1    4    9     12.87      0.00
    1    4   11     -0.34      0.00
    1    4   13    -11.41      0.00
    1    4   15     -0.62      0.00
    1    4   17      3.23      0.00
    1    4   19      1.10      0.00
    1    4   21      1.01      0.00
    1    4   23      0.11      0.00
    1    4   25     -0.60      0.00
    1    4   27     -0.35      0.00
    1    4   29     -0.48      0.00
    1    4   31     -0.08      0.00
    1    5    6     -9.25      0.00
    1    5    8     16.43      0.00
    1    5   10      3.11      0.00
    1    5   12      2.90      0.00
    1    5   14     -2.78      0.00
    1    5   16     -3.63      0.00
    1    5   18      1.30      0.00
    1    5   20     -0.14      0.00
    1    5   22      0.61      0.00
    1    5   24      0.18      0.00
    1    5   26     -0.68      0.00
    1    5   28     -0.62      0.00
    1    5   30      0.24      0.00
    1    5   32      0.09      0.00
    1    6    7      4.54      0.00
    1    6    9      0.07      0.00
    1    6   11     -2.68      0.00
    1    6   13     -1.09      0.00
    1    6   15      2.57      0.00
    1    6   17      0.69      0.00
    1    6   19      1.07      0.00
    1    6   21     -0.66      0.00
    1    6   23     -0.39      0.00
    1    6   25     -0.41      0.00
    1    6   27      0.06      0.00
    1    6   29      0.39      0.00
    1    6   31     -0.02      0.00
    1    7    8      0.80      0.00
    1    7   10      0.09      0.00
    1    7   12      1.71      0.00
    1    7   14     -6.77      0.00
    1    7   16     -0.08      0.00
    1    7   18      2.79      0.00
    1    7   20      0.80      0.00
    1    7   22     -0.08      0.00
    1    7   24     -0.22      0.00
    1    7   26     -0.20      0.00
    1    7   28     -0.46      0.00
    1    7   30     -0.23      0.00
    1    7   32      0.29      0.00
    1    8    9     -7.62      0.00
    1    8   11      4.45      0.00
    1    8   13      6.97      0.00
    1    8   15     -0.15      0.00
    1    8   17     -2.02      0.00
    1    8   19     -0.39      0.00
    1    8   21     -0.50      0.00
    1    8   23     -0.26      0.00
    1    8   25      0.66      0.00
    1    8   27      0.32      0.00
    1    8   29      0.28      0.00
    1    8   31      0.09      0.00
    1    9   10     -4.90      0.00
    1    9   12     -0.05      0.00
    1    9   14      0.03      0.00
    1    9   16      0.69      0.00
    1    9   18      0.84      0.00
    1    9   20      0.46      0.00
    1    9   22     -0.70      0.00
    1    9   24     -0.33      0.00
    1    9   26      0.04      0.00
    1    9   28      1.21      0.00
    1    9   30     -0.29      0.00
    1    9   32      0.25      0.00
    1   10   11     -3.31      0.00
    1   10   13      3.13      0.00
    1   10   15      1.05      0.00
    1   10   17     -2.38      0.00
    1   10   19     -0.67      0.00
    1   10   21      0.35      0.00
    1   10   23      0.33      0.00
    1   10   25      1.07      0.00
    1   10   27      0.16      0.00
    1   10   29     -0.13      0.00
    1   10   31     -0.37      0.00
    1   11   12     -3.71      0.00
    1   11   14      4.35      0.00
    1   11   16      1.78      0.00
    1   11   18     -1.30      0.00
    1   11   20     -0.12      0.00
    1   11   22      0.04      0.00
    1   11   24     -0.64      0.00
    1   11   26      0.19      0.00
    1   11   28      0.44      0.00
    1   11   30      0.10      0.00
    1   11   32      0.23      0.00
    1   12   13     -2.89      0.00
    1   12   15      1.10      0.00
    1   12   17      0.84      0.00
    1   12   19     -0.34      0.00
    1   12   21      0.58      0.00
    1   12   23      0.31      0.00
    1   12   25      0.12      0.00
    1   12   27     -0.09      0.00
    1   12   29     -0.63      0.00
    1   12   31     -0.65      0.00
    1   13   14     -1.27      0.00
    1   13   16      1.14      0.00
    1   13   18      0.86      0.00
    1   13   20     -0.46      0.00
    1   13   22      0.25      0.00
    1   13   24      0.67      0.00
    1   13   26      0.15      0.00
    1   13   28      0.18      0.00
    1   13   30     -0.12      0.00
    1   13   32      0.40      0.00
    1   14   15     -1.02      0.00
    1   14   17      0.53      0.00
    1   14   19      0.59      0.00
    1   14   21      0.25      0.00
    1   14   23     -0.37      0.00
    1   14   25     -0.57      0.00
    1   14   27     -0.38      0.00
    1   14   29     -0.30      0.00
    1   14   31      0.64      0.00
    1   15   16     -0.66      0.00
    1   15   18      0.14      0.00
    1   15   20     -0.26      0.00
    1   15   22      0.01      0.00
    1   15   24      0.32      0.00
    1   15   26     -0.15      0.00
    1   15   28     -0.17      0.00
    1   15   30     -0.30      0.00
    1   15   32     -1.13      0.00
    1   16   17     -0.29      0.00
    1   16   19      0.41      0.00
    1   16   21      0.18      0.00
    1   16   23     -0.28      0.00
    1   16   25      0.01      0.00
    1   16   27     -0.62      0.00
    1   16   29      0.49      0.00
    1   16   31      0.98      0.00
    1   17   18     -0.11      0.00
    1   17   20     -0.03      0.00
    1   17   22     -0.47      0.00
    1   17   24     -0.59      0.00
    1   17   26     -0.49      0.00
    1   17   28     -0.60      0.00
    1   17   30      0.86      0.00
    1   18   19     -0.16      0.00
    1   18   21     -0.45      0.00
    1   18   23     -0.24      0.00
    1   18   25     -0.36      0.00
    1   18   27      0.66      0.00
    1   18   29      0.49      0.00
    1   19   20     -0.25      0.00
    1   19   22     -0.34      0.00
    1   19   24     -0.65      0.00
    1   19   26     -0.03      0.00
    1   19   28      1.01      0.00
    1   20   21     -0.06      0.00
    1   20   23      0.25      0.00
    1   20   25      0.27      0.00
    1   20   27      0.00      0.00
    1   21   22     -0.34      0.00
    1   21   24      0.20      0.00
    1   21   26      0.31      0.00
    1   22   23      0.29      0.00
    1   22   25      0.64      0.00
    1   23   24      1.12      0.00
    1    2   33      0.66      0.00
    1    4   33     -0.30      0.00
    1    6   33      0.50      0.00
    1    8   33     -0.07      0.00
    1   10   33     -0.70      0.00
    1   12   33      1.92      0.00
    0    2    8      5.46      0.00
    2    2    2     78.36      0.00
    2    2    6     -2.57      0.00
    2    2    8     17.74      0.00
    2    2   10     -7.75      0.00
    2    2   12     -0.11      0.00
    2    2   14      2.36      0.00
    2    2   16      0.94      0.00
    2    2   18     -0.62      0.00
    2    2   20     -0.29      0.00
    2    2   22      0.32      0.00
    2    2   24     -0.28      0.00
    2    2   26     -0.20      0.00
    2    2   28     -0.45      0.00
    2    2   30      0.43      0.00
    2    2   32     -0.57      0.00
    2    3    3     63.99      0.00
    2    3    5     19.18      0.00
    2    3    7    -18.48      0.00
    2    3    9      3.71      0.00
    2    3   11      3.70      0.00
    2    3   13      4.01      0.00
    2    3   15      1.84      0.00
    2    3   17     -1.02      0.00
    2    3   19      0.09      0.00
    2    3   21     -1.15      0.00
    2    3   23      0.63      0.00
    2    3   25     -0.13      0.00
    2    3   27     -0.33      0.00
    2    3   29      0.80      0.00
    2    3   31     -0.48      0.00
    2    4    4     27.63      0.00
    2    4    6     -6.75      0.00
    2    4    8     -2.12      0.00
    2    4   10     -2.12      0.00
    2    4   12      1.11      0.00
    2    4   14      0.77      0.00
    2    4   16      0.40      0.00
    2    4   18     -0.60      0.00
    2    4   20     -0.18      0.00
    2    4   22      0.01      0.00
    2    4   24      0.26      0.00
    2    4   26      0.40      0.00
    2    4   28     -0.09      0.00
    2    4   30     -0.14      0.00
    2    4   32     -0.16      0.00
    2    5    5     17.24      0.00
    2    5    7     -5.63      0.00
    2    5    9    -11.97      0.00
    2    5   11      3.95      0.00
    2    5   13      3.59      0.00
    2    5   15      0.42      0.00
    2    5   17     -2.77      0.00
    2    5   19     -0.52      0.00
    2    5   21     -0.11      0.00
    2    5   23      0.30      0.00
    2    5   25      0.14      0.00
    2    5   27      0.51      0.00
    2    5   29     -0.07      0.00
    2    5   31     -0.67      0.00
    2    6    6      2.42      0.00
    2    6    8     -7.10      0.00
    2    6   10     -0.34      0.00
    2    6   12      3.23      0.00
    2    6   14      0.54      0.00
    2    6   16     -0.72      0.00
    2    6   18     -0.17      0.00
    2    6   20     -0.01      0.00
    2    6   22     -0.18      0.00
    2    6   24     -0.21      0.00
    2    6   26      0.10      0.00
    2    6   28      0.19      0.00
    2    6   30      0.12      0.00
    2    6   32     -0.06      0.00
    2    7    7      3.68      0.00
    2    7    9      5.40      0.00
    2    7   11     -8.64      0.00
    2    7   13     -1.00      0.00
    2    7   15      1.74      0.00
    2    7   17      0.22      0.00
    2    7   19     -0.49      0.00
    2    7   21      1.01      0.00
    2    7   23      0.37      0.00
    2    7   25      0.00      0.00
    2    7   27     -0.11      0.00
    2    7   29     -0.20      0.00
    2    7   31     -0.03      0.00
    2    8    8      6.20      0.00
    2    8   10     -0.97      0.00
    2    8   12     -1.45      0.00
    2    8   14      0.52      0.00
    2    8   16      0.79      0.00
    2    8   18      0.50      0.00
    2    8   20     -0.63      0.00
    2    8   22      0.44      0.00
    2    8   24     -0.22      0.00
    2    8   26     -0.50      0.00
    2    8   28      0.10      0.00
    2    8   30      0.57      0.00
    2    8   32      0.16      0.00
    2    9    9      5.63      0.00
    2    9   11     -3.76      0.00
    2    9   13     -2.03      0.00
    2    9   15      0.89      0.00
    2    9   17      0.47      0.00
    2    9   19      0.49      0.00
    2    9   21     -0.01      0.00
    2    9   23     -0.39      0.00
    2    9   25     -0.10      0.00
    2    9   27     -0.27      0.00
    2    9   29      0.04      0.00
    2    9   31     -0.12      0.00
    2   10   10      2.63      0.00
    2   10   12     -0.29      0.00
    2   10   14     -4.23      0.00
    2   10   16     -0.78      0.00
    2   10   18      1.58      0.00
    2   10   20      0.09      0.00
    2   10   22      0.24      0.00
    2   10   24      0.48      0.00
    2   10   26     -0.39      0.00
    2   10   28     -0.21      0.00
    2   10   30     -0.29      0.00
    2   10   32     -0.01      0.00
    2   11   11      5.82      0.00
    2   11   13      0.94      0.00
    2   11   15     -1.07      0.00
    2   11   17     -0.88      0.00
    2   11   19      0.27      0.00
    2   11   21     -0.11      0.00
    2   11   23     -0.10      0.00
    2   11   25     -0.24      0.00
    2   11   27      0.01      0.00
    2   11   29      0.18      0.00
    2   11   31      0.46      0.00
    2   12   12      1.61      0.00
    2   12   14     -0.83      0.00
    2   12   16     -0.43      0.00
    2   12   18      0.19      0.00
    2   12   20      0.40      0.00
    2   12   22     -0.72      0.00
    2   12   24     -0.37      0.00
    2   12   26      0.09      0.00
    2   12   28      0.23      0.00
    2   12   30      0.22      0.00
    2   12   32     -0.56      0.00
    2   13   13      2.11      0.00
    2   13   15     -1.50      0.00
    2   13   17     -0.86      0.00
    2   13   19      0.32      0.00
    2   13   21      0.49      0.00
    2   13   23     -0.23      0.00
    2   13   25      0.07      0.00
    2   13   27      0.25      0.00
    2   13   29      0.08      0.00
    2   13   31     -0.15      0.00
    2   14   14      3.09      0.00
    2   14   16      0.07      0.00
    2   14   18     -0.63      0.00
    2   14   20     -0.05      0.00
    2   14   22     -0.46      0.00
    2   14   24      0.11      0.00
    2   14   26      0.13      0.00
    2   14   28     -0.09      0.00
    2   14   30      0.66      0.00
    2   14   32      0.48      0.00
    2   15   15      0.82      0.00
    2   15   17      0.57      0.00
    2   15   19     -0.59      0.00
    2   15   21      0.31      0.00
    2   15   23     -0.17      0.00
    2   15   25     -0.14      0.00
    2   15   27      0.28      0.00
    2   15   29      0.07      0.00
    2   15   31      0.08      0.00
    2   16   16      0.45      0.00
    2   16   18     -0.30      0.00
    2   16   20     -0.25      0.00
    2   16   22     -0.05      0.00
    2   16   24      0.34      0.00
    2   16   26      0.56      0.00
    2   16   28      0.67      0.00
    2   16   30     -0.65      0.00
    2   17   17      0.22      0.00
    2   17   19     -0.35      0.00
    2   17   21     -0.04      0.00
    2   17   23     -0.05      0.00
    2   17   25     -0.03      0.00
    2   17   27     -0.06      0.00
    2   17   29     -0.23      0.00
    2   18   18     -0.16      0.00
    2   18   20     -0.03      0.00
    2   18   22      0.21      0.00
    2   18   24      0.17      0.00
    2   18   26     -0.93      0.00
    2   18   28      0.08      0.00
    2   18   30      0.05      0.00
    2   19   19     -0.42      0.00
    2   19   21      0.06      0.00
    2   19   23      0.39      0.00
    2   19   25      0.25      0.00
    2   19   27     -1.00      0.00
    2   19   29     -0.12      0.00
    2   20   20      0.46      0.00
    2   20   22      0.11      0.00
    2   20   24      0.07      0.00
    2   20   26     -0.47      0.00
    2   21   21     -0.19      0.00
    2   21   23     -0.21      0.00
    2   21   25     -0.07      0.00
    2   21   27      0.12      0.00
    2   22   22      0.33      0.00
    2   22   24     -0.37      0.00
    2   22   26     -0.75      0.00
    2   23   23      0.42      0.00
    2   24   24     -1.30      0.00
    2    3   33      0.04      0.00
    2    5   33      0.14      0.00
    2    7   33     -0.21      0.00
    2    9   33      0.22      0.00
    2   11   33      0.07      0.00
    2    4   34      0.81      0.00
    2    6   34     -0.04      0.00
    2    8   34      0.69      0.00
    3    3    4    -14.37      0.00
    3    3    6      3.62      0.00
    3    3    8    -12.55      0.00
    3    3   10      6.84      0.00
    3    3   12      7.22      0.00
    3    3   14     -5.42      0.00
    3    3   16      1.34      0.00
    3    3   18      0.68      0.00
    3    3   20      0.10      0.00
    3    3   22     -0.86      0.00
    3    3   24     -1.31      0.00
    3    3   26      0.38      0.00
    3    3   28      0.69      0.00
    3    3   30      0.14      0.00
    3    3   32      0.05      0.00
    3    4    5     -1.84      0.00
    3    4    7     16.29      0.00
    3    4    9      7.84      0.00
    3    4   11    -12.29      0.00
    3    4   13     -0.61      0.00
    3    4   15      1.55      0.00
    3    4   17     -0.38      0.00
    3    4   19      0.26      0.00
    3    4   21      0.13      0.00
    3    4   23      0.18      0.00
    3    4   25     -0.44      0.00
    3    4   27     -0.16      0.00
    3    4   29      1.23      0.00
    3    4   31      0.77      0.00
    3    5    6    -21.41      0.00
    3    5    8     -6.16      0.00
    3    5   10      2.13      0.00
    3    5   12     -3.01      0.00
    3    5   14     -2.16      0.00
    3    5   16      2.84      0.00
    3    5   18     -1.02      0.00
    3    5   20     -0.20      0.00
    3    5   22     -0.64      0.00
    3    5   24     -0.19      0.00
    3    5   26      0.08      0.00
    3    5   28     -0.02      0.00
    3    5   30      0.09      0.00
    3    5   32      0.29      0.00
    3    6    7     -1.35      0.00
    3    6    9     -0.22      0.00
    3    6   11     -0.90      0.00
    3    6   13      2.80      0.00
    3    6   15     -1.23      0.00
    3    6   17     -1.65      0.00
    3    6   19      0.80      0.00
    3    6   21     -0.22      0.00
    3    6   23     -0.49      0.00
    3    6   25     -0.67      0.00
    3    6   27      0.01      0.00
    3    6   29      0.08      0.00
    3    6   31      0.20      0.00
    3    7    8     -5.82      0.00
    3    7   10      8.49      0.00
    3    7   12     -2.16      0.00
    3    7   14     -1.39      0.00
    3    7   16      1.31      0.00
    3    7   18     -0.62      0.00
    3    7   20     -0.73      0.00
    3    7   22     -0.03      0.00
    3    7   24      0.83      0.00
    3    7   26      0.51      0.00
    3    7   28      0.52      0.00
    3    7   30      0.09      0.00
    3    7   32     -1.12      0.00
    3    8    9     -6.50      0.00
    3    8   11      3.96      0.00
    3    8   13      3.98      0.00
    3    8   15     -2.24      0.00
    3    8   17     -0.70      0.00
    3    8   19      0.37      0.00
    3    8   21     -0.21      0.00
    3    8   23     -0.13      0.00
    3    8   25      0.05      0.00
    3    8   27      0.20      0.00
    3    8   29     -0.04      0.00
    3    8   31     -0.06      0.00
    3    8   33     -0.25      0.00
    3    9   10     -0.96      0.00
    3    9   12      4.55      0.00
    3    9   14      2.45      0.00
    3    9   16     -1.15      0.00
    3    9   18     -0.48      0.00
    3    9   20     -0.70      0.00
    3    9   22     -0.38      0.00
    3    9   24      0.08      0.00
    3    9   26     -0.67      0.00
    3    9   28      0.12      0.00
    3    9   30     -0.47      0.00
    3    9   32     -0.90      0.00
    3   10   11     -2.06      0.00
    3   10   13     -0.14      0.00
    3   10   15      1.23      0.00
    3   10   17     -0.59      0.00
    3   10   19     -0.65      0.00
    3   10   21      0.24      0.00
    3   10   23     -0.27      0.00
    3   10   25      0.20      0.00
    3   10   27     -0.11      0.00
    3   10   29     -0.11      0.00
    3   10   31     -0.26      0.00
    3   10   33     -0.36      0.00
    3   11   12      2.86      0.00
    3   11   14      2.29      0.00
    3   11   16     -1.58      0.00
    3   11   18     -0.76      0.00
    3   11   20     -0.01      0.00
    3   11   22      0.34      0.00
    3   11   24     -0.47      0.00
    3   11   26      0.08      0.00
    3   11   28     -0.22      0.00
    3   11   30      0.85      0.00
    3   11   32     -0.75      0.00
    3   12   13     -1.61      0.00
    3   12   15      1.40      0.00
    3   12   17      0.85      0.00
    3   12   19     -0.79      0.00
    3   12   21     -0.55      0.00
    3   12   23     -0.04      0.00
    3   12   25      0.09      0.00
    3   12   27     -0.15      0.00
    3   12   29     -0.29      0.00
    3   12   31     -0.55      0.00
    3   13   14     -1.27      0.00
    3   13   16     -0.48      0.00
    3   13   18      0.21      0.00
    3   13   20      0.04      0.00
    3   13   22      0.26      0.00
    3   13   24      0.46      0.00
    3   13   26     -0.39      0.00
    3   13   28     -0.31      0.00
    3   13   30      0.12      0.00
    3   13   32     -0.93      0.00
    3   14   15     -0.79      0.00
    3   14   17      0.81      0.00
    3   14   19     -0.17      0.00
    3   14   21      0.16      0.00
    3   14   23      0.00      0.00
    3   14   25     -0.20      0.00
    3   14   27     -0.19      0.00
    3   14   29      0.00      0.00
    3   14   31      0.60      0.00
    3   15   16     -1.03      0.00
    3   15   18      1.11      0.00
    3   15   20      0.48      0.00
    3   15   22      0.17      0.00
    3   15   24     -0.41      0.00
    3   15   26     -0.51      0.00
    3   15   28      0.16      0.00
    3   15   30      0.45      0.00
    3   16   17     -0.47      0.00
    3   16   19      0.58      0.00
    3   16   21      0.31      0.00
    3   16   23      0.23      0.00
    3   16   25      0.04      0.00
    3   16   27      0.02      0.00
    3   16   29      1.65      0.00
    3   17   18      0.40      0.00
    3   17   20      0.21      0.00
    3   17   22     -0.15      0.00
    3   17   24      0.23      0.00
    3   17   26      0.71      0.00
    3   17   28      0.58      0.00
    3   17   30     -0.54      0.00
    3   18   19      0.06      0.00
    3   18   21      0.03      0.00
    3   18   23      0.04      0.00
    3   18   25     -0.15      0.00
    3   18   27      0.85      0.00
    3   18   29      0.57      0.00
    3   19   20      0.22      0.00
    3   19   22     -0.07      0.00
    3   19   24      0.01      0.00
    3   19   26      0.59      0.00
    3   19   28      0.55      0.00
    3   20   21      0.12      0.00
    3   20   23      0.47      0.00
    3   20   25      0.12      0.00
    3   20   27      0.36      0.00
    3   20   29      0.35      0.00
    3   21   22      0.39      0.00
    3   21   24      0.59      0.00
    3   22   23      1.41      0.00
    3   22   25     -0.12      0.00
    3   23   24     -0.18      0.00
    3   21   26     -0.33      0.00
    3   15   32      1.06      0.00
    3    4   33     -0.43      0.00
    3    6   33     -1.37      0.00
    1    3   34      0.55      0.00
    3    3   34      0.53      0.00
    3    5   34      0.15      0.00
    3    7   34     -0.40      0.00
    3    9   34      1.60      0.00
    4    4    8    -10.03      0.00
    4    4   10     12.20      0.00
    4    4   12      7.12      0.00
    4    4   14     -5.35      0.00
    4    4   16     -4.43      0.00
    4    4   18      1.27      0.00
    4    4   20      0.41      0.00
    4    4   22      0.83      0.00
    4    4   24      0.44      0.00
    4    4   26      0.33      0.00
    4    4   28     -0.60      0.00
    4    4   30     -0.43      0.00
    4    4   32      0.26      0.00
    4    5    5     15.04      0.00
    4    5    7     10.65      0.00
    4    5    9    -12.19      0.00
    4    5   11      1.84      0.00
    4    5   13      2.87      0.00
    4    5   15      0.90      0.00
    4    5   17     -0.31      0.00
    4    5   19     -0.13      0.00
    4    5   21     -0.17      0.00
    4    5   23      0.37      0.00
    4    5   25     -0.60      0.00
    4    5   27     -0.52      0.00
    4    5   29     -0.38      0.00
    4    5   31     -0.23      0.00
    4    6    6      6.85      0.00
    4    6    8      5.90      0.00
    4    6   10      4.55      0.00
    4    6   12      0.33      0.00
    4    6   14     -5.29      0.00
    4    6   16      0.00      0.00
    4    6   18      2.00      0.00
    4    6   20      0.23      0.00
    4    6   22      0.47      0.00
    4    6   24     -0.02      0.00
    4    6   26     -0.18      0.00
    4    6   28     -0.80      0.00
    4    6   30     -0.49      0.00
    4    6   32      0.25      0.00
    4    7    7      2.99      0.00
    4    7    9    -11.55      0.00
    4    7   11     -3.86      0.00
    4    7   13      5.56      0.00
    4    7   15      0.43      0.00
    4    7   17     -0.90      0.00
    4    7   19      0.73      0.00
    4    7   21     -0.47      0.00
    4    7   23      0.35      0.00
    4    7   25      0.40      0.00
    4    7   27     -0.26      0.00
    4    7   29      0.22      0.00
    4    7   31     -0.12      0.00
    4    7   33     -1.17      0.00
    4    8    8     11.35      0.00
    4    8   10     -2.93      0.00
    4    8   12     -4.06      0.00
    4    8   14     -0.15      0.00
    4    8   16      1.82      0.00
    4    8   18     -0.47      0.00
    4    8   20     -0.18      0.00
    4    8   22      0.14      0.00
    4    8   24     -0.25      0.00
    4    8   26      0.04      0.00
    4    8   28     -0.22      0.00
    4    8   30      0.20      0.00
    4    8   32     -0.11      0.00
    4    9    9      1.76      0.00
    4    9   11      3.36      0.00
    4    9   13      0.32      0.00
    4    9   15     -0.83      0.00
    4    9   17     -0.25      0.00
    4    9   19      0.49      0.00
    4    9   21     -0.41      0.00
    4    9   23     -0.03      0.00
    4    9   25      0.23      0.00
    4    9   27     -0.01      0.00
    4    9   29     -0.02      0.00
    4    9   31      0.50      0.00
    4    9   33      0.57      0.00
    4   10   10     -3.51      0.00
    4   10   12     -3.76      0.00
    4   10   14     -1.16      0.00
    4   10   16      2.04      0.00
    4   10   18      0.95      0.00
    4   10   20      0.25      0.00
    4   10   22     -0.29      0.00
    4   10   24     -0.22      0.00
    4   10   26      0.06      0.00
    4   10   28      0.27      0.00
    4   10   30      0.37      0.00
    4   10   32     -0.34      0.00
    4   11   11      1.72      0.00
    4   11   13     -0.83      0.00
    4   11   15     -1.98      0.00
    4   11   17      0.48      0.00
    4   11   19      0.03      0.00
    4   11   21      0.25      0.00
    4   11   23     -0.18      0.00
    4   11   25      0.44      0.00
    4   11   27      0.44      0.00
    4   11   29      0.05      0.00
    4   11   31     -0.09      0.00
    4   11   33     -1.39      0.00
    4   12   12     -0.18      0.00
    4   12   14      1.94      0.00
    4   12   16      0.47      0.00
    4   12   18      0.36      0.00
    4   12   20      0.65      0.00
    4   12   22     -0.20      0.00
    4   12   24      0.16      0.00
    4   12   26     -0.21      0.00
    4   12   28      0.51      0.00
    4   12   30      0.23      0.00
    4   12   32      0.20      0.00
    4   13   13     -2.35      0.00
    4   13   15     -0.70      0.00
    4   13   17     -0.01      0.00
    4   13   19      0.29      0.00
    4   13   21      0.31      0.00
    4   13   23     -0.11      0.00
    4   13   25      0.11      0.00
    4   13   27      0.04      0.00
    4   13   29     -0.08      0.00
    4   13   31     -0.63      0.00
    4   14   14      2.27      0.00
    4   14   16     -0.58      0.00
    4   14   18     -0.71      0.00
    4   14   20     -0.69      0.00
    4   14   22     -0.30      0.00
    4   14   24     -0.57      0.00
    4   14   26      0.19      0.00
    4   14   28      0.39      0.00
    4   14   30     -0.31      0.00
    4   14   32     -0.56      0.00
    4   15   15      1.66      0.00
    4   15   17      0.31      0.00
    4   15   19     -0.36      0.00
    4   15   21      0.14      0.00
    4   15   23     -0.03      0.00
    4   15   25     -0.30      0.00
    4   15   27     -0.22      0.00
    4   15   29     -0.25      0.00
    4   15   31     -0.63      0.00
    4   16   16     -0.15      0.00
    4   16   18     -0.76      0.00
    4   16   20     -0.46      0.00
    4   16   22     -0.36      0.00
    4   16   24      0.61      0.00
    4   16   26     -0.05      0.00
    4   16   28      0.29      0.00
    4   16   30     -0.50      0.00
    4   17   17      0.93      0.00
    4   17   19     -0.23      0.00
    4   17   21     -0.34      0.00
    4   17   23      0.49      0.00
    4   17   25     -1.32      0.00
    4   17   27     -0.35      0.00
    4   17   29      0.29      0.00
    4   18   18      0.19      0.00
    4   18   20     -0.44      0.00
    4   18   22      0.12      0.00
    4   18   24      0.21      0.00
    4   18   26     -0.53      0.00
    4   18   28     -0.26      0.00
    4   19   19      0.30      0.00
    4   19   21     -0.32      0.00
    4   19   23     -0.34      0.00
    4   19   25     -0.28      0.00
    4   19   27      1.42      0.00
    4   20   20      0.42      0.00
    4   20   22      0.68      0.00
    4   20   24      0.57      0.00
    4   20   26      0.38      0.00
    4   20   28      0.44      0.00
    4   21   21     -0.20      0.00
    4   21   23     -0.22      0.00
    4   21   25      0.35      0.00
    4   22   22     -0.42      0.00
    4   22   24     -0.89      0.00
    4   22   26      0.16      0.00
    4   23   23      0.34      0.00
    4   23   25     -0.10      0.00
    4    5   33      0.17      0.00
    0    4   34     -1.24      0.00
    4    4   34     -0.62      0.00
    4    6   34      1.04      0.00
    4    8   34     -0.74      0.00
    5    5    6     -7.58      0.00
    5    5    8     16.42      0.00
    5    5   10     -6.57      0.00
    5    5   12     -9.00      0.00
    5    5   14      4.37      0.00
    5    5   16      3.26      0.00
    5    5   18     -1.65      0.00
    5    5   20     -1.41      0.00
    5    5   22      0.80      0.00
    5    5   24      0.04      0.00
    5    5   26      1.52      0.00
    5    5   28     -0.47      0.00
    5    5   30     -0.04      0.00
    5    5   32      0.02      0.00
    5    6    7     -6.30      0.00
    5    6    9      9.24      0.00
    5    6   11      5.21      0.00
    5    6   13      0.16      0.00
    5    6   15     -3.59      0.00
    5    6   17     -0.81      0.00
    5    6   19      0.90      0.00
    5    6   21      0.44      0.00
    5    6   23      0.04      0.00
    5    6   25      0.17      0.00
    5    6   27      0.23      0.00
    5    6   29      0.33      0.00
    5    6   31      0.42      0.00
    5    6   33     -0.10      0.00
    5    7    8      1.82      0.00
    5    7   10      1.86      0.00
    5    7   12     -2.11      0.00
    5    7   14      1.43      0.00
    5    7   16      1.37      0.00
    5    7   18     -0.47      0.00
    5    7   20     -0.71      0.00
    5    7   22      0.50      0.00
    5    7   24      0.40      0.00
    5    7   26      0.06      0.00
    5    7   28     -0.06      0.00
    5    7   30      0.41      0.00
    5    7   32      0.47      0.00
    5    8    9      0.03      0.00
    5    8   11     -2.69      0.00
    5    8   13     -4.39      0.00
    5    8   15      0.26      0.00
    5    8   17      0.55      0.00
    5    8   19      0.83      0.00
    5    8   21      0.22      0.00
    5    8   23     -0.51      0.00
    5    8   25     -0.07      0.00
    5    8   27      0.51      0.00
    5    8   29     -0.37      0.00
    5    8   31      0.17      0.00
    5    8   33      0.53      0.00
    5    9   10     -0.31      0.00
    5    9   12      5.82      0.00
    5    9   14     -0.56      0.00
    5    9   16     -0.86      0.00
    5    9   18     -0.19      0.00
    5    9   20      0.03      0.00
    5    9   22      0.39      0.00
    5    9   24      0.19      0.00
    5    9   26     -0.04      0.00
    5    9   28     -0.23      0.00
    5    9   30     -0.22      0.00
    5    9   32      0.65      0.00
    5   10   11     -5.16      0.00
    5   10   13      1.08      0.00
    5   10   15      0.51      0.00
    5   10   17     -0.68      0.00
    5   10   19      0.00      0.00
    5   10   21      0.06      0.00
    5   10   23      0.15      0.00
    5   10   25     -0.01      0.00
    5   10   27      0.29      0.00
    5   10   29     -0.16      0.00
    5   10   31      0.18      0.00
    5   10   33     -1.14      0.00
    5   11   12      2.04      0.00
    5   11   14     -1.65      0.00
    5   11   16     -0.81      0.00
    5   11   18     -0.90      0.00
    5   11   20     -0.17      0.00
    5   11   22      0.40      0.00
    5   11   24     -0.32      0.00
    5   11   26     -0.35      0.00
    5   11   28      0.14      0.00
    5   11   30     -0.55      0.00
    5   11   32      0.53      0.00
    5   12   13      0.84      0.00
    5   12   15     -0.59      0.00
    5   12   17      0.20      0.00
    5   12   19      0.05      0.00
    5   12   21     -0.82      0.00
    5   12   23     -0.18      0.00
    5   12   25      0.05      0.00
    5   12   27     -0.53      0.00
    5   12   29     -0.11      0.00
    5   12   31      0.37      0.00
    5   12   33      1.90      0.00
    5   13   14     -0.16      0.00
    5   13   16     -0.39      0.00
    5   13   18     -0.79      0.00
    5   13   20     -0.49      0.00
    5   13   22     -0.40      0.00
    5   13   24      0.12      0.00
    5   13   26     -0.38      0.00
    5   13   28     -0.15      0.00
    5   13   30      0.17      0.00
    5   13   32      2.02      0.00
    5   14   15     -0.54      0.00
    5   14   17      0.84      0.00
    5   14   19      0.21      0.00
    5   14   21     -0.55      0.00
    5   14   23     -0.24      0.00
    5   14   25     -0.10      0.00
    5   14   27      0.19      0.00
    5   14   29      0.86      0.00
    5   14   31      1.21      0.00
    5   15   16     -0.28      0.00
    5   15   18      0.75      0.00
    5   15   20      0.74      0.00
    5   15   22     -0.02      0.00
    5   15   24      0.52      0.00
    5   15   26     -0.38      0.00
    5   15   28      0.46      0.00
    5   15   30     -0.04      0.00
    5   16   17     -0.37      0.00
    5   16   19      0.04      0.00
    5   16   21      0.54      0.00
    5   16   23     -0.27      0.00
    5   16   25      0.79      0.00
    5   16   27      0.66      0.00
    5   16   29     -0.29      0.00
    5   17   18     -0.42      0.00
    5   17   20      0.21      0.00
    5   17   22      0.29      0.00
    5   17   24      0.09      0.00
    5   17   26      0.36      0.00
    5   17   28     -0.09      0.00
    5   18   19     -1.04      0.00
    5   18   21      0.24      0.00
    5   18   23     -0.82      0.00
    5   18   25     -1.26      0.00
    5   18   27     -0.71      0.00
    5   19   20      0.02      0.00
    5   19   22     -0.50      0.00
    5   19   24     -0.24      0.00
    5   19   26      0.14      0.00
    5   19   28     -0.09      0.00
    5   20   21      0.91      0.00
    5   20   23     -0.80      0.00
    5   20   25      0.58      0.00
    5   21   22     -0.49      0.00
    5   21   24     -0.23      0.00
    5   21   26     -0.06      0.00
    5   21   28     -3.72      0.00
    5   22   23     -0.24      0.00
    5   23   26      0.54      0.00
    5   23   24     -0.23      0.00
    5   24   25     -0.69      0.00
    5   22   25     -0.52      0.00
    5   20   27      2.41      0.00
    1    5   34     -0.35      0.00
    5    5   34     -1.72      0.00
    5    7   34      0.20      0.00
    6    6    6     -2.88      0.00
    6    6    8     -8.09      0.00
    6    6   10     -6.20      0.00
    6    6   12      2.02      0.00
    6    6   14      0.45      0.00
    6    6   16      1.52      0.00
    6    6   18     -0.50      0.00
    6    6   20     -1.11      0.00
    6    6   22     -0.26      0.00
    6    6   24      0.23      0.00
    6    6   26     -0.52      0.00
    6    6   28     -0.21      0.00
    6    6   30      0.34      0.00
    6    6   32     -0.29      0.00
    6    7    7      8.14      0.00
    6    7    9     -0.02      0.00
    6    7   11     -2.14      0.00
    6    7   13      0.45      0.00
    6    7   15     -1.39      0.00
    6    7   17      0.52      0.00
    6    7   19      1.77      0.00
    6    7   21     -1.00      0.00
    6    7   23     -0.42      0.00
    6    7   25     -0.29      0.00
    6    7   27     -0.13      0.00
    6    7   29      0.07      0.00
    6    7   31      0.60      0.00
    6    7   33      1.17      0.00
    6    8    8      0.73      0.00
    6    8   10      3.34      0.00
    6    8   12      1.63      0.00
    6    8   14      1.50      0.00
    6    8   16      1.43      0.00
    6    8   18     -2.00      0.00
    6    8   20     -0.74      0.00
    6    8   22     -0.42      0.00
    6    8   24      0.10      0.00
    6    8   26      0.15      0.00
    6    8   28      0.10      0.00
    6    8   30      0.00      0.00
    6    8   32      0.69      0.00
    6    9    9     -1.51      0.00
    6    9   11     -1.95      0.00
    6    9   13      1.53      0.00
    6    9   15      0.28      0.00
    6    9   17      0.92      0.00
    6    9   19      0.48      0.00
    6    9   21     -0.82      0.00
    6    9   23     -0.39      0.00
    6    9   25     -0.02      0.00
    6    9   27      0.06      0.00
    6    9   29     -0.27      0.00
    6    9   31     -0.77      0.00
    6    9   33     -0.31      0.00
    6   10   10      5.44      0.00
    6   10   12     -2.80      0.00
    6   10   14     -0.06      0.00
    6   10   16      0.59      0.00
    6   10   18     -0.67      0.00
    6   10   20     -0.23      0.00
    6   10   22     -0.10      0.00
    6   10   24      0.44      0.00
    6   10   26      0.00      0.00
    6   10   28      0.10      0.00
    6   10   30      0.30      0.00
    6   10   32     -0.17      0.00
    6   11   11      1.94      0.00
    6   11   13      0.21      0.00
    6   11   15     -0.16      0.00
    6   11   17      0.00      0.00
    6   11   19      0.12      0.00
    6   11   21      0.04      0.00
    6   11   23     -0.51      0.00
    6   11   25     -0.10      0.00
    6   11   27      0.00      0.00
    6   11   29     -0.37      0.00
    6   11   31      0.05      0.00
    6   11   33      2.13      0.00
    6   12   12      0.21      0.00
    6   12   14      0.91      0.00
    6   12   16     -0.11      0.00
    6   12   18     -0.11      0.00
    6   12   20      0.44      0.00
    6   12   22      0.24      0.00
    6   12   24      0.67      0.00
    6   12   26     -0.03      0.00
    6   12   28     -0.70      0.00
    6   12   30     -0.28      0.00
    6   12   32     -0.32      0.00
    6   13   13     -0.87      0.00
    6   13   15      0.12      0.00
    6   13   17      0.16      0.00
    6   13   19      0.29      0.00
    6   13   21     -0.37      0.00
    6   13   23      0.38      0.00
    6   13   25     -0.12      0.00
    6   13   27      0.40      0.00
    6   13   29     -0.42      0.00
    6   13   31     -0.45      0.00
    6   14   14      0.41      0.00
    6   14   16     -0.60      0.00
    6   14   18     -0.11      0.00
    6   14   20      0.58      0.00
    6   14   22      0.63      0.00
    6   14   24     -0.47      0.00
    6   14   26      0.27      0.00
    6   14   28      0.21      0.00
    6   14   30      0.31      0.00
    6   15   15      0.59      0.00
    6   15   17      0.74      0.00
    6   15   19     -0.06      0.00
    6   15   21     -0.13      0.00
    6   15   23      0.16      0.00
    6   15   25      0.39      0.00
    6   15   27     -0.89      0.00
    6   15   29      1.06      0.00
    6   16   16      0.15      0.00
    6   16   18      0.53      0.00
    6   16   20     -0.33      0.00
    6   16   22      0.50      0.00
    6   16   24      0.11      0.00
    6   16   26     -0.92      0.00
    6   16   28     -0.50      0.00
    6   17   17      0.39      0.00
    6   17   19     -0.50      0.00
    6   17   21     -0.16      0.00
    6   17   23      0.19      0.00
    6   17   25      0.19      0.00
    6   17   27     -0.26      0.00
    6   17   29      1.01      0.00
    6   18   18      0.45      0.00
    6   18   20     -0.37      0.00
    6   18   22     -0.47      0.00
    6   18   24     -0.77      0.00
    6   18   26      0.41      0.00
    6   19   19      0.26      0.00
    6   19   21      0.24      0.00
    6   19   23     -0.30      0.00
    6   19   25     -0.67      0.00
    6   19   27     -0.56      0.00
    6   20   20      0.56      0.00
    6   20   22      0.24      0.00
    6   20   24     -0.08      0.00
    6   20   26      1.43      0.00
    6   21   21      0.93      0.00
    6   21   23      0.30      0.00
    6   21   27      0.77      0.00
    6   22   22     -0.90      0.00
    6   22   26     -0.53      0.00
    6   23   23     -1.00      0.00
    6   22   24      0.49      0.00
    6   21   25     -1.42      0.00
    6   18   28     -2.07      0.00
    6   16   30     -0.81      0.00
    0    6   34      1.10      0.00
    7    7    8     -1.25      0.00
    7    7   10      0.50      0.00
    7    7   12     -2.48      0.00
    7    7   14     -0.97      0.00
    7    7   16      0.48      0.00
    7    7   18      0.90      0.00
    7    7   20      0.66      0.00
    7    7   22      0.28      0.00
    7    7   24      0.10      0.00
    7    7   26     -0.26      0.00
    7    7   28     -0.50      0.00
    7    7   30      0.14      0.00
    7    7   32     -0.44      0.00
    7    8    9     -0.49      0.00
    7    8   11      8.65      0.00
    7    8   13     -1.37      0.00
    7    8   15     -1.17      0.00
    7    8   17      0.21      0.00
    7    8   19      0.63      0.00
    7    8   21      0.25      0.00
    7    8   23      0.01      0.00
    7    8   25     -0.04      0.00
    7    8   27     -0.01      0.00
    7    8   29      0.08      0.00
    7    8   31     -0.07      0.00
    7    8   33     -0.51      0.00
    7    9   10     -1.76      0.00
    7    9   12      0.09      0.00
    7    9   14     -0.60      0.00
    7    9   16      0.05      0.00
    7    9   18      0.36      0.00
    7    9   20      0.36      0.00
    7    9   22      0.23      0.00
    7    9   24     -0.27      0.00
    7    9   26     -0.11      0.00
    7    9   28     -0.43      0.00
    7    9   30     -0.24      0.00
    7    9   32     -0.65      0.00
    7   10   11      0.17      0.00
    7   10   13      0.16      0.00
    7   10   15     -1.57      0.00
    7   10   17     -0.22      0.00
    7   10   19      0.38      0.00
    7   10   21      0.13      0.00
    7   10   23      0.45      0.00
    7   10   25      0.54      0.00
    7   10   27     -0.19      0.00
    7   10   29     -0.10      0.00
    7   10   31     -0.46      0.00
    7   10   33     -0.47      0.00
    7   11   12      1.25      0.00
    7   11   14      1.33      0.00
    7   11   16      0.04      0.00
    7   11   18     -0.69      0.00
    7   11   20      0.29      0.00
    7   11   22      0.38      0.00
    7   11   24     -0.21      0.00
    7   11   26     -0.53      0.00
    7   11   28      0.41      0.00
    7   11   30      0.36      0.00
    7   11   32     -0.33      0.00
    7   12   13     -0.88      0.00
    7   12   15     -0.35      0.00
    7   12   17      1.39      0.00
    7   12   19      0.08      0.00
    7   12   21     -0.44      0.00
    7   12   23      1.04      0.00
    7   12   25      0.04      0.00
    7   12   27     -0.18      0.00
    7   12   29     -0.43      0.00
    7   12   31     -0.57      0.00
    7   13   14      0.16      0.00
    7   13   16     -0.17      0.00
    7   13   18     -0.55      0.00
    7   13   20      0.38      0.00
    7   13   22      0.74      0.00
    7   13   24      0.40      0.00
    7   13   26      0.01      0.00
    7   13   28      0.19      0.00
    7   13   30     -0.01      0.00
    7   14   15      0.58      0.00
    7   14   17      0.20      0.00
    7   14   19      0.11      0.00
    7   14   21     -0.14      0.00
    7   14   23      1.03      0.00
    7   14   25      0.59      0.00
    7   14   27     -0.29      0.00
    7   14   29     -1.11      0.00
    7   15   16      0.52      0.00
    7   15   18     -0.02      0.00
    7   15   20      0.26      0.00
    7   15   22     -0.31      0.00
    7   15   24      0.18      0.00
    7   15   26     -0.33      0.00
    7   15   28     -0.39      0.00
    7   16   17     -0.24      0.00
    7   16   19      0.52      0.00
    7   16   21     -0.03      0.00
    7   16   23     -0.40      0.00
    7   16   25     -2.48      0.00
    7   16   27      1.42      0.00
    7   17   18      0.10      0.00
    7   17   20      0.06      0.00
    7   17   22      0.15      0.00
    7   17   24      0.08      0.00
    7   17   26      0.21      0.00
    7   17   28     -0.19      0.00
    7   18   19     -0.18      0.00
    7   18   21      0.29      0.00
    7   18   23      0.48      0.00
    7   18   25      0.02      0.00
    7   18   27      0.16      0.00
    7   19   20     -0.11      0.00
    7   19   22      0.00      0.00
    7   19   24      0.75      0.00
    7   19   26     -0.14      0.00
    7   20   21     -1.08      0.00
    7   20   23     -0.20      0.00
    7   20   25      0.01      0.00
    7   20   27     -0.32      0.00
    7   21   22     -0.04      0.00
    7   21   24     -0.03      0.00
    7   22   23      0.74      0.00
    7   23   24      2.11      0.00
    7   21   26      1.66      0.00
    7   19   28     -0.41      0.00
    7   16   29      0.74      0.00
    7   18   29     -0.08      0.00
    7   15   30      0.44      0.00
    1    7   34      0.51      0.00
    8    8    8     -0.39      0.00
    8    8   10     -5.34      0.00
    8    8   12     -1.39      0.00
    8    8   14      1.85      0.00
    8    8   16     -0.03      0.00
    8    8   18     -2.31      0.00
    8    8   20      0.01      0.00
    8    8   22      1.27      0.00
    8    8   24      0.65      0.00
    8    8   26      0.01      0.00
    8    8   28      0.38      0.00
    8    8   30      0.49      0.00
    8    8   32     -0.49      0.00
    8    9    9     -3.66      0.00
    8    9   11     -0.63      0.00
    8    9   13      0.56      0.00
    8    9   15     -0.19      0.00
    8    9   17      1.00      0.00
    8    9   19     -0.34      0.00
    8    9   21     -0.73      0.00
    8    9   23     -0.67      0.00
    8    9   25     -0.20      0.00
    8    9   27      0.85      0.00
    8    9   29     -0.06      0.00
    8    9   31      0.42      0.00
    8   10   10     -0.06      0.00
    8   10   12     -0.88      0.00
    8   10   14     -0.40      0.00
    8   10   16      0.84      0.00
    8   10   18     -0.44      0.00
    8   10   20      0.17      0.00
    8   10   22      0.78      0.00
    8   10   24      0.22      0.00
    8   10   26     -0.22      0.00
    8   10   28      0.03      0.00
    8   10   30     -0.67      0.00
    8   10   32     -0.18      0.00
    8   11   11      0.73      0.00
    8   11   13     -1.30      0.00
    8   11   15     -0.22      0.00
    8   11   17      0.45      0.00
    8   11   19      0.19      0.00
    8   11   21     -0.31      0.00
    8   11   23     -0.37      0.00
    8   11   25     -0.28      0.00
    8   11   27     -0.20      0.00
    8   11   29      0.05      0.00
    8   11   31      0.62      0.00
    8   12   12      3.79      0.00
    8   12   14      0.62      0.00
    8   12   16     -1.50      0.00
    8   12   18      0.41      0.00
    8   12   20      0.97      0.00
    8   12   22     -0.85      0.00
    8   12   24     -0.46      0.00
    8   12   26     -0.64      0.00
    8   12   28      0.05      0.00
    8   12   30      0.17      0.00
    8   13   13     -0.14      0.00
    8   13   15     -0.11      0.00
    8   13   17     -0.25      0.00
    8   13   19     -0.24      0.00
    8   13   21      0.11      0.00
    8   13   23      0.33      0.00
    8   13   25      0.43      0.00
    8   13   27      0.38      0.00
    8   13   29      0.62      0.00
    8   14   14      0.86      0.00
    8   14   16     -0.93      0.00
    8   14   18      0.22      0.00
    8   14   20     -0.04      0.00
    8   14   22     -0.29      0.00
    8   14   24      0.06      0.00
    8   14   26     -0.29      0.00
    8   14   28      0.82      0.00
    8   14   30     -0.53      0.00
    8   15   15     -0.86      0.00
    8   15   17      0.05      0.00
    8   15   19      0.37      0.00
    8   15   21      0.23      0.00
    8   15   23      0.34      0.00
    8   15   25     -0.08      0.00
    8   15   27      0.16      0.00
    8   15   29      0.17      0.00
    8   16   16     -0.15      0.00
    8   16   18      0.11      0.00
    8   16   20     -0.48      0.00
    8   16   22      0.12      0.00
    8   16   24     -0.18      0.00
    8   16   26      0.15      0.00
    8   16   28      1.12      0.00
    8   17   17     -0.42      0.00
    8   17   19      0.28      0.00
    8   17   21     -0.17      0.00
    8   17   23     -0.09      0.00
    8   17   25      0.30      0.00
    8   17   27      0.44      0.00
    8   18   18     -0.72      0.00
    8   18   20     -0.55      0.00
    8   18   22      0.81      0.00
    8   18   24      1.07      0.00
    8   18   26     -0.12      0.00
    8   19   19     -0.29      0.00
    8   19   21     -0.32      0.00
    8   19   23     -0.11      0.00
    8   19   25      0.03      0.00
    8   20   20      0.14      0.00
    8   20   22     -0.68      0.00
    8   20   24     -0.19      0.00
    8   20   26     -0.19      0.00
    8   21   21      0.42      0.00
    8   21   23      0.48      0.00
    8   21   25     -1.51      0.00
    8   22   22      1.22      0.00
    8   22   24      3.34      0.00
    8   23   23      0.23      0.00
    8   23   25      0.97      0.00
    8   24   24     -4.18      0.00
    8   22   26     -1.46      0.00
    8   19   27      1.61      0.00
    8   18   28      1.12      0.00
    8   17   29     -0.28      0.00
    8   16   30      1.22      0.00
    8   13   31      0.55      0.00
    0    8   34      1.00      0.00
    8    9   33      1.10      0.00
    9    9   10      0.36      0.00
    9    9   12     -2.96      0.00
    9    9   14     -1.50      0.00
    9    9   16      0.14      0.00
    9    9   18      0.95      0.00
    9    9   20      0.70      0.00
    9    9   22     -0.83      0.00
    9    9   24     -0.21      0.00
    9    9   26     -0.06      0.00
    9    9   28      0.09      0.00
    9    9   30      0.73      0.00
    9    9   32      0.57      0.00
    9   10   11      1.41      0.00
    9   10   13      1.00      0.00
    9   10   15     -0.22      0.00
    9   10   17     -0.86      0.00
    9   10   19     -0.13      0.00
    9   10   21      0.77      0.00
    9   10   23      0.24      0.00
    9   10   25     -0.13      0.00
    9   10   27      0.91      0.00
    9   10   29     -0.34      0.00
    9   10   31     -1.51      0.00
    9   11   12     -1.46      0.00
    9   11   14      0.59      0.00
    9   11   16      0.94      0.00
    9   11   18     -0.26      0.00
    9   11   20     -0.34      0.00
    9   11   22     -0.65      0.00
    9   11   24      0.15      0.00
    9   11   26      0.22      0.00
    9   11   28      0.03      0.00
    9   11   30     -0.10      0.00
    9   11   32     -0.48      0.00
    9   12   13     -1.02      0.00
    9   12   15      0.25      0.00
    9   12   17      0.50      0.00
    9   12   19     -0.29      0.00
    9   12   21      0.23      0.00
    9   12   23      0.28      0.00
    9   12   25      0.40      0.00
    9   12   27     -0.07      0.00
    9   12   29     -0.90      0.00
    9   12   31      0.79      0.00
    9   13   14     -0.20      0.00
    9   13   16      0.81      0.00
    9   13   18     -0.05      0.00
    9   13   20      0.08      0.00
    9   13   22     -0.36      0.00
    9   13   24      0.33      0.00
    9   13   26      0.17      0.00
    9   13   28      0.21      0.00
    9   13   30     -0.13      0.00
    9   14   15     -0.37      0.00
    9   14   17      0.17      0.00
    9   14   19      0.04      0.00
    9   14   21     -0.73      0.00
    9   14   23     -0.95      0.00
    9   14   25      0.00      0.00
    9   14   27     -0.70      0.00
    9   14   29      0.73      0.00
    9   15   16      0.23      0.00
    9   15   18     -0.16      0.00
    9   15   20     -0.25      0.00
    9   15   22     -0.30      0.00
    9   15   24      0.16      0.00
    9   15   26     -0.36      0.00
    9   15   28      0.21      0.00
    9   16   17     -0.36      0.00
    9   16   19     -0.26      0.00
    9   16   21      0.13      0.00
    9   16   23      0.28      0.00
    9   16   25      0.13      0.00
    9   16   27     -0.66      0.00
    9   17   18      0.19      0.00
    9   17   20      0.11      0.00
    9   17   22      0.02      0.00
    9   17   24     -0.76      0.00
    9   17   26     -1.26      0.00
    9   18   19     -0.22      0.00
    9   18   21      0.73      0.00
    9   18   23      0.74      0.00
    9   18   25     -0.32      0.00
    9   18   27     -0.96      0.00
    9   19   20     -0.01      0.00
    9   19   22      0.33      0.00
    9   19   24     -0.59      0.00
    9   20   21     -0.15      0.00
    9   20   23     -0.33      0.00
    9   20   25     -2.00      0.00
    9   21   22      0.16      0.00
    9   21   24     -0.62      0.00
    9   22   23      0.05      0.00
    9   22   25     -1.42      0.00
    9   23   24     -1.14      0.00
    9   19   26      0.77      0.00
    9   20   27      2.43      0.00
    9   17   28      3.43      0.00
    9   16   29      0.35      0.00
    9   18   29      2.29      0.00
    9   15   30     -0.46      0.00
    1    9   34     -0.51      0.00
   10   10   10     -2.88      0.00
   10   10   12      1.55      0.00
   10   10   14      1.39      0.00
   10   10   16     -0.38      0.00
   10   10   18     -0.25      0.00
   10   10   20      0.59      0.00
   10   10   22     -0.27      0.00
   10   10   24     -0.46      0.00
   10   10   26      0.24      0.00
   10   10   28      0.57      0.00
   10   10   30     -0.51      0.00
   10   10   32      0.13      0.00
   10   11   11     -0.18      0.00
   10   11   13     -0.46      0.00
   10   11   15     -0.39      0.00
   10   11   17      1.01      0.00
   10   11   19     -0.14      0.00
   10   11   21     -0.18      0.00
   10   11   23      0.19      0.00
   10   11   25     -0.04      0.00
   10   11   27     -0.83      0.00
   10   11   29      0.73      0.00
   10   11   31      1.13      0.00
   10   12   12      2.51      0.00
   10   12   14     -0.61      0.00
   10   12   16     -1.17      0.00
   10   12   18      0.27      0.00
   10   12   20      0.33      0.00
   10   12   22     -0.07      0.00
   10   12   24     -0.27      0.00
   10   12   26     -0.21      0.00
   10   12   28     -0.25      0.00
   10   12   30      0.79      0.00
   10   13   13      0.25      0.00
   10   13   15     -0.05      0.00
   10   13   17     -0.31      0.00
   10   13   19      0.07      0.00
   10   13   21      0.19      0.00
   10   13   23      0.48      0.00
   10   13   25     -0.73      0.00
   10   13   27      0.30      0.00
   10   13   29     -0.69      0.00
   10   14   14     -0.28      0.00
   10   14   16     -0.56      0.00
   10   14   18      0.35      0.00
   10   14   20     -0.07      0.00
   10   14   22     -0.54      0.00
   10   14   24      0.01      0.00
   10   14   26     -0.45      0.00
   10   14   28     -0.11      0.00
   10   15   15      0.86      0.00
   10   15   17      0.54      0.00
   10   15   19     -0.06      0.00
   10   15   21     -0.12      0.00
   10   15   23      0.06      0.00
   10   15   25     -0.68      0.00
   10   15   27     -0.45      0.00
   10   16   16      0.35      0.00
   10   16   18      0.09      0.00
   10   16   20     -0.06      0.00
   10   16   22     -0.47      0.00
   10   16   24      0.77      0.00
   10   16   26     -0.01      0.00
   10   17   17     -0.23      0.00
   10   17   19     -0.39      0.00
   10   17   21     -0.56      0.00
   10   17   23     -0.25      0.00
   10   17   25      0.20      0.00
   10   18   18     -0.56      0.00
   10   18   20      0.16      0.00
   10   18   22      1.25      0.00
   10   18   24     -0.23      0.00
   10   18   26      0.17      0.00
   10   19   19     -0.32      0.00
   10   19   21     -0.45      0.00
   10   19   23      0.38      0.00
   10   19   25      0.31      0.00
   10   20   20      0.72      0.00
   10   20   22     -0.18      0.00
   10   20   24     -0.50      0.00
   10   21   21      0.44      0.00
   10   21   23      1.12      0.00
   10   22   22      0.34      0.00
   10   22   24     -1.04      0.00
   10   23   23     -0.02      0.00
   10   17   27      0.78      0.00
   10   19   27      1.94      0.00
   10   16   28      1.20      0.00
   10   18   28     -0.15      0.00
   10   15   29     -0.01      0.00
   10   17   29      0.39      0.00
   10   14   30     -0.22      0.00
   10   16   30      0.98      0.00
   10   13   31     -0.19      0.00
    9   10   33     -1.51      0.00
   11   11   12     -1.41      0.00
   11   11   14     -0.23      0.00
   11   11   16     -0.21      0.00
   11   11   18     -0.55      0.00
   11   11   20      0.74      0.00
   11   11   22     -0.09      0.00
   11   11   24     -0.66      0.00
   11   11   26      0.03      0.00
   11   11   28      0.64      0.00
   11   11   30     -0.16      0.00
   11   12   13      0.39      0.00
   11   12   15      1.59      0.00
   11   12   17     -0.81      0.00
   11   12   19     -0.64      0.00
   11   12   21     -0.28      0.00
   11   12   23      0.04      0.00
   11   12   25     -0.23      0.00
   11   12   27      0.68      0.00
   11   12   29      0.08      0.00
   11   13   14      0.02      0.00
   11   13   16     -0.37      0.00
   11   13   18      0.28      0.00
   11   13   20      0.24      0.00
   11   13   22     -0.16      0.00
   11   13   24      0.18      0.00
   11   13   26      0.16      0.00
   11   13   28      0.10      0.00
   11   14   15      0.26      0.00
   11   14   17     -0.42      0.00
   11   14   19      0.14      0.00
   11   14   21     -0.15      0.00
   11   14   23      0.84      0.00
   11   14   25      0.10      0.00
   11   14   27     -0.42      0.00
   11   15   16     -1.05      0.00
   11   15   18      0.26      0.00
   11   15   20      0.66      0.00
   11   15   22      0.29      0.00
   11   15   24     -0.10      0.00
   11   15   26      0.52      0.00
   11   16   17     -0.35      0.00
   11   16   19      0.37      0.00
   11   16   21      0.48      0.00
   11   16   23     -0.44      0.00
   11   16   25     -0.26      0.00
   11   17   18      0.11      0.00
   11   17   20     -0.01      0.00
   11   17   22     -0.15      0.00
   11   17   24     -0.13      0.00
   11   17   26     -0.97      0.00
   11   18   19      0.27      0.00
   11   18   21      0.23      0.00
   11   18   23      0.42      0.00
   11   18   25      0.24      0.00
   11   19   20     -0.34      0.00
   11   19   22     -0.48      0.00
   11   19   24     -0.19      0.00
   11   20   21     -0.15      0.00
   11   20   23     -0.74      0.00
   11   21   22     -0.07      0.00
   11   21   24      0.23      0.00
   11   22   23      0.63      0.00
   11   20   25      1.16      0.00
   11   19   26      0.48      0.00
   11   21   26     -0.48      0.00
   11   16   27      0.13      0.00
   11   18   27     -0.30      0.00
   11   20   27      0.10      0.00
   11   15   28     -0.34      0.00
   11   17   28      0.95      0.00
   11   14   29     -0.63      0.00
   11   16   29     -1.47      0.00
   11   13   30     -0.67      0.00
    8   12   32      1.17      0.00
   12   12   12     -2.34      0.00
   12   12   14     -2.12      0.00
   12   12   16     -0.62      0.00
   12   12   18      0.82      0.00
   12   12   20      0.44      0.00
   12   12   22      0.28      0.00
   12   12   24     -0.17      0.00
   12   12   26     -0.30      0.00
   12   12   28     -1.19      0.00
   12   13   13      1.44      0.00
   12   13   15      0.58      0.00
   12   13   17     -0.12      0.00
   12   13   19     -0.32      0.00
   12   13   21      0.29      0.00
   12   13   23     -0.08      0.00
   12   13   25      0.03      0.00
   12   13   27     -0.21      0.00
   12   14   14     -1.58      0.00
   12   14   16      1.06      0.00
   12   14   18      0.16      0.00
   12   14   20      0.02      0.00
   12   14   22     -0.37      0.00
   12   14   24      0.09      0.00
   12   14   26      0.97      0.00
   12   15   15     -0.01      0.00
   12   15   17     -0.32      0.00
   12   15   19     -0.89      0.00
   12   15   21      0.18      0.00
   12   15   23      0.63      0.00
   12   15   25     -0.12      0.00
   12   16   16      0.82      0.00
   12   16   18      0.16      0.00
   12   16   20      0.28      0.00
   12   16   22     -0.48      0.00
   12   16   24     -0.75      0.00
   12   17   17     -0.34      0.00
   12   17   19     -0.24      0.00
   12   17   21     -0.15      0.00
   12   17   23      0.08      0.00
   12   17   25      0.44      0.00
   12   18   18      0.35      0.00
   12   18   20     -0.10      0.00
   12   18   22     -0.66      0.00
   12   18   24     -0.79      0.00
   12   19   19      0.21      0.00
   12   19   21      0.00      0.00
   12   19   23      0.08      0.00
   12   20   20      1.01      0.00
   12   20   22     -1.28      0.00
   12   20   24     -1.25      0.00
   12   21   21     -0.19      0.00
   12   21   23      0.26      0.00
   12   22   22      0.39      0.00
   12   19   25      0.26      0.00
   12   16   26     -0.25      0.00
   12   18   26      0.10      0.00
   12   15   27     -0.23      0.00
   12   17   27     -0.36      0.00
   12   14   28      0.62      0.00
   12   16   28      1.47      0.00
   12   13   29     -1.09      0.00
   12   15   29     -1.05      0.00
   12   12   30     -0.42      0.00
    7   13   32     -1.67      0.00
   13   13   14      0.55      0.00
   13   13   16     -0.26      0.00
   13   13   18      0.03      0.00
   13   13   20      0.02      0.00
   13   13   22     -0.30      0.00
   13   13   24      0.16      0.00
   13   13   26      0.60      0.00
   13   14   15      0.01      0.00
   13   14   17     -0.20      0.00
   13   14   19     -0.19      0.00
   13   14   21      0.18      0.00
   13   14   23     -0.12      0.00
   13   14   25     -0.54      0.00
   13   15   16     -0.13      0.00
   13   15   18      0.59      0.00
   13   15   20      0.17      0.00
   13   15   22      0.23      0.00
   13   15   24      0.11      0.00
   13   16   17      0.23      0.00
   13   16   19      0.38      0.00
   13   16   21      0.24      0.00
   13   16   23      0.20      0.00
   13   16   25     -0.14      0.00
   13   17   18     -0.17      0.00
   13   17   20     -0.11      0.00
   13   17   22     -0.35      0.00
   13   17   24     -0.23      0.00
   13   18   19     -0.40      0.00
   13   18   21     -0.27      0.00
   13   18   23      0.03      0.00
   13   19   20      0.12      0.00
   13   19   22     -0.63      0.00
   13   19   24     -0.28      0.00
   13   20   21     -0.69      0.00
   13   20   23      0.40      0.00
   13   21   22      0.00      0.00
   13   22   23      2.39      0.00
   13   21   24     -0.05      0.00
   13   18   25     -1.54      0.00
   13   20   25     -0.27      0.00
   13   15   26     -0.72      0.00
   13   17   26     -0.58      0.00
   13   19   26     -0.26      0.00
   13   14   27      0.59      0.00
   13   16   27      0.43      0.00
   13   13   28      0.34      0.00
   13   15   28     -0.90      0.00
    6   14   32      0.86      0.00
    7   14   31     -0.40      0.00
   14   14   14      1.01      0.00
   14   14   16      0.78      0.00
   14   14   18     -0.25      0.00
   14   14   20      0.23      0.00
   14   14   22      0.96      0.00
   14   14   24      0.09      0.00
   14   15   15     -0.27      0.00
   14   15   17      0.08      0.00
   14   15   19      0.30      0.00
   14   15   21     -0.12      0.00
   14   15   23      0.66      0.00
   14   15   25     -0.01      0.00
   14   16   16      0.31      0.00
   14   16   18     -0.04      0.00
   14   16   20     -0.16      0.00
   14   16   22      0.17      0.00
   14   16   24     -0.53      0.00
   14   17   17     -0.29      0.00
   14   17   19     -0.15      0.00
   14   17   21      0.18      0.00
   14   17   23      0.63      0.00
   14   18   18     -0.04      0.00
   14   18   20      0.37      0.00
   14   18   22      0.01      0.00
   14   18   24      1.70      0.00
   14   19   19      0.99      0.00
   14   19   21      0.66      0.00
   14   19   23     -0.44      0.00
   14   20   20     -1.15      0.00
   14   20   22     -0.14      0.00
   14   21   21      0.92      0.00
   14   22   22      3.50      0.00
   14   21   23      0.51      0.00
   14   20   24      2.22      0.00
   14   17   25      0.68      0.00
   14   19   25     -0.73      0.00
   14   21   25     -2.38      0.00
   14   14   26      0.15      0.00
   14   16   26     -0.22      0.00
   14   15   27     -0.11      0.00
    6   15   31     -0.49      0.00
   15   15   16      0.73      0.00
   15   15   18     -0.29      0.00
   15   15   20     -0.65      0.00
   15   15   22     -0.19      0.00
   15   15   24     -0.29      0.00
   15   16   17     -0.91      0.00
   15   16   19     -0.98      0.00
   15   16   21      0.16      0.00
   15   16   23     -0.69      0.00
   15   17   18     -0.43      0.00
   15   17   20     -0.48      0.00
   15   17   22      0.41      0.00
   15   17   24      1.56      0.00
   15   18   19      0.17      0.00
   15   18   21     -0.52      0.00
   15   18   23      0.68      0.00
   15   19   20     -0.59      0.00
   15   19   22      0.41      0.00
   15   20   21      0.74      0.00
   15   20   23      1.03      0.00
   15   21   22      0.73      0.00
   15   22   23      0.46      0.00
   15   19   24      0.26      0.00
   15   21   24      0.19      0.00
   15   16   25      1.23      0.00
   15   18   25      0.54      0.00
   15   15   26     -0.31      0.00
    3   16   31      0.02      0.00
    5   16   31     -4.86      0.00
   16   16   16     -1.01      0.00
   16   16   18     -0.12      0.00
   16   16   20     -0.08      0.00
   16   16   22     -0.83      0.00
   16   16   24      1.72      0.00
   16   17   17      0.61      0.00
   16   17   19      0.97      0.00
   16   17   21      0.81      0.00
   16   17   23     -1.46      0.00
   16   18   18     -0.25      0.00
   16   18   20     -0.98      0.00
   16   18   22     -0.68      0.00
   16   19   19      0.35      0.00
   16   19   21     -0.09      0.00
   16   19   23     -0.31      0.00
   16   20   20      1.19      0.00
   16   20   22     -0.93      0.00
   16   21   21      0.68      0.00
   16   22   22      1.16      0.00
   16   21   23     -1.97      0.00
   16   18   24      2.60      0.00
   16   20   24      0.98      0.00
   16   17   25     -2.95      0.00
    5   17   30     -1.14      0.00
   17   17   18      0.75      0.00
   17   17   20      0.53      0.00
   17   17   22     -1.20      0.00
   17   18   19      0.91      0.00
   17   18   21     -0.93      0.00
   17   18   23     -1.58      0.00
   17   19   20      0.92      0.00
   17   19   22     -1.16      0.00
   17   20   21      1.78      0.00
   17   21   22     -1.91      0.00
   17   20   23     -3.13      0.00
    5   18   29      0.25      0.00
   18   18   18      0.48      0.00
   18   18   20      0.18      0.00
   18   18   22     -0.92      0.00
   18   19   19     -0.48      0.00
   18   19   21     -0.33      0.00
   18   20   20     -0.36      0.00
   18   20   22      1.07      0.00
   18   21   21     -1.02      0.00
    3   19   30      0.38      0.00
    4   19   29      0.55      0.00
   19   19   20     -0.62      0.00
   19   19   22      0.16      0.00
    0   20   28     -2.47      0.00
    2   20   28     -0.55      0.00
   19   20   21     -1.13      0.00
    0   21   27     -1.26      0.00
    1   21   28      1.56      0.00
    3   21   28     -0.20      0.00
    4   21   27      0.81      0.00
    0   22   26     -1.58      0.00
    1   22   27     -1.27      0.00
    3   22   27     -0.87      0.00
    0   23   25     -1.23      0.00
    0   23   27     -0.86      0.00
    1   23   26     -0.71      0.00
    2   23   25      0.46      0.00
   18   19   23      0.29      0.00
    0   24   24     -0.86      0.00
    1   24   25      1.39      0.00
    4   24   24     -1.10      0.00
   17   17   24      0.26      0.00
    0   25   25     -0.64      0.00
    3   24   25     -4.87      0.00
    0   24   26     -1.45      0.00
    3   23   26     -2.31      0.00
   14   18   26     -2.59      0.00
   15   17   26      0.12      0.00
   15   19   26      1.63      0.00
   16   16   26     -0.18      0.00
   13   18   27      0.47      0.00
   15   16   27      0.72      0.00
   13   17   28      2.75      0.00
   14   14   28     -1.92      0.00
   12   17   29      2.19      0.00
   13   14   29      3.42      0.00
   11   15   30     -2.02      0.00
    9   14   31     -0.42      0.00
    2   13   33      0.69      0.00
    3   12   33      2.70      0.00
    0    0   34      0.30      0.00
    0    2   34      0.43      0.00
    1    1   34     -0.51      0.00
    2    2   34     -1.29      0.00
    2   10   34      0.09      0.00
    5    9   34     -1.41      0.00
    0    1   35     -0.40      0.00
    0    3   35      1.64      0.00
    1    2   35     -0.82      0.00
    1    4   35     -0.93      0.00
    1    6   35      1.96      0.00
    2    3   35      1.06      0.00
    0    1    1     26.99      0.00
    0    0    2    -29.87      0.00
    0    2    2   -123.50      0.00
    0    1    3     28.85      0.00
    0    3    3     45.74      0.00
    0    0    4    -20.87      0.00
    1    1    4     67.81      0.00
    0    2    4    -47.82      0.00
    2    2    4     14.53      0.00
    1    3    4    -13.87      0.00
    0    4    4     72.74      0.00
    4    4    4     -5.63      0.00
    0    5    5      5.99      0.00
    0    0    6     -0.92      0.00
    1    1    6    -16.86      0.00
    0    2    6    -18.87      0.00
    4    4    6    -19.41      0.00
    0    3    7    -41.85      0.00
    0    0    8     45.26      0.00
    1    1    8      4.49      0.00
    0    0   10     46.90      0.00
    1    1   10    -18.52      0.00
    0    0   12     26.97      0.00
    1    1   12     -6.35      0.00
    0    0   14      0.79      0.00
    1    1   14      3.94      0.00
    0    2   14     -6.55      0.00
    1    3   14      2.30      0.00
   20   20   20      0.51      0.00
   20   21   21      1.36      0.00
   20   20   22      1.62      0.00
   19   21   22      2.84      0.00
   21   21   22     -0.56      0.00
   18   22   22      0.34      0.00
   20   22   22     -0.25      0.00
   22   22   22      1.02      0.00
   19   20   23     -0.64      0.00
   18   21   23      0.08      0.00
   20   21   23     -0.41      0.00
   17   22   23     -0.81      0.00
   19   22   23      1.73      0.00
   21   22   23     -0.77      0.00
   12   23   23     -1.10      0.00
   14   23   23      3.18      0.00
   16   23   23     -2.11      0.00
   18   23   23      0.85      0.00
   20   23   23      2.72      0.00
   22   23   23      0.49      0.00
   18   18   24     -0.95      0.00
   17   19   24      2.35      0.00
   19   19   24      2.07      0.00
   18   20   24      0.37      0.00
   20   20   24     -2.81      0.00
   17   21   24     -1.68      0.00
   19   21   24     -1.20      0.00
   21   21   24     -1.82      0.00
   12   22   24     -1.29      0.00
   14   22   24     -2.56      0.00
   16   22   24     -2.03      0.00
   18   22   24     -0.83      0.00
   20   22   24     -0.60      0.00
   22   22   24     -0.88      0.00
   11   23   24     -0.88      0.00
   13   23   24     -0.56      0.00
   15   23   24      0.76      0.00
   17   23   24      0.31      0.00
   19   23   24     -1.05      0.00
   21   23   24      0.10      0.00
    6   24   24     -1.55      0.00
   10   24   24     -1.10      0.00
   12   24   24      3.20      0.00
   14   24   24     -0.04      0.00
   16   24   24      0.31      0.00
   18   24   24      1.13      0.00
   20   24   24      1.48      0.00
   17   18   25      2.04      0.00
   16   19   25      1.82      0.00
   18   19   25      0.43      0.00
   15   20   25      1.31      0.00
   17   20   25      1.56      0.00
   19   20   25      1.17      0.00
   10   21   25     -0.38      0.00
   12   21   25     -1.86      0.00
   16   21   25      0.80      0.00
   18   21   25      0.71      0.00
   20   21   25      0.85      0.00
    7   22   25      2.14      0.00
   11   22   25      0.01      0.00
   13   22   25     -0.28      0.00
   15   22   25     -2.81      0.00
   17   22   25     -0.95      0.00
   19   22   25     -0.30      0.00
   21   22   25     -1.06      0.00
    6   23   25     -0.36      0.00
   10   23   25     -0.85      0.00
   12   23   25      1.00      0.00
   14   23   25     -0.31      0.00
   16   23   25      1.55      0.00
   18   23   25     -0.40      0.00
   20   23   25     -0.84      0.00
    7   24   25     -1.29      0.00
    9   24   25     -0.04      0.00
   11   24   25      0.57      0.00
   13   24   25     -1.40      0.00
   15   24   25      0.76      0.00
   17   24   25      0.97      0.00
   19   24   25      0.64      0.00
    2   25   25     -0.24      0.00
    4   25   25     -0.27      0.00
    6   25   25      1.45      0.00
    8   25   25     -1.38      0.00
   10   25   25     -0.82      0.00
   12   25   25      0.07      0.00
   14   25   25     -1.34      0.00
   16   25   25      1.12      0.00
   17   17   26     -4.15      0.00
   16   18   26     -0.80      0.00
   18   18   26     -0.19      0.00
   17   19   26     -1.38      0.00
   19   19   26     -1.06      0.00
   10   20   26     -0.01      0.00
   12   20   26      1.17      0.00
   14   20   26     -0.32      0.00
   16   20   26     -1.12      0.00
   18   20   26     -0.50      0.00
   20   20   26      0.90      0.00
    9   21   26      0.30      0.00
   13   21   26     -0.59      0.00
   15   21   26      0.19      0.00
   17   21   26      1.35      0.00
   19   21   26     -0.16      0.00
   21   21   26      0.69      0.00
   10   22   26     -0.25      0.00
   12   22   26      2.00      0.00
   14   22   26      0.54      0.00
   16   22   26      0.07      0.00
   18   22   26     -0.72      0.00
   20   22   26      1.23      0.00
    7   23   26     -1.16      0.00
    9   23   26     -0.26      0.00
   11   23   26      2.19      0.00
   13   23   26      1.23      0.00
   15   23   26     -2.02      0.00
   17   23   26      0.18      0.00
    2   24   26      2.00      0.00
    4   24   26      1.94      0.00
    6   24   26      2.51      0.00
    8   24   26     -0.45      0.00
   10   24   26      0.58      0.00
   12   24   26     -0.74      0.00
   14   24   26      0.55      0.00
   16   24   26      1.02      0.00
    1   25   26      0.77      0.00
    3   25   26     -0.23      0.00
    5   25   26      2.53      0.00
    7   25   26     -0.78      0.00
    9   25   26      0.14      0.00
   11   25   26      0.36      0.00
   13   25   26     -0.29      0.00
   15   25   26     -0.36      0.00
    0   26   26     -1.38      0.00
    2   26   26      0.50      0.00
    4   26   26     -0.29      0.00
    6   26   26     -1.85      0.00
    8   26   26     -1.06      0.00
   10   26   26      0.03      0.00
   12   26   26      0.31      0.00
   14   26   26     -1.36      0.00
   14   17   27     -0.75      0.00
   16   17   27      0.99      0.00
   15   18   27     -0.55      0.00
   17   18   27     -0.56      0.00
   12   19   27     -2.03      0.00
   14   19   27     -1.15      0.00
   16   19   27      0.06      0.00
   18   19   27     -0.87      0.00
   13   20   27      0.59      0.00
   15   20   27     -0.56      0.00
   17   20   27     -0.59      0.00
   19   20   27     -0.40      0.00
    8   21   27     -0.71      0.00
   10   21   27      0.09      0.00
   12   21   27      1.04      0.00
   14   21   27      2.41      0.00
   16   21   27     -0.57      0.00
   18   21   27     -0.04      0.00
    5   22   27     -2.64      0.00
    7   22   27      1.28      0.00
    9   22   27      1.47      0.00
   11   22   27      0.02      0.00
   13   22   27     -0.91      0.00
   15   22   27     -0.78      0.00
   17   22   27      1.16      0.00
    2   23   27      1.10      0.00
    4   23   27      0.89      0.00
    6   23   27      0.62      0.00
    8   23   27      0.61      0.00
   10   23   27     -1.28      0.00
   12   23   27     -0.03      0.00
   14   23   27      0.15      0.00
   16   23   27     -0.43      0.00
    1   24   27      0.93      0.00
    3   24   27     -0.13      0.00
    5   24   27      2.29      0.00
    7   24   27     -0.55      0.00
    9   24   27      0.68      0.00
   11   24   27     -0.02      0.00
   13   24   27      0.90      0.00
   15   24   27     -0.37      0.00
    0   25   27      2.21      0.00
    2   25   27     -0.44      0.00
    4   25   27     -0.63      0.00
    6   25   27      1.31      0.00
    8   25   27      0.59      0.00
   10   25   27      1.73      0.00
   12   25   27     -0.12      0.00
   14   25   27     -0.40      0.00
    1   26   27     -0.73      0.00
    3   26   27      1.42      0.00
    5   26   27      0.12      0.00
    7   26   27     -0.17      0.00
    9   26   27     -0.79      0.00
   11   26   27     -0.82      0.00
    0   27   27     -1.83      0.00
    2   27   27      0.58      0.00
    4   27   27     -0.76      0.00
    6   27   27     -0.72      0.00
    8   27   27     -1.23      0.00
   10   27   27      0.15      0.00
   15   15   28     -0.68      0.00
   14   16   28      1.52      0.00
   16   16   28     -3.52      0.00
   15   17   28     -0.16      0.00
   17   17   28      1.47      0.00
   12   18   28      2.32      0.00
   14   18   28     -0.27      0.00
   16   18   28      0.37      0.00
   18   18   28      1.13      0.00
    9   19   28      0.37      0.00
   11   19   28     -1.50      0.00
   13   19   28     -0.06      0.00
   15   19   28     -0.75      0.00
   17   19   28      0.02      0.00
   19   19   28     -0.76      0.00
    6   20   28     -1.32      0.00
    8   20   28     -0.57      0.00
   10   20   28     -0.56      0.00
   12   20   28     -0.85      0.00
   14   20   28      0.91      0.00
   16   20   28     -0.19      0.00
   18   20   28      0.08      0.00
    7   21   28     -0.57      0.00
    9   21   28      0.11      0.00
   11   21   28      0.29      0.00
   13   21   28      1.68      0.00
   15   21   28     -0.41      0.00
   17   21   28      1.07      0.00
    0   22   28      4.37      0.00
    2   22   28      1.03      0.00
    4   22   28      1.51      0.00
    6   22   28     -1.07      0.00
    8   22   28      0.71      0.00
   10   22   28      1.03      0.00
   12   22   28      0.13      0.00
   14   22   28     -0.74      0.00
   16   22   28     -0.10      0.00
    1   23   28      0.86      0.00
    3   23   28      0.66      0.00
    5   23   28     -0.27      0.00
    7   23   28      0.22      0.00
    9   23   28     -0.28      0.00
   11   23   28     -0.35      0.00
   13   23   28     -0.24      0.00
   15   23   28     -0.84      0.00
    0   24   28      1.15      0.00
    2   24   28      0.48      0.00
    4   24   28     -1.63      0.00
    6   24   28      0.16      0.00
    8   24   28     -0.25      0.00
   10   24   28     -0.18      0.00
   12   24   28     -1.20      0.00
   14   24   28      0.52      0.00
    1   25   28     -0.96      0.00
    3   25   28      1.16      0.00
    5   25   28     -0.13      0.00
    7   25   28      0.16      0.00
    9   25   28     -0.30      0.00
   11   25   28      0.67      0.00
    0   26   28      0.11      0.00
    2   26   28      0.01      0.00
    4   26   28     -1.41      0.00
    6   26   28      0.17      0.00
    8   26   28      0.76      0.00
   10   26   28      1.01      0.00
    1   27   28     -0.07      0.00
    3   27   28      0.19      0.00
    5   27   28     -0.18      0.00
    7   27   28      0.70      0.00
   14   15   29     -2.10      0.00
   13   16   29      1.51      0.00
   15   16   29     -0.51      0.00
   14   17   29      0.57      0.00
   16   17   29     -0.18      0.00
   11   18   29     -2.22      0.00
   13   18   29      1.01      0.00
   15   18   29      1.73      0.00
   17   18   29      0.98      0.00
    6   19   29     -1.11      0.00
    8   19   29     -2.46      0.00
   10   19   29     -2.27      0.00
   12   19   29      0.11      0.00
   14   19   29      1.03      0.00
   16   19   29     -0.97      0.00
   18   19   29      1.00      0.00
    1   20   29     -2.81      0.00
    5   20   29     -1.53      0.00
    7   20   29     -1.13      0.00
    9   20   29     -0.23      0.00
   11   20   29     -2.37      0.00
   13   20   29      0.07      0.00
   15   20   29     -1.18      0.00
   17   20   29     -0.05      0.00
    0   21   29      1.53      0.00
    2   21   29      0.85      0.00
    4   21   29     -0.14      0.00
    6   21   29      0.36      0.00
    8   21   29      2.00      0.00
   10   21   29     -1.00      0.00
   12   21   29      0.75      0.00
   14   21   29      1.19      0.00
   16   21   29     -0.02      0.00
    1   22   29      0.81      0.00
    3   22   29      1.50      0.00
    5   22   29     -0.30      0.00
    7   22   29      1.95      0.00
    9   22   29     -0.53      0.00
   11   22   29      0.73      0.00
   13   22   29      0.75      0.00
   15   22   29      0.00      0.00
    0   23   29     -0.94      0.00
    2   23   29      0.32      0.00
    4   23   29     -0.60      0.00
    6   23   29      0.23      0.00
    8   23   29      0.09      0.00
   10   23   29     -0.83      0.00
   12   23   29      0.09      0.00
    1   24   29     -0.23      0.00
    3   24   29     -0.78      0.00
    5   24   29      1.01      0.00
    7   24   29     -1.07      0.00
    9   24   29     -1.38      0.00
   11   24   29      0.08      0.00
    0   25   29     -0.25      0.00
    2   25   29     -0.66      0.00
    4   25   29     -0.96      0.00
    6   25   29     -0.30      0.00
    8   25   29     -0.48      0.00
    1   26   29     -0.05      0.00
    3   26   29      0.41      0.00
    5   26   29     -1.30      0.00
   13   13   30      2.19      0.00
   12   14   30     -0.22      0.00
   14   14   30      0.83      0.00
   13   15   30      0.81      0.00
   15   15   30      0.54      0.00
   12   16   30     -2.81      0.00
   14   16   30      0.96      0.00
   16   16   30     -2.22      0.00
    7   17   30      1.42      0.00
    9   17   30     -0.88      0.00
   11   17   30     -2.39      0.00
   13   17   30      1.30      0.00
   15   17   30     -1.00      0.00
   17   17   30     -0.47      0.00
    4   18   30      0.00      0.00
    6   18   30      0.34      0.00
    8   18   30     -1.41      0.00
   10   18   30     -2.76      0.00
   12   18   30      0.05      0.00
   14   18   30      0.22      0.00
   16   18   30      0.53      0.00
   18   18   30      0.76      0.00
    1   19   30     -1.77      0.00
    5   19   30     -1.24      0.00
    7   19   30     -0.17      0.00
    9   19   30      0.25      0.00
   11   19   30     -1.28      0.00
   13   19   30     -0.59      0.00
   15   19   30     -0.39      0.00
   17   19   30      0.97      0.00
    0   20   30     -1.01      0.00
    2   20   30      0.52      0.00
    4   20   30     -0.42      0.00
    6   20   30      1.46      0.00
    8   20   30     -0.06      0.00
   10   20   30      0.13      0.00
   12   20   30     -1.12      0.00
   14   20   30      0.33      0.00
   16   20   30     -0.20      0.00
    1   21   30     -0.31      0.00
    3   21   30      0.56      0.00
    5   21   30      0.81      0.00
    7   21   30      0.22      0.00
    9   21   30      0.38      0.00
   11   21   30      0.64      0.00
   13   21   30      0.39      0.00
    0   22   30     -1.69      0.00
    2   22   30     -0.14      0.00
    4   22   30     -1.08      0.00
    6   22   30      1.09      0.00
    8   22   30      1.26      0.00
   10   22   30     -0.68      0.00
   12   22   30      0.41      0.00
    1   23   30     -0.98      0.00
    3   23   30     -0.49      0.00
    5   23   30      1.06      0.00
    7   23   30     -0.33      0.00
    9   23   30     -0.32      0.00
   11   23   30     -0.55      0.00
    0   24   30     -0.29      0.00
    2   24   30     -0.07      0.00
    4   24   30     -1.34      0.00
    6   24   30      0.38      0.00
    8   24   30     -0.32      0.00
    1   25   30     -0.37      0.00
    3   25   30     -0.51      0.00
    5   25   30      0.66      0.00
   11   12   31      0.23      0.00
   12   13   31     -0.43      0.00
   11   14   31     -0.85      0.00
   13   14   31     -0.64      0.00
    8   15   31     -0.74      0.00
   10   15   31     -0.95      0.00
   12   15   31      1.01      0.00
   14   15   31      0.92      0.00
    7   16   31      1.59      0.00
    9   16   31      1.99      0.00
   11   16   31      1.45      0.00
   13   16   31     -0.63      0.00
   15   16   31     -1.80      0.00
    2   17   31      0.80      0.00
    4   17   31      0.73      0.00
    6   17   31     -0.76      0.00
    8   17   31      0.39      0.00
   10   17   31     -0.50      0.00
   12   17   31     -0.83      0.00
   14   17   31      0.34      0.00
   16   17   31     -1.61      0.00
    1   18   31     -0.19      0.00
    3   18   31     -0.36      0.00
    5   18   31     -0.44      0.00
    7   18   31     -1.03      0.00
    9   18   31     -0.14      0.00
   11   18   31     -0.67      0.00
   13   18   31     -0.16      0.00
   15   18   31     -0.02      0.00
    0   19   31      0.02      0.00
    2   19   31      1.02      0.00
    4   19   31      0.09      0.00
    6   19   31      0.16      0.00
    8   19   31      1.35      0.00
   10   19   31      1.15      0.00
   12   19   31      0.83      0.00
   14   19   31     -0.47      0.00
    1   20   31     -1.40      0.00
    3   20   31      0.04      0.00
    5   20   31      0.66      0.00
    7   20   31      2.58      0.00
    9   20   31      0.42      0.00
   11   20   31     -0.84      0.00
   13   20   31      0.31      0.00
    0   21   31      1.41      0.00
    2   21   31      0.72      0.00
    4   21   31     -2.13      0.00
    6   21   31     -1.20      0.00
    8   21   31      0.83      0.00
   10   21   31     -0.15      0.00
   12   21   31      0.51      0.00
    1   22   31      0.94      0.00
    3   22   31      0.03      0.00
    5   22   31     -0.33      0.00
    7   22   31     -1.08      0.00
    9   22   31     -0.44      0.00
    0   23   31      0.04      0.00
    2   23   31     -1.45      0.00
    4   23   31     -0.33      0.00
    6   23   31      1.13      0.00
    8   23   31     -1.38      0.00
    1   24   31      0.29      0.00
    3   24   31     -0.11      0.00
    5   24   31      0.27      0.00
   11   11   32      3.12      0.00
   10   12   32     -0.67      0.00
   12   12   32      0.57      0.00
    9   13   32     -0.40      0.00
   11   13   32      0.14      0.00
   13   13   32     -0.74      0.00
    8   14   32     -1.32      0.00
   10   14   32      0.05      0.00
   12   14   32     -0.06      0.00
   14   14   32      0.58      0.00
    5   15   32     -1.42      0.00
    7   15   32     -0.10      0.00
    9   15   32      1.14      0.00
   11   15   32     -0.63      0.00
   13   15   32     -0.45      0.00
   15   15   32      0.79      0.00
    0   16   32      0.34      0.00
    2   16   32      0.96      0.00
    4   16   32     -1.73      0.00
    6   16   32     -0.04      0.00
    8   16   32     -0.32      0.00
   10   16   32     -0.93      0.00
   12   16   32      1.58      0.00
   14   16   32     -0.53      0.00
   16   16   32      0.52      0.00
    1   17   32     -0.83      0.00
    3   17   32      1.17      0.00
    5   17   32      0.03      0.00
    7   17   32      0.08      0.00
    9   17   32     -0.09      0.00
   11   17   32     -0.08      0.00
   13   17   32      0.06      0.00
   15   17   32      0.64      0.00
    0   18   32      0.87      0.00
    2   18   32      0.93      0.00
    4   18   32     -0.38      0.00
    6   18   32      1.44      0.00
    8   18   32      0.56      0.00
   10   18   32     -0.23      0.00
   12   18   32      1.50      0.00
   14   18   32     -0.92      0.00
    1   19   32     -0.93      0.00
    3   19   32      1.39      0.00
    5   19   32      0.31      0.00
    7   19   32     -0.31      0.00
    9   19   32      1.10      0.00
   11   19   32      0.12      0.00
   13   19   32      0.77      0.00
    0   20   32     -2.37      0.00
    2   20   32      0.30      0.00
    4   20   32      1.44      0.00
    6   20   32     -0.26      0.00
    8   20   32      0.57      0.00
   10   20   32      0.61      0.00
    1   21   32      0.94      0.00
    3   21   32      0.46      0.00
    5   21   32     -0.30      0.00
    7   21   32      0.26      0.00
    9   21   32      0.19      0.00
    0   22   32      1.21      0.00
    2   22   32     -0.18      0.00
    4   22   32     -0.28      0.00
    6   22   32     -0.09      0.00
    1   23   32     -0.33      0.00
    3   23   32      0.13      0.00
    8   11   33     -1.70      0.00
   10   11   33      1.02      0.00
    7   12   33     -0.21      0.00
    9   12   33      0.48      0.00
   11   12   33     -1.41      0.00
    4   13   33      0.01      0.00
    6   13   33      0.90      0.00
    8   13   33     -1.05      0.00
   10   13   33      1.27      0.00
   12   13   33      0.12      0.00
    1   14   33     -0.89      0.00
    3   14   33     -2.13      0.00
    5   14   33      0.68      0.00
    7   14   33      0.73      0.00
    9   14   33      0.17      0.00
   11   14   33     -0.57      0.00
   13   14   33      0.81      0.00
    0   15   33     -1.11      0.00
    2   15   33     -0.53      0.00
    4   15   33     -0.21      0.00
    6   15   33      1.61      0.00
    8   15   33     -0.89      0.00
   10   15   33      0.10      0.00
   12   15   33      0.61      0.00
   14   15   33      0.02      0.00
    1   16   33      0.35      0.00
    3   16   33      0.05      0.00
    5   16   33     -0.17      0.00
    7   16   33      0.91      0.00
    9   16   33      0.63      0.00
   11   16   33      0.14      0.00
   13   16   33      0.24      0.00
    0   17   33      0.01      0.00
    2   17   33      1.67      0.00
    4   17   33      0.24      0.00
    6   17   33      0.01      0.00
    8   17   33     -0.10      0.00
   10   17   33     -0.37      0.00
   12   17   33      0.29      0.00
    1   18   33     -1.03      0.00
    3   18   33     -0.23      0.00
    5   18   33      0.42      0.00
    7   18   33     -0.73      0.00
    9   18   33     -0.66      0.00
   11   18   33     -0.11      0.00
    0   19   33     -1.04      0.00
    2   19   33     -1.12      0.00
    4   19   33     -0.11      0.00
    6   19   33      0.33      0.00
    8   19   33      0.22      0.00
   10   19   33     -0.49      0.00
    1   20   33      0.99      0.00
    3   20   33      0.67      0.00
    5   20   33     -0.58      0.00
    7   20   33     -0.60      0.00
    0   21   33      1.17      0.00
    2   21   33      0.07      0.00
    4   21   33     -0.41      0.00
    6    6   34      0.37      0.00
    7    7   34      1.67      0.00
    6    8   34     -0.88      0.00
    8    8   34      0.66      0.00
    7    9   34      1.13      0.00
    9    9   34     -1.44      0.00
    0   10   34     -1.25      0.00
    4   10   34     -1.30      0.00
    6   10   34      0.00      0.00
    8   10   34     -0.30      0.00
   10   10   34      0.19      0.00
    1   11   34      0.12      0.00
    3   11   34      0.96      0.00
    5   11   34     -1.10      0.00
    7   11   34     -0.02      0.00
    9   11   34     -0.53      0.00
   11   11   34      0.68      0.00
    0   12   34      2.27      0.00
    2   12   34      0.36      0.00
    4   12   34      0.40      0.00
    6   12   34      1.47      0.00
    8   12   34      0.69      0.00
   10   12   34     -1.00      0.00
   12   12   34     -0.07      0.00
    1   13   34      0.60      0.00
    3   13   34      0.26      0.00
    5   13   34      0.54      0.00
    7   13   34     -0.51      0.00
    9   13   34      1.15      0.00
   11   13   34     -0.56      0.00
   13   13   34      0.65      0.00
    0   14   34     -2.07      0.00
    2   14   34     -1.01      0.00
    4   14   34     -0.44      0.00
    6   14   34      1.01      0.00
    8   14   34     -0.57      0.00
   10   14   34     -0.09      0.00
   12   14   34     -0.85      0.00
   14   14   34      1.07      0.00
    1   15   34     -0.85      0.00
    3   15   34      0.04      0.00
    5   15   34     -0.78      0.00
    7   15   34      0.53      0.00
    9   15   34      0.12      0.00
   11   15   34      0.03      0.00
   13   15   34     -0.62      0.00
    0   16   34      3.02      0.00
    2   16   34      1.01      0.00
    4   16   34     -0.16      0.00
    6   16   34      0.06      0.00
    8   16   34      0.86      0.00
   10   16   34      1.56      0.00
   12   16   34      0.51      0.00
    1   17   34      1.36      0.00
    3   17   34     -1.29      0.00
    5   17   34      0.94      0.00
    7   17   34      1.13      0.00
    9   17   34     -0.67      0.00
    0   18   34     -0.44      0.00
    2   18   34     -0.85      0.00
    4   18   34      0.16      0.00
    6   18   34     -0.54      0.00
    8   18   34     -1.49      0.00
    1   19   34      0.17      0.00
    3   19   34     -0.44      0.00
    5   19   34     -0.65      0.00
    0   20   34     -0.67      0.00
    2   20   34      0.49      0.00
    3    4   35      0.42      0.00
    0    5   35     -0.91      0.00
    2    5   35     -0.36      0.00
    4    5   35      0.09      0.00
    3    6   35     -0.34      0.00
    5    6   35     -1.25      0.00
    0    7   35      0.43      0.00
    2    7   35      1.01      0.00
    4    7   35      0.09      0.00
    6    7   35      1.46      0.00
    1    8   35     -0.25      0.00
    3    8   35      0.40      0.00
    5    8   35     -0.52      0.00
    7    8   35     -0.29      0.00
    0    9   35     -0.71      0.00
    2    9   35      0.49      0.00
    4    9   35     -0.05      0.00
    6    9   35     -1.46      0.00
    8    9   35      0.77      0.00
    1   10   35     -0.47      0.00
    3   10   35      0.82      0.00
    5   10   35     -0.53      0.00
    7   10   35      1.76      0.00
    9   10   35     -0.41      0.00
    0   11   35     -0.94      0.00
    2   11   35     -0.17      0.00
    4   11   35     -0.61      0.00
    6   11   35      0.00      0.00
    8   11   35     -0.38      0.00
   10   11   35      0.59      0.00
    1   12   35     -0.34      0.00
    3   12   35     -0.45      0.00
    5   12   35     -1.09      0.00
    7   12   35     -0.16      0.00
    9   12   35      0.68      0.00
   11   12   35      1.28      0.00
    0   13   35     -0.76      0.00
    2   13   35     -0.04      0.00
    4   13   35      0.12      0.00
    6   13   35     -0.84      0.00
    8   13   35      0.62      0.00
   10   13   35     -1.12      0.00
   12   13   35     -0.45      0.00
    1   14   35     -0.27      0.00
    3   14   35     -0.10      0.00
    5   14   35      0.06      0.00
    7   14   35     -0.76      0.00
    9   14   35     -0.60      0.00
   11   14   35      0.28      0.00
    0   15   35      2.21      0.00
    2   15   35      0.00      0.00
    4   15   35     -1.54      0.00
    6   15   35      0.07      0.00
    8   15   35      0.68      0.00
   10   15   35     -0.33      0.00
    1   16   35      0.02      0.00
    3   16   35      0.80      0.00
    5   16   35     -0.76      0.00
    7   16   35     -0.50      0.00
    9   16   35     -0.32      0.00
    0   17   35      0.89      0.00
    2   17   35      0.12      0.00
    4   17   35      0.43      0.00
    6   17   35      0.41      0.00
    1   18   35      0.36      0.00
    3   18   35      0.49      0.00
    0    0    0      0.00      0.00
# SQUEEZE RESULTS (Version =  30715)
# Note: Data are Listed for all Voids in the P1 Unit Cell
# i.e. Centre of Gravity, Solvent Accessible Volume,
# Recovered number of Electrons in the Void and
# Details about the Squeezed Material
loop_
  _platon_squeeze_void_nr
  _platon_squeeze_void_average_x
  _platon_squeeze_void_average_y
  _platon_squeeze_void_average_z
  _platon_squeeze_void_volume
  _platon_squeeze_void_count_electrons
  _platon_squeeze_void_content
   1 -0.003 -0.006 -0.003     23484       793 ' '
# Missing Reflections Below sin(th)/lambda = 0.25
loop_
  _platon_missing_refln_index_h
  _platon_missing_refln_index_k
  _platon_missing_refln_index_l
  _platon_missing_refln_theta
    0    1    1     1.205
    0    0    2     1.704
    0    2    2     2.411
    0    1    3     2.695
    0    3    3     3.617
    0    0    4     3.410
    1    1    4     3.617
    0    2    4     3.813
    2    2    4     4.178
    1    3    4     4.349
    0    4    4     4.825
    4    4    4     5.913
    0    5    5     6.036
    0    0    6     5.119
    1    1    6     5.260
    0    2    6     5.397
    4    4    6     7.044
    0    3    7     6.503
    0    0    8     6.832
    1    1    8     6.939
    0    0   10     8.552
    1    1   10     8.638
    0    0   12    10.279
    1    1   12    10.351
    0    0   14    12.016
    1    1   14    12.078
    0    2   14    12.140
    1    3   14    12.324
_platon_squeeze_void_probe_radius                  1.20
_platon_squeeze_details
)
TITL CuNbO4 in Im-3m No. 229 Z 96
CELL   30.2610   30.2610   30.2610     90.00     90.00     90.00
SPGR Im-3m
# Solvent Accessible Volume =   23595.0
# Electrons Found in S.A.V. =     483.7
# Note: Atoms in Void as Cxxx and Qxxx all others
Q101 0.500 1.000 0.000 !       0.50 eA-3
)
;
_shelx_fab_checksum              58274
loop_
_space_group_symop_operation_xyz
'x, y, z'
'-x, -y, z'
'-x, y, -z'
'x, -y, -z'
'z, x, y'
'z, -x, -y'
'-z, -x, y'
'-z, x, -y'
'y, z, x'
'-y, z, -x'
'y, -z, -x'
'-y, -z, x'
'y, x, -z'
'-y, -x, -z'
'y, -x, z'
'-y, x, z'
'x, z, -y'
'-x, z, y'
'-x, -z, -y'
'x, -z, y'
'z, y, -x'
'z, -y, x'
'-z, y, x'
'-z, -y, -x'
'x+1/2, y+1/2, z+1/2'
'-x+1/2, -y+1/2, z+1/2'
'-x+1/2, y+1/2, -z+1/2'
'x+1/2, -y+1/2, -z+1/2'
'z+1/2, x+1/2, y+1/2'
'z+1/2, -x+1/2, -y+1/2'
'-z+1/2, -x+1/2, y+1/2'
'-z+1/2, x+1/2, -y+1/2'
'y+1/2, z+1/2, x+1/2'
'-y+1/2, z+1/2, -x+1/2'
'y+1/2, -z+1/2, -x+1/2'
'-y+1/2, -z+1/2, x+1/2'
'y+1/2, x+1/2, -z+1/2'
'-y+1/2, -x+1/2, -z+1/2'
'y+1/2, -x+1/2, z+1/2'
'-y+1/2, x+1/2, z+1/2'
'x+1/2, z+1/2, -y+1/2'
'-x+1/2, z+1/2, y+1/2'
'-x+1/2, -z+1/2, -y+1/2'
'x+1/2, -z+1/2, y+1/2'
'z+1/2, y+1/2, -x+1/2'
'z+1/2, -y+1/2, x+1/2'
'-z+1/2, y+1/2, x+1/2'
'-z+1/2, -y+1/2, -x+1/2'
'-x, -y, -z'
'x, y, -z'
'x, -y, z'
'-x, y, z'
'-z, -x, -y'
'-z, x, y'
'z, x, -y'
'z, -x, y'
'-y, -z, -x'
'y, -z, x'
'-y, z, x'
'y, z, -x'
'-y, -x, z'
'y, x, z'
'-y, x, -z'
'y, -x, -z'
'-x, -z, y'
'x, -z, -y'
'x, z, y'
'-x, z, -y'
'-z, -y, x'
'-z, y, -x'
'z, -y, -x'
'z, y, x'
'-x+1/2, -y+1/2, -z+1/2'
'x+1/2, y+1/2, -z+1/2'
'x+1/2, -y+1/2, z+1/2'
'-x+1/2, y+1/2, z+1/2'
'-z+1/2, -x+1/2, -y+1/2'
'-z+1/2, x+1/2, y+1/2'
'z+1/2, x+1/2, -y+1/2'
'z+1/2, -x+1/2, y+1/2'
'-y+1/2, -z+1/2, -x+1/2'
'y+1/2, -z+1/2, x+1/2'
'-y+1/2, z+1/2, x+1/2'
'y+1/2, z+1/2, -x+1/2'
'-y+1/2, -x+1/2, z+1/2'
'y+1/2, x+1/2, z+1/2'
'-y+1/2, x+1/2, -z+1/2'
'y+1/2, -x+1/2, -z+1/2'
'-x+1/2, -z+1/2, y+1/2'
'x+1/2, -z+1/2, -y+1/2'
'x+1/2, z+1/2, y+1/2'
'-x+1/2, z+1/2, -y+1/2'
'-z+1/2, -y+1/2, x+1/2'
'-z+1/2, y+1/2, -x+1/2'
'z+1/2, -y+1/2, -x+1/2'
'z+1/2, y+1/2, x+1/2'
loop_
_atom_site_label
_atom_site_type_symbol
_atom_site_fract_x
_atom_site_fract_y
_atom_site_fract_z
_atom_site_U_iso_or_equiv
_atom_site_adp_type
_atom_site_occupancy
_atom_site_site_symmetry_order
_atom_site_calc_flag
_atom_site_refinement_flags_posn
_atom_site_refinement_flags_adp
_atom_site_refinement_flags_occupancy
Cu1 Cu 0.5000 0.5000 0.04475(3) 0.1529(6) Uani 1 8 d DS T P
O1 O 0.5000 0.5000 0.1143(3) 0.227(2) Uani 1 8 d DS T P
H1 H 0.4816(6) 0.4816(6) 0.1254(8) 0.272 Uiso 0.5 2 d DS U P
O2 O 0.43548(8) 0.5000 0.03735(11) 0.1808(10) Uani 1 2 d S T P
C1 C 0.27538(15) 0.5000 0.0000 0.218(2) Uani 1 4 d S T P
C2 C 0.29972(15) 0.5000 0.03834(19) 0.2212(19) Uani 1 2 d S T P
C3 C 0.34449(16) 0.5000 0.03811(16) 0.2108(18) Uani 1 2 d S T P
H3 H 0.3596 0.5000 0.0652 0.253 Uiso 1 2 calc R U P
C4 C 0.36834(13) 0.5000 0.0000 0.1846(18) Uani 1 4 d S T P
C5 C 0.41755(13) 0.5000 0.0000 0.1735(17) Uani 1 4 d S T P
N1 N 0.27692(16) 0.5000 0.0808(3) 0.316(3) Uani 1 2 d S T P
O3 O 0.24156(16) 0.5000 0.0847(2) 0.525(5) Uani 1 2 d S T P
O4 O 0.29591(18) 0.5000 0.1114(2) 0.425(5) Uani 1 2 d S T P
loop_
_atom_site_aniso_label
_atom_site_aniso_U_11
_atom_site_aniso_U_22
_atom_site_aniso_U_33
_atom_site_aniso_U_23
_atom_site_aniso_U_13
_atom_site_aniso_U_12
Cu1 0.1041(5) 0.1041(5) 0.2506(9) 0.000 0.000 0.000
O1 0.202(3) 0.202(3) 0.276(6) 0.000 0.000 0.000
O2 0.1013(14) 0.1612(18) 0.280(3) 0.000 0.0011(13) 0.000
C1 0.097(3) 0.273(7) 0.285(7) 0.000 0.000 0.000
C2 0.108(3) 0.282(5) 0.274(5) 0.000 0.014(2) 0.000
C3 0.121(3) 0.236(4) 0.275(4) 0.000 -0.009(2) 0.000
C4 0.104(2) 0.186(4) 0.265(6) 0.000 0.000 0.000
C5 0.103(2) 0.134(2) 0.284(6) 0.000 0.000 0.000
N1 0.111(3) 0.530(11) 0.306(7) 0.000 0.002(3) 0.000
O3 0.138(3) 1.110(16) 0.326(6) 0.000 -0.003(3) 0.000
O4 0.172(4) 0.780(15) 0.322(7) 0.000 0.021(3) 0.000
loop_
_atom_type_symbol
_atom_type_description
_atom_type_scat_dispersion_real
_atom_type_scat_dispersion_imag
_atom_type_scat_source
C C 0.0060 0.0030 'International Tables Vol C Tables 4.2.6.8 and 6.1.1.4'
H H 0.0000 0.0000 'International Tables Vol C Tables 4.2.6.8 and 6.1.1.4'
N N 0.0110 0.0060 'International Tables Vol C Tables 4.2.6.8 and 6.1.1.4'
O O 0.0190 0.0100 'International Tables Vol C Tables 4.2.6.8 and 6.1.1.4'
Cu Cu 0.1510 1.9490 'International Tables Vol C Tables 4.2.6.8 and 6.1.1.4'
loop_
_geom_angle_atom_site_label_1
_geom_angle_atom_site_label_2
_geom_angle_atom_site_label_3
_geom_angle
_geom_angle_site_symmetry_1
_geom_angle_site_symmetry_3
O2 Cu1 O2 166.92(19) 62 61_665
O2 Cu1 O2 89.26(2) 62 2_665
O2 Cu1 O2 89.26(2) 61_665 2_665
O2 Cu1 O2 89.26(2) 62 .
O2 Cu1 O2 89.26(2) 61_665 .
O2 Cu1 O2 166.92(19) 2_665 .
O2 Cu1 O1 96.54(10) 62 .
O2 Cu1 O1 96.54(10) 61_665 .
O2 Cu1 O1 96.54(10) 2_665 .
O2 Cu1 O1 96.54(10) . .
O2 Cu1 Cu1 83.46(10) 62 49_665
O2 Cu1 Cu1 83.46(10) 61_665 49_665
O2 Cu1 Cu1 83.46(10) 2_665 49_665
O2 Cu1 Cu1 83.46(10) . 49_665
O1 Cu1 Cu1 180.0 . 49_665
C5 O2 Cu1 122.2(3) . .
C2 C1 C2 115.2(5) 50 .
C2 C1 C1 122.4(3) 50 89_554
C2 C1 C1 122.4(3) . 89_554
C3 C2 C1 122.1(5) . .
C3 C2 N1 118.5(5) . .
C1 C2 N1 119.4(5) . .
C2 C3 C4 122.3(5) . .
C3 C4 C3 115.9(5) 50 .
C3 C4 C5 122.0(2) 50 .
C3 C4 C5 122.0(2) . .
O2 C5 O2 128.7(4) . 50
O2 C5 C4 115.6(2) . .
O2 C5 C4 115.6(2) 50 .
O4 N1 O3 115.6(8) . .
O4 N1 C2 119.9(6) . .
O3 N1 C2 124.5(7) . .
loop_
_geom_bond_atom_site_label_1
_geom_bond_atom_site_label_2
_geom_bond_distance
_geom_bond_site_symmetry_2
Cu1 O2 1.965(2) 62
Cu1 O2 1.965(2) 61_665
Cu1 O2 1.965(2) 2_665
Cu1 O2 1.965(2) .
Cu1 O1 2.104(8) .
Cu1 Cu1 2.7084(17) 49_665
O2 C5 1.254(3) .
C1 C2 1.374(6) 50
C1 C2 1.374(6) .
C1 C1 1.536(9) 89_554
C2 C3 1.355(7) .
C2 N1 1.459(7) .
C3 C4 1.361(5) .
C4 C3 1.361(5) 50
C4 C5 1.489(6) .
C5 O2 1.254(3) 50
N1 O4 1.089(7) .
N1 O3 1.076(6) .
