#------------------------------------------------------------------------------
#$Date: 2017-08-15 04:48:22 +0300 (Tue, 15 Aug 2017) $
#$Revision: 199755 $
#$URL: file:///home/coder/svn-repositories/cod/cif/7/12/05/7120552.cif $
#------------------------------------------------------------------------------
#
# This file is available in the Crystallography Open Database (COD),
# http://www.crystallography.net/
#
# All data on this site have been placed in the public domain by the
# contributors.
#
data_7120552
loop_
_publ_author_name
'Su, Zhong-Min'
'Li, Xiao-Xin'
'Shen, Feng-Cui'
'Liu, Jiang'
'Li, Shun-Li'
'Dong, Long-Zhang'
'Fu, Qiang'
'Lan, Ya-Qian'
_publ_section_title
;
 A High Stable Polyoxometalate-Based Metal-Organic Framework with ABW
 Zeolite-Like Structure
;
_journal_name_full               'Chem. Commun.'
_journal_paper_doi               10.1039/C7CC05552H
_journal_year                    2017
_chemical_formula_moiety
'0.25(C104 H80 Mo96 N36 O336 P8 Zn32), 3(H2 O)'
_chemical_formula_sum            'C26 H26 Mo24 N9 O87 P2 Zn8'
_chemical_formula_weight         4744.02
_space_group_crystal_system      orthorhombic
_space_group_IT_number           72
_space_group_name_Hall           '-I 2 2c'
_space_group_name_H-M_alt        'I b a m'
_symmetry_space_group_name_Hall  '-I 2 2c'
_symmetry_space_group_name_H-M   'I b a m'
_atom_sites_solution_hydrogens   mixed
_atom_sites_solution_primary     dual
_audit_creation_date             2017-06-09
_audit_creation_method
;
Olex2 1.2
(compiled 2017.03.28 svn.r3405 for OlexSys, GUI svn.r5337)
;
_audit_update_record
;
2017-06-09 deposited with the CCDC.
2017-08-14 downloaded from the CCDC.
;
_cell_angle_alpha                90
_cell_angle_beta                 90
_cell_angle_gamma                90
_cell_formula_units_Z            8
_cell_length_a                   20.1749(16)
_cell_length_b                   38.738(3)
_cell_length_c                   52.010(4)
_cell_measurement_reflns_used    9200
_cell_measurement_temperature    294(2)
_cell_measurement_theta_max      24.925
_cell_measurement_theta_min      2.575
_cell_volume                     40648(5)
_computing_cell_refinement       'SAINT v8.37A (Bruker, 2015)'
_computing_data_reduction        'SAINT v8.37A (Bruker, 2015)'
_computing_molecular_graphics    'Olex2 (Dolomanov et al., 2009)'
_computing_publication_material  'Olex2 (Dolomanov et al., 2009)'
_computing_structure_refinement  'ShelXL (Sheldrick, 2015)'
_computing_structure_solution    'ShelXT (Sheldrick, 2015)'
_diffrn_ambient_temperature      293.71
_diffrn_measured_fraction_theta_full 0.992
_diffrn_measured_fraction_theta_max 0.992
_diffrn_measurement_device_type  'BrukerAXS area detector'
_diffrn_radiation_type           MoK\a
_diffrn_radiation_wavelength     0.71073
_diffrn_reflns_av_R_equivalents  0.0354
_diffrn_reflns_av_unetI/netI     0.0274
_diffrn_reflns_Laue_measured_fraction_full 0.992
_diffrn_reflns_Laue_measured_fraction_max 0.992
_diffrn_reflns_limit_h_max       16
_diffrn_reflns_limit_h_min       -24
_diffrn_reflns_limit_k_max       46
_diffrn_reflns_limit_k_min       -34
_diffrn_reflns_limit_l_max       50
_diffrn_reflns_limit_l_min       -61
_diffrn_reflns_number            109435
_diffrn_reflns_point_group_measured_fraction_full 0.992
_diffrn_reflns_point_group_measured_fraction_max 0.992
_diffrn_reflns_theta_full        25.119
_diffrn_reflns_theta_max         25.119
_diffrn_reflns_theta_min         2.165
_exptl_absorpt_coefficient_mu    2.421
_exptl_absorpt_correction_T_max  0.7452
_exptl_absorpt_correction_T_min  0.4741
_exptl_absorpt_correction_type   multi-scan
_exptl_absorpt_process_details
;
SADABS-2014/5 (Bruker,2014/5) was used for absorption correction.
wR2(int) was 0.1091 before and 0.0569 after correction.
The Ratio of minimum to maximum transmission is 0.6362.
The \l/2 correction factor is Not present.
;
_exptl_crystal_colour            'dull dark black'
_exptl_crystal_colour_lustre     dull
_exptl_crystal_colour_modifier   dark
_exptl_crystal_colour_primary    black
_exptl_crystal_density_diffrn    1.550
_exptl_crystal_description       block
_exptl_crystal_F_000             17752
_exptl_crystal_size_max          0.34
_exptl_crystal_size_mid          0.32
_exptl_crystal_size_min          0.31
_platon_squeeze_details
;
TITL mo_lixx170I b a mm     R = 0.08
CELL   20.1749   38.7380   52.0100     90.00     90.00     90.00
SPGR Ibam
# Solvent Accessible Volume =     24464
# Electrons Found in S.A.V. =      4163
# Note: Atoms in Void as Cxxx and Qxxx all others
C101 0.061 0.359-0.002 !       2.42 eA-3
C102 0.517 0.172 0.001 !       2.09 eA-3
C103 0.500 1.000 0.168 !       1.89 eA-3
Q104 0.357 0.376 0.167 !       1.75 eA-3
C105 0.500 0.499 0.121 !       1.68 eA-3
C106 0.591 0.298 0.061 !       1.64 eA-3
C107 0.939 0.617-0.001 !       1.64 eA-3
Q108 0.890 0.101 0.069 !       1.61 eA-3
C109 0.523 0.759 0.204 !       1.60 eA-3
C110 0.500 0.501 0.078 !       1.57 eA-3
C111 0.976 0.102 0.001 !       1.52 eA-3
C112 0.921 0.040 0.414 !       1.47 eA-3
C113 0.894 0.078 0.001 !       1.45 eA-3
C114 0.925 0.852 0.000 !       1.44 eA-3
C115 0.913 0.102 0.001 !       1.41 eA-3
Q116 0.190 0.789 0.152 !       1.40 eA-3
C117 0.550 0.985 0.149 !       1.39 eA-3
C118 0.472 0.234 0.001 !       1.39 eA-3
C119 0.964 0.281 0.206 !       1.38 eA-3
C120 0.095 0.950 0.430 !       1.38 eA-3
C121 0.543 0.727 0.433 !       1.35 eA-3
C122 0.999 0.015 0.100 !       1.33 eA-3
C123 0.055 0.203-0.002 !       1.31 eA-3
C124 0.845 0.976 0.168 !       1.30 eA-3
C125 0.949 0.040 0.421 !       1.28 eA-3
C126 0.628 0.961 0.123 !       1.28 eA-3
C127 0.937 0.460 0.142 !       1.28 eA-3
C128 0.888 0.556 0.396 !       1.28 eA-3
Q129 0.606 0.423 0.363 !       1.25 eA-3
C130 0.023 0.164-0.001 !       1.24 eA-3
C131 0.382 0.573 0.078 !       1.24 eA-3
C132 0.486 0.359 0.002 !       1.23 eA-3
C133 0.364 0.055 0.093 !       1.22 eA-3
C134 0.124 0.554 0.125 !       1.22 eA-3
Q135 0.854 0.835 0.450 !       1.21 eA-3
C136 0.379 0.655 0.075 !       1.20 eA-3
Q137 0.808 0.680 0.000 !       1.20 eA-3
C138 0.298 0.716 0.249 !       1.19 eA-3
Q139 0.576 0.330 0.384 !       1.19 eA-3
C140 0.018 0.963 0.408 !       1.18 eA-3
C141 0.860 0.063 0.437 !       1.18 eA-3
C142 0.485 0.255 0.308 !       1.17 eA-3
Q143 0.849 0.156 0.000 !       1.16 eA-3
C144 0.380 0.552 0.488 !       1.16 eA-3
C145 0.269 0.227 0.001 !       1.16 eA-3
C146 0.955 0.016 0.378 !       1.15 eA-3
C147 0.918 0.361 0.485 !       1.14 eA-3
C148 0.871 0.359 0.091 !       1.14 eA-3
C149 0.136 0.024 0.158 !       1.14 eA-3
C150 0.376 0.086 0.089 !       1.14 eA-3
C151 0.900 0.047 0.004 !       1.14 eA-3
C152 0.577 0.468 0.154 !       1.13 eA-3
C153 0.051 0.547 0.062 !       1.13 eA-3
C154 0.436 0.073 0.062 !       1.12 eA-3
C155 0.970 0.493 0.347 !       1.12 eA-3
C156 0.023 0.032 0.119 !       1.12 eA-3
C157 0.529 0.039 0.184 !       1.11 eA-3
C158 0.607 0.897 0.074 !       1.11 eA-3
C159 0.687 0.961 0.142 !       1.11 eA-3
C160 0.628 0.132 0.419 !       1.11 eA-3
C161 0.250 0.250 0.250 !       1.09 eA-3
C162 0.395 0.679 0.056 !       1.09 eA-3
C163 0.437 0.977 0.448 !       1.09 eA-3
C164 0.494 0.726 0.298 !       1.08 eA-3
C165 0.662 0.149 0.436 !       1.07 eA-3
C166 0.409 0.076 0.097 !       1.07 eA-3
C167 0.575 0.375-0.002 !       1.06 eA-3
C168 0.949 0.038 0.394 !       1.06 eA-3
C169 0.502 0.719 0.001 !       1.05 eA-3
C170 0.563 0.493 0.139 !       1.05 eA-3
C171 0.822 0.805 0.246 !       1.04 eA-3
C172 0.121 0.531 0.149 !       1.02 eA-3
C173 1.000 0.502 0.457 !       1.02 eA-3
C174 0.842 0.258 0.000 !       1.02 eA-3
C175 0.404 0.695 0.024 !       1.02 eA-3
C176 0.095 0.986 0.335 !       1.01 eA-3
C177 0.142 0.400 0.396 !       1.01 eA-3
C178 0.966 0.595 0.010 !       1.01 eA-3
C179 0.465 0.502 0.057 !       1.01 eA-3
C180 0.527 0.745 0.289 !       1.01 eA-3
C181 0.287 0.047 0.147 !       0.99 eA-3
C182 0.616 0.078 0.426 !       0.99 eA-3
C183 0.550 0.781 0.000 !       0.98 eA-3
C184 0.126 0.954 0.417 !       0.98 eA-3
Q185 0.310 0.850 0.176 !       0.98 eA-3
C186 0.673 0.938 0.073 !       0.97 eA-3
C187 0.605 0.398 0.078 !       0.97 eA-3
C188 0.395 0.602 0.922 !       0.97 eA-3
C189 0.395 0.601 0.078 !       0.97 eA-3
C190 0.182 0.787 0.266 !       0.96 eA-3
C191 0.210 0.251 0.241 !       0.95 eA-3
C192 0.149 0.617 0.065 !       0.95 eA-3
Q193 0.170 0.367-0.001 !       0.95 eA-3
C194 0.954 0.991 0.371 !       0.95 eA-3
C195 0.971 0.225 0.465 !       0.95 eA-3
C196 0.691 0.763 0.017 !       0.94 eA-3
Q197 0.522 0.554 0.390 !       0.94 eA-3
C198 0.086 0.382 0.418 !       0.94 eA-3
C199 0.516 0.920 0.286 !       0.93 eA-3
;
_refine_diff_density_max         1.357
_refine_diff_density_min         -1.338
_refine_diff_density_rms         0.122
_refine_ls_extinction_method     none
_refine_ls_goodness_of_fit_ref   1.044
_refine_ls_hydrogen_treatment    mixed
_refine_ls_matrix_type           full
_refine_ls_number_parameters     722
_refine_ls_number_reflns         18225
_refine_ls_number_restraints     20
_refine_ls_restrained_S_all      1.045
_refine_ls_R_factor_all          0.0769
_refine_ls_R_factor_gt           0.0557
_refine_ls_shift/su_max          0.002
_refine_ls_shift/su_mean         0.000
_refine_ls_structure_factor_coef Fsqd
_refine_ls_weighting_details
'w=1/[\s^2^(Fo^2^)+(0.0810P)^2^+355.2773P] where P=(Fo^2^+2Fc^2^)/3'
_refine_ls_weighting_scheme      calc
_refine_ls_wR_factor_gt          0.1534
_refine_ls_wR_factor_ref         0.1764
_reflns_Friedel_coverage         0.000
_reflns_number_gt                13180
_reflns_number_total             18225
_reflns_threshold_expression     'I > 2\s(I)'
_iucr_refine_instructions_details
;

    mo_lixx170303_1_0m_sq.res created by SHELXL-2014/7

TITL mo_lixx170303_1_0m_a.res in Ibam
REM Old TITL mo_Lixx170303_1_0m in Ibam #72
REM SHELXT solution in Ibam
REM R1 0.224, Rweak 0.012, Alpha 0.025, Orientation as input
REM Formula found by SHELXT: C22 O65 Zn8 Mo24 N31
CELL 0.71073 20.1749 38.7384 52.0099 90 90 90
ZERR 8 0.0016 0.003 0.0044 0 0 0
LATT 2
SYMM -X,-Y,+Z
SYMM 0.5-X,0.5+Y,-Z
SYMM 0.5+X,0.5-Y,-Z
SFAC C H Mo N O P Zn
UNIT 208 208 192 72 696 16 64
EQIV $1 +X,+Y,1-Z
DFIX 0.8 0.05 O1W H1Wa
DFIX 0.8 H1Wb O1W
DFIX 2 N3 H1Wb
DFIX 0.85 0.01 O36 H36
DFIX 0.85 0.01 O17 H17
DFIX 0.8 H2W O2W
DFIX 1.86 H2W O35_$1
DANG 2.224216 0.02 Mo11 H36
DANG 2.598454 0.02 Mo10 H36
DANG 2.229708 0.02 Mo5 H17
DANG 2.569345 0.02 Mo6 H17
FLAT 0.03 O1W N3 N2 N1
FLAT O1W H1Wb N3 N2 N1
ISOR C4
 
L.S. 8 0 298
PLAN  200
TEMP 20.56
FREE Mo9 Mo10
BIND O40 Mo6
BIND O40 Mo5
BIND O37 Mo1
BIND O39 Mo10
BIND O39 Mo11
FREE Mo7 Mo6
BIND O38 Mo7
BIND O38 Mo9
FREE N3 O1W
FREE Mo11 Mo5
FREE Mo2 Mo12
FREE Mo1 Mo8
BIND Mo8 O38
FREE Mo3 Mo4
BOND $H
list 4
ABIN
fmap 2
ACTA
REM <olex2.extras>
REM <HklSrc "%.\\mo_Lixx170303_1_0m_sq.hkl">
REM </olex2.extras>
 
WGHT    0.081000  355.277313
FVAR       0.04811
MO2   3    0.906439    0.341980    0.581677    11.00000    0.05597    0.08468 =
         0.06167   -0.00695    0.00952   -0.00019
MO12  3    0.815048    0.299130    0.565559    11.00000    0.06264    0.08140 =
         0.06014   -0.02125    0.00830    0.00564
MO11  3    0.702630    0.259296    0.604733    11.00000    0.05391    0.07216 =
         0.08147   -0.02329    0.00478   -0.00354
MO1   3    0.875341    0.423587    0.603686    11.00000    0.07383    0.07704 =
         0.06401   -0.00854    0.00374   -0.01461
MO8   3    0.723135    0.445671    0.603809    11.00000    0.08418    0.07009 =
         0.07305   -0.01646    0.00490    0.00339
MO3   3    0.918331    0.362191    0.648178    11.00000    0.06948    0.09463 =
         0.06530   -0.00651   -0.01376   -0.01763
MO5   3    0.712173    0.277719    0.664363    11.00000    0.07360    0.08254 =
         0.07054   -0.00302    0.01274   -0.01005
MO10  3    0.646635    0.323908    0.565184    11.00000    0.06179    0.09114 =
         0.06962   -0.02822   -0.01185    0.00355
MO9   3    0.611443    0.385288    0.582206    11.00000    0.06232    0.08807 =
         0.08155   -0.01802   -0.00660    0.01149
MO7   3    0.620811    0.405382    0.647284    11.00000    0.08002    0.08159 =
         0.08773   -0.03125    0.02511    0.00260
MO4   3    0.835534    0.334238    0.680635    11.00000    0.09325    0.10104 =
         0.05265   -0.00457   -0.00894   -0.01848
MO6   3    0.663513    0.359685    0.680837    11.00000    0.09621    0.09626 =
         0.06382   -0.02491    0.02733   -0.01331
ZN4   7    0.860003    0.276169    0.629081    11.00000    0.05466    0.07768 =
         0.07732   -0.00084    0.00090    0.00102
ZN2   7    0.773045    0.389903    0.555341    11.00000    0.07913    0.08789 =
         0.04874   -0.00926   -0.00016    0.00664
ZN3   7    0.585796    0.316492    0.628802    11.00000    0.05128    0.08334 =
         0.09430   -0.02355    0.01199   -0.00315
ZN1   7    0.789733    0.422309    0.662455    11.00000    0.10178    0.08810 =
         0.05405   -0.02890    0.00542   -0.01845
P1    6    0.755175    0.351132    0.619248    11.00000    0.05235    0.06969 =
         0.04730   -0.01750    0.00270   -0.00109
O40   5    0.747024    0.336920    0.647105    11.00000    0.05816    0.08137 =
         0.04214   -0.01665    0.00326   -0.00902
O39   5    0.738816    0.322512    0.599445    11.00000    0.05142    0.07223 =
         0.05332   -0.02138   -0.00123    0.00039
O37   5    0.827912    0.362303    0.615361    11.00000    0.05598    0.07446 =
         0.04651   -0.01062   -0.00239   -0.00818
O32   5    0.875246    0.297866    0.595426    11.00000    0.04761    0.07739 =
         0.07641   -0.01580    0.00485    0.00319
O22   5    0.793334    0.423569    0.581788    11.00000    0.07496    0.07368 =
         0.05083   -0.01155    0.00379   -0.00492
O29   5    0.652416    0.280842    0.633950    11.00000    0.05759    0.07859 =
         0.08199   -0.01392    0.01220   -0.00755
O38   5    0.707304    0.381356    0.615165    11.00000    0.06089    0.07641 =
         0.05241   -0.01899    0.00539    0.00351
O25   5    0.828012    0.348787    0.559762    11.00000    0.07207    0.08168 =
         0.05382   -0.01291    0.00421    0.00277
O31   5    0.766860    0.264511    0.634026    11.00000    0.05861    0.07968 =
         0.07670   -0.00551    0.00900   -0.00020
O33   5    0.772716    0.257901    0.583237    11.00000    0.06217    0.07238 =
         0.07740   -0.02410    0.00539    0.00477
O26   5    0.685766    0.369733    0.559691    11.00000    0.06897    0.09497 =
         0.05629   -0.01690   -0.00708    0.01149
O28   5    0.595033    0.338473    0.595561    11.00000    0.04612    0.08252 =
         0.09779   -0.03125   -0.00702   -0.00138
O19   5    0.885496    0.314811    0.651846    11.00000    0.06287    0.09462 =
         0.06464   -0.00300   -0.01592   -0.00404
O7    5    0.847951    0.381547    0.668649    11.00000    0.09391    0.09636 =
         0.04793   -0.01269   -0.00574   -0.02775
O36   5    0.642993    0.277525    0.583151    11.00000    0.05594    0.08539 =
         0.08964   -0.03898   -0.00124   -0.00505
H36   2    0.605836    0.267443    0.585948    11.00000   -1.50000
O5    5    0.754484    0.354468    0.699598    11.00000    0.11582    0.10857 =
         0.04955   -0.01881    0.00513   -0.02120
O20   5    0.962066    0.345219    0.614678    11.00000    0.04793    0.09746 =
         0.08363    0.00440   -0.00193   -0.01497
O3    5    0.701194    0.403129    0.668713    11.00000    0.09398    0.08739 =
         0.06583   -0.03422    0.01888   -0.01587
O11   5    0.801491    0.437153    0.627133    11.00000    0.08537    0.07732 =
         0.05873   -0.01966    0.00224   -0.01179
O35   5    0.727859    0.305002    0.548068    11.00000    0.07508    0.09431 =
         0.06093   -0.03011   -0.00635    0.01062
O9    5    0.920931    0.409530    0.631814    11.00000    0.07445    0.09266 =
         0.07289   -0.01349   -0.01198   -0.02313
O17   5    0.659886    0.307914    0.680965    11.00000    0.08767    0.10185 =
         0.06643   -0.01280    0.02728   -0.02157
H17   2    0.622915    0.297651    0.683728    11.00000   -1.50000
N4    4    0.782343    0.412037    0.520598    11.00000    0.08017    0.08342 =
         0.05856    0.00015    0.00336   -0.00215
O21   5    0.912607    0.393851    0.580950    11.00000    0.06211    0.09364 =
         0.06334   -0.00675    0.01053   -0.00394
O24   5    0.968772    0.332155    0.562259    11.00000    0.06776    0.10854 =
         0.09254   -0.00673    0.02560   -0.00372
O1    5    0.805343    0.457197    0.688024    11.00000    0.14670    0.10524 =
         0.06294   -0.03966    0.00905   -0.02737
N5    4    0.778696    0.392555    0.500000    10.50000    0.11217    0.08720 =
         0.04204    0.00000    0.00000   -0.00352
O41   5    0.678077    0.217922    0.607767    11.00000    0.06815    0.06605 =
         0.12554   -0.02741    0.01329   -0.00678
N3    4    0.473102    0.269366    0.631568    11.00000    0.05376    0.08278 =
         0.08787   -0.01975    0.00622   -0.00183
O16   5    0.603446    0.356024    0.651411    11.00000    0.07154    0.07568 =
         0.08801   -0.02365    0.02086   -0.00545
O13   5    0.669550    0.446444    0.631905    11.00000    0.09313    0.06982 =
         0.09070   -0.02788    0.01870   -0.00111
O18   5    0.788962    0.288525    0.681087    11.00000    0.09197    0.09386 =
         0.07051    0.01175   -0.00582   -0.01354
O34   5    0.856201    0.280029    0.541752    11.00000    0.08913    0.10515 =
         0.07398   -0.03220    0.01740    0.01053
O23   5    0.663348    0.430932    0.580634    11.00000    0.08002    0.07962 =
         0.08758    0.00043    0.00134    0.01495
O10   5    0.910629    0.462273    0.596451    11.00000    0.10840    0.08535 =
         0.10238    0.00011    0.01333   -0.01793
O15   5    0.577128    0.402480    0.614627    11.00000    0.06095    0.08639 =
         0.11707   -0.02412    0.01371    0.01469
O2    5    0.787982    0.416085    0.718524    11.00000    0.19145    0.11756 =
         0.07652   -0.04965    0.00484   -0.02462
O8    5    0.985951    0.364063    0.666435    11.00000    0.08543    0.14486 =
         0.09233    0.00295   -0.03411   -0.02868
O30   5    0.691795    0.239060    0.676085    11.00000    0.10519    0.09017 =
         0.11294    0.00795    0.02781   -0.01355
O4    5    0.617125    0.368913    0.706270    11.00000    0.14356    0.11621 =
         0.08836   -0.03033    0.05339   -0.00999
O42   5    0.592206    0.319266    0.541498    11.00000    0.08474    0.12104 =
         0.09693   -0.03735   -0.02815    0.00003
N1    4    0.493332    0.301769    0.634068    11.00000    0.05957    0.07252 =
         0.12368   -0.03342    0.01990   -0.00244
O12   5    0.733005    0.487729    0.595889    11.00000    0.12383    0.08216 =
         0.09705   -0.01155    0.00923    0.01365
N2    4    0.408296    0.267409    0.634510    11.00000    0.04693    0.08336 =
         0.11447   -0.01492    0.01614   -0.00129
O27   5    0.549333    0.393989    0.562259    11.00000    0.08111    0.11069 =
         0.12035   -0.00640   -0.02776    0.01596
O14   5    0.564238    0.425336    0.665472    11.00000    0.11818    0.10681 =
         0.11700   -0.04241    0.04096    0.01571
O6    5    0.884530    0.329867    0.706142    11.00000    0.13490    0.14875 =
         0.06460    0.00362   -0.03476   -0.02870
O2W   5    0.746638    0.324118    0.500000    10.50000    0.33553    0.13328 =
         0.05308    0.00000    0.00000   -0.04554
O1W   5    0.540142    0.205807    0.621838    11.00000    0.06701    0.11977 =
         0.28721   -0.03455    0.03832   -0.00199
C7    1    0.787294    0.444669    0.513644    11.00000    0.09875    0.07939 =
         0.07753   -0.00417    0.00923   -0.00673
C10   1    0.798135    0.446771    0.710953    11.00000    0.10558    0.12023 =
         0.08123   -0.05261   -0.00717    0.00187
C11   1    0.800798    0.474212    0.731753    11.00000    0.10715    0.09249 =
         0.07003   -0.04284    0.00357   -0.00551
C13   1    0.801376    0.507795    0.724720    11.00000    0.17135    0.12648 =
         0.06254   -0.04263    0.02613   -0.03048
AFIX  43
H13   2    0.801604    0.513469    0.707345    11.00000   -1.20000
AFIX   0
C12   1    0.801637    0.465701    0.756843    11.00000    0.16473    0.11461 =
         0.07151   -0.03563   -0.02572    0.01146
AFIX  43
H12   2    0.802379    0.442671    0.761886    11.00000   -1.20000
AFIX   0
C1    1    0.440200    0.321588    0.638173    11.00000    0.06521    0.09920 =
         0.24954   -0.06439    0.04936   -0.00862
C8    1    0.789124    0.475192    0.528224    11.00000    0.22007    0.07331 =
         0.11373   -0.01848    0.02433   -0.01081
AFIX  43
H8    2    0.789375    0.474801    0.546103    11.00000   -1.20000
AFIX   0
C2    1    0.385542    0.299879    0.639160    11.00000    0.06670    0.11289 =
         0.24686   -0.06088    0.04580   -0.00146
C9    1    0.790512    0.505430    0.514787    11.00000    0.24645    0.09622 =
         0.17788   -0.03208   -0.00450   -0.03453
AFIX  43
H9    2    0.791470    0.526299    0.523618    11.00000   -1.20000
AFIX   0
C3    1    0.321469    0.312416    0.645115    11.00000    0.08542    0.10695 =
         0.48816   -0.09278    0.11874   -0.01111
AFIX  43
H3    2    0.284946    0.297806    0.645893    11.00000   -1.20000
AFIX   0
C6    1    0.432694    0.358387    0.639612    11.00000    0.11663    0.11280 =
         0.61836   -0.14338    0.11156   -0.00848
AFIX  43
H6    2    0.467507    0.373643    0.636741    11.00000   -1.20000
AFIX   0
C4    1    0.315954    0.346585    0.649607    11.00000    0.09373    0.14234 =
         0.77483   -0.15660    0.16949   -0.01783
AFIX  43
H4    2    0.275791    0.355325    0.655493    11.00000   -1.20000
AFIX   0
C5    1    0.368974    0.369242    0.645658    11.00000    0.08421    0.13890 =
         0.76113   -0.16468    0.10764   -0.01268
AFIX  43
H5    2    0.361138    0.392814    0.647162    11.00000   -1.20000
AFIX   0
 
H1WA  2    0.580943    0.206285    0.620550    11.00000    0.09653
H1WB  2    0.517932    0.223454    0.624771    11.00000   -1.20000
PART 1
H2W   2    0.735471    0.318497    0.486204    11.00000   -1.20000
HKLF 4
 
REM  mo_lixx170303_1_0m_a.res in Ibam
REM R1 =  0.0557 for   13180 Fo > 4sig(Fo)  and  0.0769 for all   18225 data
REM    722 parameters refined using     20 restraints
 
END  
     
WGHT      0.0810    355.1178 

REM Highest difference peak  1.357,  deepest hole -1.338,  1-sigma level  0.122
Q1    1   0.6414  0.3735  0.6690  11.00000  0.05    1.36
Q2    1   0.6104  0.4020  0.5689  11.00000  0.05    1.15
Q3    1   0.6916  0.2890  0.6516  11.00000  0.05    1.12
Q4    1   0.6483  0.3376  0.5510  11.00000  0.05    1.01
Q5    1   0.8122  0.3186  0.5000  10.50000  0.05    0.84
Q6    1   0.7920  0.3454  0.5000  10.50000  0.05    0.75
Q7    1   0.5738  0.3323  0.6174  11.00000  0.05    0.73
Q8    1   0.8295  0.3715  0.5000  10.50000  0.05    0.72
Q9    1   0.7853  0.3707  0.4917  11.00000  0.05    0.71
Q10   1   0.6962  0.2731  0.5883  11.00000  0.05    0.68
Q11   1   0.6157  0.4205  0.6313  11.00000  0.05    0.66
Q12   1   0.6049  0.4226  0.6389  11.00000  0.05    0.63
Q13   1   0.6799  0.3555  0.6808  11.00000  0.05    0.60
Q14   1   0.7116  0.3442  0.5000  10.50000  0.05    0.60
Q15   1   0.8141  0.3496  0.6737  11.00000  0.05    0.57
Q16   1   0.8509  0.4408  0.5975  11.00000  0.05    0.56
Q17   1   0.7163  0.4604  0.5897  11.00000  0.05    0.54
Q18   1   0.7614  0.3960  0.5308  11.00000  0.05    0.51
Q19   1   0.7384  0.4186  0.7103  11.00000  0.05    0.51
Q20   1   0.4688  0.2516  0.6180  11.00000  0.05    0.51
Q21   1   0.8015  0.3726  0.7093  11.00000  0.05    0.50
Q22   1   0.4559  0.2754  0.6209  11.00000  0.05    0.50
Q23   1   0.7230  0.4256  0.5394  11.00000  0.05    0.49
Q24   1   0.5860  0.3838  0.6974  11.00000  0.05    0.49
Q25   1   0.7605  0.4003  0.5000  10.50000  0.05    0.48
Q26   1   0.4592  0.3175  0.6583  11.00000  0.05    0.48
Q27   1   0.6408  0.3475  0.6873  11.00000  0.05    0.48
Q28   1   0.7422  0.3160  0.5000  10.50000  0.05    0.48
Q29   1   1.0004  0.3182  0.6110  11.00000  0.05    0.47
Q30   1   0.5100  0.3184  0.6195  11.00000  0.05    0.47
Q31   1   0.8177  0.3373  0.4775  11.00000  0.05    0.47
Q32   1   0.7083  0.5058  0.5898  11.00000  0.05    0.47
Q33   1   0.8942  0.3818  0.6461  11.00000  0.05    0.47
Q34   1   0.8084  0.3984  0.5000  10.50000  0.05    0.47
Q35   1   0.7664  0.4116  0.6723  11.00000  0.05    0.47
Q36   1   0.7642  0.4357  0.6518  11.00000  0.05    0.46
Q37   1   0.8120  0.4006  0.5291  11.00000  0.05    0.46
Q38   1   0.5875  0.3368  0.6497  11.00000  0.05    0.46
Q39   1   0.7421  0.3842  0.7039  11.00000  0.05    0.45
Q40   1   0.4599  0.2498  0.6484  11.00000  0.05    0.45
Q41   1   0.6220  0.3826  0.6908  11.00000  0.05    0.45
Q42   1   0.7322  0.4120  0.5196  11.00000  0.05    0.44
Q43   1   0.7609  0.3793  0.7175  11.00000  0.05    0.44
Q44   1   0.8450  0.3915  0.7010  11.00000  0.05    0.44
Q45   1   0.6026  0.3810  0.6929  11.00000  0.05    0.44
Q46   1   0.6251  0.3410  0.5311  11.00000  0.05    0.44
Q47   1   0.7961  0.4023  0.7040  11.00000  0.05    0.44
Q48   1   0.8265  0.3905  0.5205  11.00000  0.05    0.44
Q49   1   0.7292  0.4564  0.5081  11.00000  0.05    0.43
Q50   1   0.4551  0.3444  0.6684  11.00000  0.05    0.43
Q51   1   0.8898  0.3043  0.6694  11.00000  0.05    0.43
Q52   1   0.6706  0.3754  0.7090  11.00000  0.05    0.43
Q53   1   0.7888  0.4374  0.6915  11.00000  0.05    0.41
Q54   1   0.5386  0.2776  0.6112  11.00000  0.05    0.41
Q55   1   0.6469  0.2077  0.6203  11.00000  0.05    0.41
Q56   1   0.7887  0.4521  0.5000  10.50000  0.05    0.41
Q57   1   0.4886  0.2996  0.6426  11.00000  0.05    0.41
Q58   1   0.8285  0.4046  0.4939  11.00000  0.05    0.41
Q59   1   0.6168  0.3523  0.6006  11.00000  0.05    0.40
Q60   1   0.7617  0.4161  0.7393  11.00000  0.05    0.40
Q61   1   0.4803  0.2890  0.6112  11.00000  0.05    0.40
Q62   1   0.6271  0.3832  0.7180  11.00000  0.05    0.40
Q63   1   0.6633  0.2563  0.6597  11.00000  0.05    0.40
Q64   1   0.9183  0.3385  0.7196  11.00000  0.05    0.40
Q65   1   0.5804  0.3578  0.7189  11.00000  0.05    0.39
Q66   1   0.7938  0.2770  0.6012  11.00000  0.05    0.39
Q67   1   0.7580  0.4474  0.7508  11.00000  0.05    0.39
Q68   1   0.8115  0.2812  0.5000  10.50000  0.05    0.39
Q69   1   0.8520  0.3400  0.7020  11.00000  0.05    0.39
Q70   1   0.8349  0.3809  0.6813  11.00000  0.05    0.39
Q71   1   0.5020  0.2560  0.6295  11.00000  0.05    0.39
Q72   1   0.8272  0.2969  0.6484  11.00000  0.05    0.39
Q73   1   0.8620  0.3246  0.7207  11.00000  0.05    0.38
Q74   1   0.6151  0.3899  0.7103  11.00000  0.05    0.38
Q75   1   0.6445  0.2856  0.6202  11.00000  0.05    0.38
Q76   1   0.6862  0.2320  0.5828  11.00000  0.05    0.38
Q77   1   0.8578  0.3264  0.6683  11.00000  0.05    0.38
Q78   1   0.7674  0.4438  0.6992  11.00000  0.05    0.38
Q79   1   0.8658  0.2929  0.5697  11.00000  0.05    0.38
Q80   1   0.3963  0.2557  0.6381  11.00000  0.05    0.38
Q81   1   0.6242  0.4118  0.6789  11.00000  0.05    0.38
Q82   1   0.7047  0.3889  0.5368  11.00000  0.05    0.37
Q83   1   0.5976  0.3586  0.7023  11.00000  0.05    0.37
Q84   1   0.4053  0.2729  0.6570  11.00000  0.05    0.37
Q85   1   0.7213  0.3679  0.7186  11.00000  0.05    0.37
Q86   1   0.8130  0.3063  0.5383  11.00000  0.05    0.37
Q87   1   0.9085  0.2734  0.5906  11.00000  0.05    0.37
Q88   1   0.5989  0.3485  0.5804  11.00000  0.05    0.37
Q89   1   0.5298  0.2007  0.6286  11.00000  0.05    0.37
Q90   1   0.7876  0.4808  0.6885  11.00000  0.05    0.37
Q91   1   0.7552  0.3645  0.6789  11.00000  0.05    0.37
Q92   1   0.8757  0.4469  0.6691  11.00000  0.05    0.37
Q93   1   0.9301  0.2930  0.6511  11.00000  0.05    0.37
Q94   1   0.8215  0.4824  0.5636  11.00000  0.05    0.36
Q95   1   0.5220  0.1981  0.5883  11.00000  0.05    0.36
Q96   1   0.6469  0.3561  0.7105  11.00000  0.05    0.36
Q97   1   0.4483  0.3311  0.6100  11.00000  0.05    0.36
Q98   1   0.8180  0.4251  0.7169  11.00000  0.05    0.36
Q99   1   0.7144  0.3595  0.7032  11.00000  0.05    0.36
Q100  1   0.7948  0.4146  0.5496  11.00000  0.05    0.36
Q101  1   0.4919  0.3416  0.6277  11.00000  0.05    0.36
Q102  1   0.6486  0.3094  0.5000  10.50000  0.05    0.36
Q103  1   0.8301  0.3179  0.6271  11.00000  0.05    0.36
Q104  1   0.8792  0.4199  0.6194  11.00000  0.05    0.36
Q105  1   0.7899  0.4032  0.7321  11.00000  0.05    0.36
Q106  1   0.4640  0.3159  0.6204  11.00000  0.05    0.35
Q107  1   0.6367  0.2792  0.6599  11.00000  0.05    0.35
Q108  1   0.3699  0.4044  0.6390  11.00000  0.05    0.35
Q109  1   0.8364  0.3855  0.7187  11.00000  0.05    0.35
Q110  1   0.8355  0.2963  0.6796  11.00000  0.05    0.35
Q111  1   0.9316  0.4857  0.5804  11.00000  0.05    0.35
Q112  1   0.6736  0.3904  0.5419  11.00000  0.05    0.35
Q113  1   0.7225  0.4870  0.6088  11.00000  0.05    0.35
Q114  1   0.9617  0.3026  0.5805  11.00000  0.05    0.35
Q115  1   0.5854  0.3370  0.5603  11.00000  0.05    0.35
Q116  1   0.7327  0.3917  0.5592  11.00000  0.05    0.35
Q117  1   0.7005  0.3991  0.7026  11.00000  0.05    0.35
Q118  1   0.3792  0.2835  0.6357  11.00000  0.05    0.35
Q119  1   0.6962  0.4181  0.6889  11.00000  0.05    0.34
Q120  1   0.7326  0.5031  0.5718  11.00000  0.05    0.34
Q121  1   0.6305  0.2220  0.6398  11.00000  0.05    0.34
Q122  1   0.5246  0.3723  0.6083  11.00000  0.05    0.34
Q123  1   0.6837  0.4645  0.6205  11.00000  0.05    0.34
Q124  1   0.8640  0.3836  0.5474  11.00000  0.05    0.34
Q125  1   0.6785  0.4138  0.5520  11.00000  0.05    0.34
Q126  1   0.5448  0.3230  0.5501  11.00000  0.05    0.34
Q127  1   0.3700  0.2467  0.6592  11.00000  0.05    0.34
Q128  1   0.8428  0.4223  0.6832  11.00000  0.05    0.34
Q129  1   0.6401  0.3238  0.5711  11.00000  0.05    0.34
Q130  1   0.7255  0.4263  0.5000  10.50000  0.05    0.34
Q131  1   0.8660  0.2577  0.5660  11.00000  0.05    0.33
Q132  1   0.8158  0.4448  0.7073  11.00000  0.05    0.33
Q133  1   0.7260  0.5111  0.6082  11.00000  0.05    0.33
Q134  1   0.7233  0.4652  0.5379  11.00000  0.05    0.33
Q135  1   0.8351  0.4226  0.7120  11.00000  0.05    0.33
Q136  1   0.8496  0.2433  0.5814  11.00000  0.05    0.33
Q137  1   0.7513  0.4633  0.7003  11.00000  0.05    0.33
Q138  1   0.4178  0.2508  0.6068  11.00000  0.05    0.33
Q139  1   0.5634  0.1824  0.6096  11.00000  0.05    0.33
Q140  1   0.6985  0.2570  0.6904  11.00000  0.05    0.33
Q141  1   0.7125  0.2748  0.6702  11.00000  0.05    0.33
Q142  1   0.8879  0.3574  0.7082  11.00000  0.05    0.33
Q143  1   0.5887  0.3172  0.5000  10.50000  0.05    0.33
Q144  1   0.4167  0.3125  0.6402  11.00000  0.05    0.32
Q145  1   0.7490  0.5117  0.5803  11.00000  0.05    0.32
Q146  1   0.9703  0.3093  0.5878  11.00000  0.05    0.32
Q147  1   0.5094  0.2760  0.6521  11.00000  0.05    0.32
Q148  1   0.7926  0.4503  0.5683  11.00000  0.05    0.32
Q149  1   0.7374  0.4666  0.6703  11.00000  0.05    0.32
Q150  1   0.6212  0.4423  0.6709  11.00000  0.05    0.32
Q151  1   0.5258  0.2372  0.6067  11.00000  0.05    0.32
Q152  1   0.5687  0.3032  0.5997  11.00000  0.05    0.32
Q153  1   0.6750  0.3158  0.5702  11.00000  0.05    0.32
Q154  1   0.5594  0.2717  0.6219  11.00000  0.05    0.32
Q155  1   0.4293  0.3378  0.6306  11.00000  0.05    0.32
Q156  1   0.5901  0.2358  0.6205  11.00000  0.05    0.31
Q157  1   0.8559  0.3170  0.6411  11.00000  0.05    0.31
Q158  1   0.7715  0.4745  0.6816  11.00000  0.05    0.31
Q159  1   0.9103  0.4535  0.6081  11.00000  0.05    0.31
Q160  1   0.5723  0.2094  0.6000  11.00000  0.05    0.31
Q161  1   0.5917  0.3375  0.6827  11.00000  0.05    0.31
Q162  1   0.7801  0.4388  0.7276  11.00000  0.05    0.31
Q163  1   0.5501  0.2652  0.6426  11.00000  0.05    0.31
Q164  1   0.6088  0.3246  0.5123  11.00000  0.05    0.31
Q165  1   0.3994  0.3573  0.6693  11.00000  0.05    0.31
Q166  1   0.5896  0.2974  0.5620  11.00000  0.05    0.31
Q167  1   0.6518  0.2950  0.6001  11.00000  0.05    0.31
Q168  1   0.5812  0.4117  0.6888  11.00000  0.05    0.31
Q169  1   0.7040  0.4589  0.6427  11.00000  0.05    0.31
Q170  1   0.8610  0.2751  0.6610  11.00000  0.05    0.31
Q171  1   0.7683  0.5059  0.6021  11.00000  0.05    0.31
Q172  1   0.6222  0.2902  0.5815  11.00000  0.05    0.31
Q173  1   0.4033  0.3768  0.6294  11.00000  0.05    0.30
Q174  1   0.8385  0.4779  0.6794  11.00000  0.05    0.30
Q175  1   0.5192  0.3424  0.6003  11.00000  0.05    0.30
Q176  1   0.8166  0.3247  0.6903  11.00000  0.05    0.30
Q177  1   0.8895  0.2916  0.6494  11.00000  0.05    0.30
Q178  1   0.8527  0.3348  0.5471  11.00000  0.05    0.30
Q179  1   0.5331  0.4308  0.6486  11.00000  0.05    0.30
Q180  1   0.5676  0.3446  0.6009  11.00000  0.05    0.30
Q181  1   0.7063  0.4847  0.6288  11.00000  0.05    0.30
Q182  1   0.9109  0.2881  0.5479  11.00000  0.05    0.30
Q183  1   0.7640  0.2530  0.6009  11.00000  0.05    0.30
Q184  1   0.6314  0.2655  0.6411  11.00000  0.05    0.30
Q185  1   0.6815  0.4227  0.6637  11.00000  0.05    0.30
Q186  1   0.6171  0.3175  0.5177  11.00000  0.05    0.30
Q187  1   0.5590  0.2585  0.6468  11.00000  0.05    0.30
Q188  1   0.8681  0.4462  0.6899  11.00000  0.05    0.30
Q189  1   0.7023  0.4518  0.5519  11.00000  0.05    0.29
Q190  1   0.5293  0.3389  0.5710  11.00000  0.05    0.29
Q191  1   0.8172  0.5147  0.5000  10.50000  0.05    0.29
Q192  1   0.3795  0.3573  0.6201  11.00000  0.05    0.29
Q193  1   0.7352  0.4449  0.7203  11.00000  0.05    0.29
Q194  1   0.7038  0.4370  0.6631  11.00000  0.05    0.29
Q195  1   0.6639  0.4055  0.6769  11.00000  0.05    0.29
Q196  1   0.8825  0.4798  0.5799  11.00000  0.05    0.29
Q197  1   0.8431  0.2964  0.5108  11.00000  0.05    0.29
Q198  1   0.6498  0.2775  0.5627  11.00000  0.05    0.29
Q199  1   0.5882  0.2093  0.6413  11.00000  0.05    0.29
Q200  1   0.3683  0.2944  0.6399  11.00000  0.05    0.29

  REM The information below was added by Olex2.
  REM
  REM R1 = 0.0557 for 13180 Fo > 4sig(Fo) and 0.0769 for all 112383 data
  REM n/a parameters refined using n/a restraints
  REM Highest difference peak 1.36, deepest hole -1.34
  REM Mean Shift 0, Max Shift 0.002.

  REM +++ Tabular Listing of Refinement Information +++
  REM R1_all = 0.0769
  REM R1_gt = 0.0557
  REM wR_ref = 0.1764
  REM GOOF = 1.044
  REM Shift_max = 0.002
  REM Shift_mean = 0
  REM Reflections_all = 112383
  REM Reflections_gt = 13180
  REM Parameters = n/a
  REM Hole = -1.34
  REM Peak = 1.36
  REM Flack = n/a

  
;
_cod_data_source_file            c7cc05552h2.cif
_cod_data_source_block           mo_lixx170303_1_0m_sq
_cod_original_cell_volume        40648(6)
_cod_database_code               7120552
_shelx_shelxl_version_number     2014/7
_shelx_space_group_comment
;
The symmetry employed for this shelxl refinement is uniquely defined
by the following loop, which should always be used as a source of
symmetry information in preference to the above space-group names.
They are only intended as comments.
;
_olex2_refinement_description
;
1. Fixed Uiso
 At 1.2 times of:
  All H(H,H) groups, All C(H) groups
 At 1.5 times of:
  All O(H) groups
2. Restrained distances
 O1W-H1WA
 0.8 with sigma of 0.05
 H1WB-O1W
 0.8 with sigma of 0.02
 N3-H1WB
 2 with sigma of 0.02
 O36-H36
 0.85 with sigma of 0.01
 O17-H17
 0.85 with sigma of 0.01
 H2W-O2W
 0.8 with sigma of 0.02
 H2W-O35_$1
 1.86 with sigma of 0.02
 Mo11-H36
 2.224216 with sigma of 0.02
 Mo10-H36
 2.598454 with sigma of 0.02
 Mo5-H17
 2.229708 with sigma of 0.02
 Mo6-H17
 2.569345 with sigma of 0.02
3. Restrained planarity
 O1W, N3, N2, N1
 with sigma of 0.03
 O1W, H1WB, N3, N2, N1
 with sigma of 0.1
4. Uiso/Uaniso restraints and constraints
Uanis(C4) \\sim Ueq: with sigma of 0.1 and sigma for terminal atoms of 0.2
5.a Aromatic/amide H refined with riding coordinates:
 C13(H13), C12(H12), C8(H8), C9(H9), C3(H3), C6(H6), C4(H4), C5(H5)
;
_shelx_fab_file
;
 6 0 0 55.93 0.00
 8 0 0 31.56 0.00
 10 0 0 3.32 0.00
 12 0 0 12.09 0.00
 14 0 0 -12.84 0.00
 16 0 0 16.25 0.00
 18 0 0 0.08 0.00
 20 0 0 -26.45 0.00
 22 0 0 19.74 0.00
 24 0 0 13.95 0.00
 3 1 0 -140.74 0.00
 5 1 0 -128.63 0.00
 7 1 0 -47.79 0.00
 9 1 0 -9.19 0.00
 11 1 0 23.41 0.00
 13 1 0 7.07 0.00
 15 1 0 -2.56 0.00
 17 1 0 -5.21 0.00
 19 1 0 3.01 0.00
 21 1 0 13.83 0.00
 23 1 0 -12.50 0.00
 2 2 0 120.35 0.00
 4 2 0 -294.42 0.00
 6 2 0 -13.16 0.00
 8 2 0 11.22 0.00
 10 2 0 1.61 0.00
 12 2 0 15.52 0.00
 14 2 0 10.22 0.00
 16 2 0 13.55 0.00
 18 2 0 -3.66 0.00
 20 2 0 -15.09 0.00
 22 2 0 14.01 0.00
 24 2 0 36.40 0.00
 3 3 0 -137.46 0.00
 5 3 0 -89.16 0.00
 7 3 0 40.25 0.00
 9 3 0 -9.24 0.00
 11 3 0 -42.14 0.00
 13 3 0 14.80 0.00
 15 3 0 8.93 0.00
 17 3 0 -2.36 0.00
 19 3 0 -2.66 0.00
 21 3 0 -0.92 0.00
 23 3 0 -9.79 0.00
 2 4 0 639.02 0.00
 6 4 0 20.94 0.00
 8 4 0 -21.32 0.00
 10 4 0 4.21 0.00
 12 4 0 -9.97 0.00
 14 4 0 5.06 0.00
 16 4 0 -5.85 0.00
 18 4 0 -10.20 0.00
 20 4 0 2.26 0.00
 22 4 0 -10.78 0.00
 24 4 0 20.25 0.00
 1 5 0 352.50 0.00
 3 5 0 -54.40 0.00
 5 5 0 -82.02 0.00
 7 5 0 -10.31 0.00
 9 5 0 -10.75 0.00
 11 5 0 -3.51 0.00
 13 5 0 2.45 0.00
 15 5 0 22.96 0.00
 17 5 0 4.82 0.00
 19 5 0 10.09 0.00
 21 5 0 -15.33 0.00
 23 5 0 16.84 0.00
 0 6 0 39.74 0.00
 4 6 0 -119.32 0.00
 6 6 0 -49.26 0.00
 8 6 0 -19.77 0.00
 10 6 0 -29.81 0.00
 12 6 0 -6.98 0.00
 14 6 0 20.22 0.00
 16 6 0 10.94 0.00
 18 6 0 10.74 0.00
 20 6 0 7.34 0.00
 22 6 0 7.92 0.00
 1 7 0 17.65 0.00
 3 7 0 225.09 0.00
 5 7 0 60.74 0.00
 7 7 0 -24.49 0.00
 9 7 0 -0.17 0.00
 11 7 0 2.78 0.00
 13 7 0 -5.24 0.00
 15 7 0 -6.35 0.00
 17 7 0 5.95 0.00
 19 7 0 -7.37 0.00
 21 7 0 5.73 0.00
 23 7 0 -7.76 0.00
 0 8 0 151.00 0.00
 2 8 0 239.40 0.00
 4 8 0 176.17 0.00
 6 8 0 80.65 0.00
 8 8 0 16.06 0.00
 10 8 0 -44.69 0.00
 12 8 0 -37.98 0.00
 14 8 0 -11.55 0.00
 16 8 0 4.98 0.00
 18 8 0 -13.66 0.00
 20 8 0 -2.55 0.00
 22 8 0 -10.26 0.00
 1 9 0 137.18 0.00
 3 9 0 60.45 0.00
 5 9 0 37.35 0.00
 7 9 0 -2.69 0.00
 9 9 0 19.52 0.00
 11 9 0 8.56 0.00
 13 9 0 -5.37 0.00
 15 9 0 3.47 0.00
 17 9 0 5.29 0.00
 19 9 0 5.09 0.00
 21 9 0 -11.81 0.00
 23 9 0 3.90 0.00
 0 10 0 -116.89 0.00
 2 10 0 99.00 0.00
 4 10 0 27.00 0.00
 6 10 0 -38.37 0.00
 8 10 0 -54.59 0.00
 10 10 0 7.89 0.00
 12 10 0 -0.11 0.00
 14 10 0 -21.20 0.00
 16 10 0 11.76 0.00
 18 10 0 2.60 0.00
 20 10 0 -1.40 0.00
 22 10 0 -2.17 0.00
 1 11 0 122.63 0.00
 3 11 0 -76.44 0.00
 5 11 0 10.25 0.00
 7 11 0 -23.44 0.00
 9 11 0 -25.91 0.00
 11 11 0 -12.42 0.00
 13 11 0 6.08 0.00
 15 11 0 9.08 0.00
 17 11 0 6.64 0.00
 19 11 0 10.83 0.00
 21 11 0 3.27 0.00
 23 11 0 -16.61 0.00
 0 12 0 -101.15 0.00
 2 12 0 53.90 0.00
 4 12 0 65.74 0.00
 6 12 0 55.30 0.00
 8 12 0 45.14 0.00
 10 12 0 0.33 0.00
 12 12 0 -0.06 0.00
 14 12 0 -7.03 0.00
 16 12 0 13.94 0.00
 18 12 0 10.95 0.00
 20 12 0 -4.33 0.00
 22 12 0 -16.01 0.00
 1 13 0 9.03 0.00
 3 13 0 54.12 0.00
 5 13 0 20.45 0.00
 7 13 0 32.41 0.00
 9 13 0 17.05 0.00
 11 13 0 -3.03 0.00
 13 13 0 -4.18 0.00
 15 13 0 -10.98 0.00
 17 13 0 24.79 0.00
 19 13 0 -4.80 0.00
 21 13 0 -8.31 0.00
 23 13 0 9.29 0.00
 0 14 0 -42.77 0.00
 2 14 0 10.24 0.00
 4 14 0 23.35 0.00
 6 14 0 15.94 0.00
 8 14 0 -13.82 0.00
 10 14 0 -18.22 0.00
 12 14 0 -12.41 0.00
 14 14 0 0.38 0.00
 16 14 0 2.77 0.00
 18 14 0 12.33 0.00
 20 14 0 -7.74 0.00
 22 14 0 -18.78 0.00
 1 15 0 10.13 0.00
 3 15 0 7.68 0.00
 5 15 0 -3.23 0.00
 7 15 0 -30.60 0.00
 9 15 0 -2.18 0.00
 11 15 0 6.78 0.00
 13 15 0 -3.35 0.00
 15 15 0 -9.44 0.00
 17 15 0 -9.38 0.00
 19 15 0 -4.78 0.00
 21 15 0 -6.29 0.00
 0 16 0 -62.44 0.00
 2 16 0 -11.99 0.00
 4 16 0 3.74 0.00
 6 16 0 12.45 0.00
 8 16 0 11.18 0.00
 10 16 0 11.71 0.00
 12 16 0 13.13 0.00
 14 16 0 11.36 0.00
 16 16 0 -5.45 0.00
 18 16 0 -4.37 0.00
 20 16 0 17.29 0.00
 22 16 0 3.22 0.00
 1 17 0 -35.22 0.00
 3 17 0 -3.15 0.00
 5 17 0 9.34 0.00
 7 17 0 27.92 0.00
 9 17 0 0.14 0.00
 11 17 0 2.19 0.00
 13 17 0 4.07 0.00
 15 17 0 1.07 0.00
 17 17 0 -9.14 0.00
 19 17 0 -0.27 0.00
 21 17 0 3.33 0.00
 0 18 0 -36.15 0.00
 2 18 0 8.07 0.00
 4 18 0 41.06 0.00
 6 18 0 0.02 0.00
 8 18 0 6.37 0.00
 10 18 0 6.71 0.00
 12 18 0 -3.14 0.00
 14 18 0 8.69 0.00
 16 18 0 14.29 0.00
 18 18 0 -9.53 0.00
 20 18 0 -17.07 0.00
 22 18 0 -0.42 0.00
 1 19 0 -3.78 0.00
 3 19 0 10.84 0.00
 5 19 0 1.60 0.00
 7 19 0 2.24 0.00
 9 19 0 -20.72 0.00
 11 19 0 -15.27 0.00
 13 19 0 4.52 0.00
 15 19 0 -21.62 0.00
 17 19 0 -23.75 0.00
 19 19 0 -26.33 0.00
 21 19 0 -16.53 0.00
 0 20 0 19.96 0.00
 2 20 0 8.22 0.00
 4 20 0 1.90 0.00
 6 20 0 0.00 0.00
 8 20 0 8.47 0.00
 10 20 0 5.76 0.00
 12 20 0 6.38 0.00
 14 20 0 -2.29 0.00
 16 20 0 4.92 0.00
 18 20 0 2.43 0.00
 20 20 0 17.58 0.00
 1 21 0 7.32 0.00
 3 21 0 12.93 0.00
 5 21 0 -23.43 0.00
 7 21 0 -28.01 0.00
 9 21 0 3.83 0.00
 11 21 0 24.30 0.00
 13 21 0 13.69 0.00
 15 21 0 -4.55 0.00
 17 21 0 9.92 0.00
 19 21 0 25.10 0.00
 21 21 0 -10.55 0.00
 0 22 0 12.84 0.00
 2 22 0 25.15 0.00
 4 22 0 17.29 0.00
 6 22 0 9.17 0.00
 8 22 0 8.91 0.00
 10 22 0 -6.95 0.00
 12 22 0 8.29 0.00
 14 22 0 0.84 0.00
 16 22 0 -14.24 0.00
 18 22 0 0.53 0.00
 20 22 0 21.02 0.00
 1 23 0 -17.06 0.00
 3 23 0 -11.31 0.00
 5 23 0 5.64 0.00
 7 23 0 4.11 0.00
 9 23 0 1.43 0.00
 11 23 0 10.70 0.00
 13 23 0 3.27 0.00
 15 23 0 -9.65 0.00
 17 23 0 -2.34 0.00
 19 23 0 -0.94 0.00
 0 24 0 -3.29 0.00
 2 24 0 -1.35 0.00
 4 24 0 14.54 0.00
 6 24 0 -2.37 0.00
 8 24 0 20.08 0.00
 10 24 0 15.14 0.00
 12 24 0 4.05 0.00
 14 24 0 11.17 0.00
 16 24 0 -12.14 0.00
 18 24 0 12.09 0.00
 20 24 0 -13.01 0.00
 1 25 0 4.10 0.00
 3 25 0 4.39 0.00
 5 25 0 -9.98 0.00
 7 25 0 -1.98 0.00
 9 25 0 2.00 0.00
 11 25 0 8.39 0.00
 13 25 0 3.90 0.00
 15 25 0 19.50 0.00
 17 25 0 16.80 0.00
 19 25 0 -31.53 0.00
 0 26 0 9.96 0.00
 2 26 0 17.16 0.00
 4 26 0 10.65 0.00
 6 26 0 -2.29 0.00
 8 26 0 3.67 0.00
 10 26 0 5.51 0.00
 12 26 0 10.59 0.00
 14 26 0 -17.01 0.00
 16 26 0 -21.84 0.00
 18 26 0 -9.82 0.00
 1 27 0 -9.59 0.00
 3 27 0 6.46 0.00
 5 27 0 19.88 0.00
 7 27 0 -6.10 0.00
 9 27 0 -9.60 0.00
 11 27 0 -7.25 0.00
 13 27 0 0.91 0.00
 15 27 0 -15.23 0.00
 17 27 0 -9.91 0.00
 19 27 0 2.21 0.00
 0 28 0 -8.75 0.00
 2 28 0 7.49 0.00
 4 28 0 10.30 0.00
 6 28 0 24.57 0.00
 8 28 0 8.65 0.00
 10 28 0 -10.63 0.00
 12 28 0 -3.49 0.00
 14 28 0 -0.01 0.00
 16 28 0 2.57 0.00
 18 28 0 7.64 0.00
 1 29 0 5.12 0.00
 3 29 0 5.24 0.00
 5 29 0 2.36 0.00
 7 29 0 -1.35 0.00
 9 29 0 -0.88 0.00
 11 29 0 -5.12 0.00
 13 29 0 24.04 0.00
 15 29 0 -8.33 0.00
 17 29 0 7.24 0.00
 0 30 0 10.00 0.00
 2 30 0 -0.87 0.00
 4 30 0 10.52 0.00
 6 30 0 23.42 0.00
 8 30 0 23.85 0.00
 10 30 0 7.35 0.00
 12 30 0 8.62 0.00
 14 30 0 2.98 0.00
 16 30 0 -31.45 0.00
 18 30 0 -6.20 0.00
 1 31 0 22.54 0.00
 3 31 0 13.21 0.00
 5 31 0 -4.43 0.00
 7 31 0 14.43 0.00
 9 31 0 -2.16 0.00
 11 31 0 6.48 0.00
 13 31 0 9.29 0.00
 15 31 0 -5.73 0.00
 17 31 0 -9.24 0.00
 0 32 0 -8.42 0.00
 2 32 0 -5.29 0.00
 4 32 0 4.59 0.00
 6 32 0 -2.75 0.00
 8 32 0 4.14 0.00
 10 32 0 -15.03 0.00
 12 32 0 1.64 0.00
 14 32 0 8.67 0.00
 16 32 0 -5.81 0.00
 1 33 0 6.89 0.00
 3 33 0 -6.73 0.00
 5 33 0 18.27 0.00
 7 33 0 -2.75 0.00
 9 33 0 8.42 0.00
 11 33 0 2.59 0.00
 13 33 0 7.80 0.00
 15 33 0 -15.75 0.00
 0 34 0 -4.75 0.00
 2 34 0 -12.17 0.00
 4 34 0 8.00 0.00
 6 34 0 -8.27 0.00
 8 34 0 9.11 0.00
 10 34 0 17.00 0.00
 12 34 0 -6.29 0.00
 14 34 0 0.14 0.00
 16 34 0 -5.84 0.00
 1 35 0 7.36 0.00
 3 35 0 4.77 0.00
 5 35 0 26.36 0.00
 7 35 0 -19.82 0.00
 9 35 0 1.91 0.00
 11 35 0 12.39 0.00
 13 35 0 16.45 0.00
 15 35 0 -22.05 0.00
 0 36 0 29.89 0.00
 2 36 0 -16.18 0.00
 4 36 0 -13.81 0.00
 6 36 0 4.38 0.00
 8 36 0 16.28 0.00
 10 36 0 9.73 0.00
 12 36 0 -22.27 0.00
 14 36 0 6.94 0.00
 1 37 0 -9.30 0.00
 3 37 0 -9.75 0.00
 5 37 0 25.48 0.00
 7 37 0 6.97 0.00
 9 37 0 -3.05 0.00
 11 37 0 4.11 0.00
 13 37 0 1.97 0.00
 0 38 0 -7.73 0.00
 2 38 0 1.05 0.00
 4 38 0 -11.30 0.00
 6 38 0 1.75 0.00
 8 38 0 11.07 0.00
 10 38 0 30.60 0.00
 12 38 0 -0.30 0.00
 1 39 0 9.93 0.00
 3 39 0 -6.31 0.00
 5 39 0 2.93 0.00
 7 39 0 -10.63 0.00
 9 39 0 -8.08 0.00
 11 39 0 -0.40 0.00
 0 40 0 -12.28 0.00
 2 40 0 23.32 0.00
 4 40 0 -12.22 0.00
 6 40 0 -23.31 0.00
 8 40 0 -2.49 0.00
 10 40 0 -4.68 0.00
 12 40 0 2.89 0.00
 1 41 0 -3.64 0.00
 3 41 0 -13.96 0.00
 5 41 0 0.80 0.00
 7 41 0 -18.25 0.00
 9 41 0 -3.78 0.00
 11 41 0 20.64 0.00
 0 42 0 -14.81 0.00
 2 42 0 29.38 0.00
 4 42 0 4.80 0.00
 6 42 0 -2.21 0.00
 8 42 0 -6.11 0.00
 10 42 0 -9.56 0.00
 1 43 0 -27.93 0.00
 3 43 0 -23.47 0.00
 5 43 0 -3.79 0.00
 7 43 0 17.77 0.00
 0 44 0 -23.21 0.00
 2 44 0 -16.22 0.00
 4 44 0 18.00 0.00
 6 44 0 5.69 0.00
 1 45 0 15.36 0.00
 3 45 0 -7.69 0.00
 5 45 0 -9.01 0.00
 0 46 0 -27.43 0.00
 4 1 1 -200.99 0.00
 6 1 1 -59.71 0.00
 8 1 1 8.59 0.00
 10 1 1 5.92 0.00
 12 1 1 0.04 0.00
 14 1 1 -0.35 0.00
 16 1 1 -2.74 0.00
 18 1 1 0.29 0.00
 20 1 1 -0.17 0.00
 22 1 1 -7.81 0.00
 24 1 1 -2.69 0.00
 3 2 1 -318.83 0.00
 5 2 1 67.25 0.00
 7 2 1 28.41 0.00
 9 2 1 14.62 0.00
 11 2 1 17.69 0.00
 13 2 1 10.47 0.00
 15 2 1 -1.65 0.00
 17 2 1 -6.45 0.00
 19 2 1 -0.80 0.00
 21 2 1 16.64 0.00
 23 2 1 -22.75 0.00
 4 3 1 64.37 0.00
 6 3 1 -41.44 0.00
 8 3 1 6.23 0.00
 10 3 1 -22.20 0.00
 12 3 1 17.23 0.00
 14 3 1 1.98 0.00
 16 3 1 -10.41 0.00
 18 3 1 -0.89 0.00
 20 3 1 22.51 0.00
 22 3 1 1.90 0.00
 24 3 1 19.97 0.00
 3 4 1 -38.92 0.00
 5 4 1 23.45 0.00
 7 4 1 -14.65 0.00
 9 4 1 -9.82 0.00
 11 4 1 22.98 0.00
 13 4 1 1.07 0.00
 15 4 1 -5.47 0.00
 17 4 1 -9.21 0.00
 19 4 1 4.09 0.00
 21 4 1 14.44 0.00
 23 4 1 -2.81 0.00
 2 5 1 83.63 0.00
 4 5 1 -12.86 0.00
 6 5 1 -0.50 0.00
 8 5 1 -28.26 0.00
 10 5 1 -18.40 0.00
 12 5 1 13.58 0.00
 14 5 1 -1.59 0.00
 16 5 1 5.19 0.00
 18 5 1 5.66 0.00
 20 5 1 3.01 0.00
 22 5 1 -3.29 0.00
 1 6 1 -311.68 0.00
 5 6 1 -207.60 0.00
 7 6 1 -32.33 0.00
 9 6 1 11.79 0.00
 11 6 1 13.72 0.00
 13 6 1 1.68 0.00
 15 6 1 -4.74 0.00
 17 6 1 3.86 0.00
 19 6 1 -10.69 0.00
 21 6 1 4.99 0.00
 23 6 1 -4.17 0.00
 2 7 1 -133.73 0.00
 4 7 1 -18.37 0.00
 6 7 1 23.06 0.00
 8 7 1 -1.45 0.00
 10 7 1 10.02 0.00
 12 7 1 -13.19 0.00
 14 7 1 -21.47 0.00
 16 7 1 -4.22 0.00
 18 7 1 0.81 0.00
 20 7 1 -7.62 0.00
 22 7 1 4.85 0.00
 1 8 1 -71.31 0.00
 3 8 1 -56.32 0.00
 5 8 1 29.96 0.00
 7 8 1 11.77 0.00
 9 8 1 7.90 0.00
 11 8 1 0.46 0.00
 13 8 1 24.43 0.00
 15 8 1 2.79 0.00
 17 8 1 -4.80 0.00
 19 8 1 -8.94 0.00
 21 8 1 1.73 0.00
 23 8 1 -11.81 0.00
 2 9 1 107.15 0.00
 4 9 1 -10.43 0.00
 6 9 1 -13.48 0.00
 8 9 1 9.04 0.00
 10 9 1 7.88 0.00
 12 9 1 0.24 0.00
 14 9 1 -6.48 0.00
 16 9 1 -0.13 0.00
 18 9 1 -7.90 0.00
 20 9 1 1.98 0.00
 22 9 1 0.52 0.00
 1 10 1 -78.55 0.00
 3 10 1 -50.94 0.00
 5 10 1 -58.75 0.00
 7 10 1 -50.91 0.00
 9 10 1 -25.02 0.00
 11 10 1 -2.13 0.00
 13 10 1 -7.21 0.00
 15 10 1 3.19 0.00
 17 10 1 13.41 0.00
 19 10 1 4.06 0.00
 21 10 1 1.17 0.00
 23 10 1 8.14 0.00
 2 11 1 -27.89 0.00
 4 11 1 -38.26 0.00
 6 11 1 -9.48 0.00
 8 11 1 1.49 0.00
 10 11 1 -11.06 0.00
 12 11 1 -0.50 0.00
 14 11 1 10.81 0.00
 16 11 1 -5.47 0.00
 18 11 1 17.98 0.00
 20 11 1 -0.44 0.00
 22 11 1 -1.16 0.00
 1 12 1 -1.67 0.00
 3 12 1 -16.50 0.00
 5 12 1 31.63 0.00
 7 12 1 26.30 0.00
 9 12 1 32.66 0.00
 11 12 1 20.33 0.00
 13 12 1 -3.33 0.00
 15 12 1 3.78 0.00
 17 12 1 8.08 0.00
 19 12 1 11.91 0.00
 21 12 1 -3.51 0.00
 23 12 1 -9.28 0.00
 2 13 1 -14.21 0.00
 4 13 1 48.71 0.00
 6 13 1 21.30 0.00
 8 13 1 4.69 0.00
 10 13 1 -3.62 0.00
 12 13 1 -6.91 0.00
 14 13 1 0.97 0.00
 16 13 1 16.39 0.00
 18 13 1 -3.65 0.00
 20 13 1 -26.71 0.00
 22 13 1 -21.74 0.00
 1 14 1 10.51 0.00
 3 14 1 16.12 0.00
 5 14 1 -4.86 0.00
 7 14 1 -30.49 0.00
 9 14 1 -17.68 0.00
 11 14 1 -14.13 0.00
 13 14 1 -5.34 0.00
 15 14 1 2.63 0.00
 17 14 1 -8.96 0.00
 19 14 1 -6.74 0.00
 21 14 1 12.54 0.00
 2 15 1 12.41 0.00
 4 15 1 11.73 0.00
 6 15 1 3.25 0.00
 8 15 1 -9.31 0.00
 10 15 1 -0.06 0.00
 12 15 1 0.03 0.00
 14 15 1 -4.64 0.00
 16 15 1 -0.18 0.00
 18 15 1 -10.58 0.00
 20 15 1 6.72 0.00
 22 15 1 15.77 0.00
 1 16 1 8.57 0.00
 3 16 1 -19.27 0.00
 5 16 1 2.41 0.00
 7 16 1 4.17 0.00
 9 16 1 5.70 0.00
 11 16 1 14.61 0.00
 13 16 1 3.99 0.00
 15 16 1 14.68 0.00
 17 16 1 -5.61 0.00
 19 16 1 -12.25 0.00
 21 16 1 -2.07 0.00
 2 17 1 -5.76 0.00
 4 17 1 5.67 0.00
 6 17 1 23.37 0.00
 8 17 1 38.17 0.00
 10 17 1 13.48 0.00
 12 17 1 10.43 0.00
 14 17 1 9.18 0.00
 16 17 1 2.69 0.00
 18 17 1 2.44 0.00
 20 17 1 12.38 0.00
 22 17 1 0.38 0.00
 1 18 1 3.29 0.00
 3 18 1 4.91 0.00
 5 18 1 14.63 0.00
 7 18 1 -16.25 0.00
 9 18 1 -11.25 0.00
 11 18 1 -8.57 0.00
 13 18 1 -14.94 0.00
 15 18 1 -11.50 0.00
 17 18 1 11.35 0.00
 19 18 1 1.40 0.00
 21 18 1 -4.89 0.00
 2 19 1 9.39 0.00
 4 19 1 23.39 0.00
 6 19 1 21.01 0.00
 8 19 1 -20.08 0.00
 10 19 1 -17.40 0.00
 12 19 1 -4.49 0.00
 14 19 1 1.95 0.00
 16 19 1 4.52 0.00
 18 19 1 -6.19 0.00
 20 19 1 -5.11 0.00
 1 20 1 12.75 0.00
 3 20 1 9.83 0.00
 5 20 1 -6.14 0.00
 7 20 1 9.70 0.00
 9 20 1 6.12 0.00
 11 20 1 -1.09 0.00
 13 20 1 2.80 0.00
 15 20 1 10.93 0.00
 17 20 1 -3.00 0.00
 19 20 1 -13.28 0.00
 21 20 1 9.76 0.00
 2 21 1 9.53 0.00
 4 21 1 3.17 0.00
 6 21 1 9.51 0.00
 8 21 1 1.64 0.00
 10 21 1 4.02 0.00
 12 21 1 6.65 0.00
 14 21 1 -2.03 0.00
 16 21 1 18.33 0.00
 18 21 1 -0.16 0.00
 20 21 1 -3.45 0.00
 1 22 1 -4.12 0.00
 3 22 1 -8.76 0.00
 5 22 1 11.46 0.00
 7 22 1 -10.96 0.00
 9 22 1 -4.11 0.00
 11 22 1 -12.04 0.00
 13 22 1 -5.23 0.00
 15 22 1 23.39 0.00
 17 22 1 7.60 0.00
 19 22 1 12.35 0.00
 21 22 1 -6.91 0.00
 2 23 1 12.32 0.00
 4 23 1 -1.35 0.00
 6 23 1 -7.68 0.00
 8 23 1 -5.01 0.00
 10 23 1 8.74 0.00
 12 23 1 10.35 0.00
 14 23 1 1.32 0.00
 16 23 1 -0.74 0.00
 18 23 1 1.68 0.00
 20 23 1 -5.39 0.00
 1 24 1 10.48 0.00
 3 24 1 14.93 0.00
 5 24 1 -2.53 0.00
 7 24 1 -16.41 0.00
 9 24 1 -7.27 0.00
 11 24 1 1.34 0.00
 13 24 1 11.22 0.00
 15 24 1 13.39 0.00
 17 24 1 -6.76 0.00
 19 24 1 -9.31 0.00
 2 25 1 12.16 0.00
 4 25 1 1.06 0.00
 6 25 1 -2.68 0.00
 8 25 1 6.93 0.00
 10 25 1 10.91 0.00
 12 25 1 10.01 0.00
 14 25 1 -2.74 0.00
 16 25 1 -4.65 0.00
 18 25 1 -22.68 0.00
 20 25 1 -12.20 0.00
 1 26 1 -5.27 0.00
 3 26 1 -7.63 0.00
 5 26 1 -26.44 0.00
 7 26 1 -1.73 0.00
 9 26 1 8.55 0.00
 11 26 1 9.39 0.00
 13 26 1 -6.28 0.00
 15 26 1 -6.22 0.00
 17 26 1 0.19 0.00
 19 26 1 8.89 0.00
 2 27 1 -2.92 0.00
 4 27 1 -15.03 0.00
 6 27 1 -3.61 0.00
 8 27 1 -0.69 0.00
 10 27 1 9.26 0.00
 12 27 1 -0.20 0.00
 14 27 1 5.91 0.00
 16 27 1 12.09 0.00
 18 27 1 -19.67 0.00
 1 28 1 4.83 0.00
 3 28 1 -9.64 0.00
 5 28 1 -9.21 0.00
 7 28 1 -4.42 0.00
 9 28 1 2.10 0.00
 11 28 1 7.26 0.00
 13 28 1 -12.51 0.00
 15 28 1 2.95 0.00
 17 28 1 12.72 0.00
 19 28 1 -1.24 0.00
 2 29 1 -2.28 0.00
 4 29 1 -1.61 0.00
 6 29 1 -10.75 0.00
 8 29 1 -3.63 0.00
 10 29 1 8.52 0.00
 12 29 1 13.44 0.00
 14 29 1 7.15 0.00
 16 29 1 11.52 0.00
 18 29 1 9.18 0.00
 1 30 1 -6.74 0.00
 3 30 1 6.45 0.00
 5 30 1 11.26 0.00
 7 30 1 -7.39 0.00
 9 30 1 2.21 0.00
 11 30 1 3.96 0.00
 13 30 1 1.17 0.00
 15 30 1 6.77 0.00
 17 30 1 14.72 0.00
 2 31 1 2.02 0.00
 4 31 1 -15.68 0.00
 6 31 1 -1.03 0.00
 8 31 1 3.43 0.00
 10 31 1 1.51 0.00
 12 31 1 9.23 0.00
 14 31 1 0.73 0.00
 16 31 1 9.43 0.00
 1 32 1 0.05 0.00
 3 32 1 -5.81 0.00
 5 32 1 -12.33 0.00
 7 32 1 -14.53 0.00
 9 32 1 10.05 0.00
 11 32 1 -2.52 0.00
 13 32 1 -8.38 0.00
 15 32 1 4.52 0.00
 17 32 1 5.53 0.00
 2 33 1 13.01 0.00
 4 33 1 1.55 0.00
 6 33 1 -12.10 0.00
 8 33 1 13.97 0.00
 10 33 1 25.71 0.00
 12 33 1 5.34 0.00
 14 33 1 12.36 0.00
 16 33 1 -5.06 0.00
 1 34 1 -6.63 0.00
 3 34 1 5.82 0.00
 5 34 1 -19.55 0.00
 7 34 1 -1.78 0.00
 9 34 1 13.50 0.00
 11 34 1 6.02 0.00
 13 34 1 -4.64 0.00
 15 34 1 10.45 0.00
 2 35 1 -1.74 0.00
 4 35 1 -4.32 0.00
 6 35 1 -2.32 0.00
 8 35 1 27.42 0.00
 10 35 1 11.21 0.00
 12 35 1 13.85 0.00
 14 35 1 3.86 0.00
 1 36 1 -15.18 0.00
 3 36 1 13.33 0.00
 5 36 1 2.67 0.00
 7 36 1 6.25 0.00
 9 36 1 -1.45 0.00
 11 36 1 -8.77 0.00
 13 36 1 -21.57 0.00
 15 36 1 -12.49 0.00
 2 37 1 -12.16 0.00
 4 37 1 -8.85 0.00
 6 37 1 -17.50 0.00
 8 37 1 6.28 0.00
 10 37 1 1.98 0.00
 12 37 1 -0.41 0.00
 14 37 1 -15.56 0.00
 1 38 1 -20.66 0.00
 3 38 1 17.49 0.00
 5 38 1 10.73 0.00
 7 38 1 6.49 0.00
 9 38 1 -5.83 0.00
 11 38 1 -15.26 0.00
 13 38 1 24.32 0.00
 2 39 1 5.65 0.00
 4 39 1 7.29 0.00
 6 39 1 -4.26 0.00
 8 39 1 -3.51 0.00
 10 39 1 -3.05 0.00
 12 39 1 23.61 0.00
 1 40 1 -2.41 0.00
 3 40 1 -5.26 0.00
 5 40 1 -0.85 0.00
 7 40 1 4.14 0.00
 9 40 1 2.27 0.00
 11 40 1 -21.30 0.00
 2 41 1 10.58 0.00
 4 41 1 3.13 0.00
 6 41 1 -10.76 0.00
 8 41 1 -2.24 0.00
 10 41 1 5.20 0.00
 1 42 1 -8.67 0.00
 3 42 1 -20.86 0.00
 5 42 1 5.20 0.00
 7 42 1 4.74 0.00
 9 42 1 -4.18 0.00
 2 43 1 8.35 0.00
 4 43 1 10.93 0.00
 6 43 1 -10.29 0.00
 8 43 1 -4.10 0.00
 1 44 1 23.98 0.00
 3 44 1 3.17 0.00
 5 44 1 1.90 0.00
 7 44 1 13.92 0.00
 2 45 1 1.76 0.00
 4 45 1 18.52 0.00
 1 46 1 19.69 0.00
 2 0 2 189.53 0.00
 4 0 2 -256.65 0.00
 6 0 2 -78.57 0.00
 8 0 2 -0.03 0.00
 10 0 2 14.74 0.00
 12 0 2 24.79 0.00
 14 0 2 -9.74 0.00
 16 0 2 -24.22 0.00
 18 0 2 -1.10 0.00
 20 0 2 3.51 0.00
 22 0 2 7.40 0.00
 24 0 2 -38.83 0.00
 3 1 2 89.82 0.00
 5 1 2 2.68 0.00
 7 1 2 14.22 0.00
 9 1 2 22.95 0.00
 11 1 2 22.69 0.00
 13 1 2 -13.28 0.00
 15 1 2 -19.35 0.00
 17 1 2 0.87 0.00
 19 1 2 9.70 0.00
 21 1 2 9.11 0.00
 23 1 2 -27.27 0.00
 4 2 2 15.34 0.00
 6 2 2 -5.94 0.00
 8 2 2 -28.75 0.00
 10 2 2 -13.35 0.00
 12 2 2 -9.26 0.00
 14 2 2 -23.31 0.00
 16 2 2 2.09 0.00
 18 2 2 -10.90 0.00
 20 2 2 7.30 0.00
 22 2 2 6.84 0.00
 24 2 2 8.50 0.00
 3 3 2 72.61 0.00
 5 3 2 70.58 0.00
 7 3 2 -7.21 0.00
 9 3 2 -5.82 0.00
 11 3 2 -6.98 0.00
 13 3 2 11.17 0.00
 15 3 2 5.05 0.00
 17 3 2 -1.98 0.00
 19 3 2 -7.78 0.00
 21 3 2 -9.07 0.00
 23 3 2 5.42 0.00
 2 4 2 5.33 0.00
 4 4 2 80.44 0.00
 6 4 2 0.23 0.00
 8 4 2 -13.38 0.00
 10 4 2 -0.42 0.00
 12 4 2 -0.83 0.00
 14 4 2 23.78 0.00
 16 4 2 2.89 0.00
 18 4 2 -2.86 0.00
 20 4 2 4.10 0.00
 22 4 2 9.15 0.00
 1 5 2 132.96 0.00
 3 5 2 156.47 0.00
 5 5 2 -76.44 0.00
 7 5 2 -71.22 0.00
 9 5 2 -32.99 0.00
 11 5 2 3.60 0.00
 13 5 2 9.84 0.00
 15 5 2 10.89 0.00
 17 5 2 -19.40 0.00
 19 5 2 4.69 0.00
 21 5 2 -3.54 0.00
 23 5 2 -15.52 0.00
 0 6 2 3.84 0.00
 2 6 2 189.02 0.00
 4 6 2 92.64 0.00
 6 6 2 -19.87 0.00
 8 6 2 -3.08 0.00
 10 6 2 -11.11 0.00
 12 6 2 -55.77 0.00
 14 6 2 15.52 0.00
 16 6 2 -3.36 0.00
 18 6 2 1.16 0.00
 20 6 2 4.64 0.00
 22 6 2 -4.75 0.00
 1 7 2 -32.98 0.00
 3 7 2 -68.53 0.00
 5 7 2 53.35 0.00
 7 7 2 -31.46 0.00
 9 7 2 24.58 0.00
 11 7 2 -2.92 0.00
 13 7 2 -26.43 0.00
 15 7 2 9.88 0.00
 17 7 2 -2.24 0.00
 19 7 2 4.83 0.00
 21 7 2 0.04 0.00
 23 7 2 1.19 0.00
 0 8 2 -119.27 0.00
 2 8 2 19.96 0.00
 4 8 2 97.86 0.00
 6 8 2 93.20 0.00
 8 8 2 -0.32 0.00
 10 8 2 9.56 0.00
 12 8 2 -9.73 0.00
 14 8 2 1.13 0.00
 16 8 2 -3.61 0.00
 18 8 2 -12.08 0.00
 20 8 2 11.76 0.00
 22 8 2 -10.14 0.00
 1 9 2 10.41 0.00
 3 9 2 120.93 0.00
 5 9 2 9.04 0.00
 7 9 2 15.80 0.00
 9 9 2 -12.20 0.00
 11 9 2 -10.07 0.00
 13 9 2 -6.39 0.00
 15 9 2 9.91 0.00
 17 9 2 -4.20 0.00
 19 9 2 27.76 0.00
 21 9 2 14.84 0.00
 23 9 2 3.89 0.00
 0 10 2 41.64 0.00
 2 10 2 -25.31 0.00
 4 10 2 8.58 0.00
 6 10 2 -53.40 0.00
 8 10 2 -9.06 0.00
 10 10 2 -13.20 0.00
 12 10 2 -14.91 0.00
 14 10 2 -15.64 0.00
 16 10 2 -15.73 0.00
 18 10 2 -12.20 0.00
 20 10 2 13.67 0.00
 22 10 2 -16.17 0.00
 1 11 2 12.78 0.00
 3 11 2 -26.49 0.00
 5 11 2 -18.13 0.00
 7 11 2 -14.25 0.00
 9 11 2 5.86 0.00
 11 11 2 3.94 0.00
 13 11 2 5.24 0.00
 15 11 2 -2.58 0.00
 17 11 2 15.93 0.00
 19 11 2 26.01 0.00
 21 11 2 -12.74 0.00
 23 11 2 4.30 0.00
 0 12 2 -53.65 0.00
 2 12 2 -26.82 0.00
 4 12 2 14.24 0.00
 6 12 2 64.57 0.00
 8 12 2 -5.48 0.00
 10 12 2 15.18 0.00
 12 12 2 4.14 0.00
 14 12 2 4.54 0.00
 16 12 2 -2.40 0.00
 18 12 2 13.96 0.00
 20 12 2 -7.28 0.00
 22 12 2 -6.99 0.00
 1 13 2 -15.31 0.00
 3 13 2 48.60 0.00
 5 13 2 58.92 0.00
 7 13 2 27.68 0.00
 9 13 2 -1.99 0.00
 11 13 2 -5.37 0.00
 13 13 2 -4.87 0.00
 15 13 2 -9.17 0.00
 17 13 2 -7.62 0.00
 19 13 2 -1.50 0.00
 21 13 2 -15.36 0.00
 23 13 2 -22.93 0.00
 0 14 2 -4.54 0.00
 2 14 2 -11.62 0.00
 4 14 2 -8.09 0.00
 6 14 2 -37.67 0.00
 8 14 2 -15.56 0.00
 10 14 2 -25.97 0.00
 12 14 2 8.73 0.00
 14 14 2 -7.50 0.00
 16 14 2 4.24 0.00
 18 14 2 18.42 0.00
 20 14 2 -13.23 0.00
 22 14 2 -21.42 0.00
 1 15 2 39.56 0.00
 3 15 2 -19.11 0.00
 5 15 2 -24.36 0.00
 7 15 2 -23.28 0.00
 9 15 2 -19.71 0.00
 11 15 2 6.64 0.00
 13 15 2 22.93 0.00
 15 15 2 -7.09 0.00
 17 15 2 10.91 0.00
 19 15 2 -0.96 0.00
 21 15 2 1.69 0.00
 0 16 2 13.79 0.00
 2 16 2 10.34 0.00
 4 16 2 -25.62 0.00
 6 16 2 22.51 0.00
 8 16 2 24.70 0.00
 10 16 2 5.73 0.00
 12 16 2 2.43 0.00
 14 16 2 8.36 0.00
 16 16 2 -8.00 0.00
 18 16 2 -2.97 0.00
 20 16 2 28.12 0.00
 22 16 2 23.35 0.00
 1 17 2 -10.10 0.00
 3 17 2 -10.16 0.00
 5 17 2 -0.26 0.00
 7 17 2 5.59 0.00
 9 17 2 11.22 0.00
 11 17 2 10.22 0.00
 13 17 2 -0.56 0.00
 15 17 2 1.43 0.00
 17 17 2 16.42 0.00
 19 17 2 -17.87 0.00
 21 17 2 -20.46 0.00
 0 18 2 7.30 0.00
 2 18 2 -16.32 0.00
 4 18 2 10.08 0.00
 6 18 2 10.74 0.00
 8 18 2 1.61 0.00
 10 18 2 4.07 0.00
 12 18 2 -8.95 0.00
 14 18 2 -11.25 0.00
 16 18 2 -17.32 0.00
 18 18 2 4.37 0.00
 20 18 2 -11.29 0.00
 22 18 2 -1.93 0.00
 1 19 2 14.06 0.00
 3 19 2 -10.30 0.00
 5 19 2 -3.51 0.00
 7 19 2 3.14 0.00
 9 19 2 1.67 0.00
 11 19 2 -7.82 0.00
 13 19 2 13.15 0.00
 15 19 2 11.58 0.00
 17 19 2 1.98 0.00
 19 19 2 -9.50 0.00
 21 19 2 -3.12 0.00
 0 20 2 30.57 0.00
 2 20 2 24.80 0.00
 4 20 2 -28.39 0.00
 6 20 2 -4.78 0.00
 8 20 2 8.05 0.00
 10 20 2 9.04 0.00
 12 20 2 0.40 0.00
 14 20 2 -20.23 0.00
 16 20 2 3.11 0.00
 18 20 2 -10.98 0.00
 20 20 2 -11.55 0.00
 1 21 2 15.01 0.00
 3 21 2 18.10 0.00
 5 21 2 6.58 0.00
 7 21 2 11.35 0.00
 9 21 2 7.89 0.00
 11 21 2 12.28 0.00
 13 21 2 8.30 0.00
 15 21 2 -14.65 0.00
 17 21 2 10.36 0.00
 19 21 2 20.48 0.00
 21 21 2 2.81 0.00
 0 22 2 5.29 0.00
 2 22 2 -4.64 0.00
 4 22 2 -10.43 0.00
 6 22 2 1.42 0.00
 8 22 2 0.63 0.00
 10 22 2 2.30 0.00
 12 22 2 -17.75 0.00
 14 22 2 -10.30 0.00
 16 22 2 -9.66 0.00
 18 22 2 6.35 0.00
 20 22 2 14.80 0.00
 1 23 2 -8.35 0.00
 3 23 2 -2.11 0.00
 5 23 2 10.09 0.00
 7 23 2 -7.99 0.00
 9 23 2 8.17 0.00
 11 23 2 -2.61 0.00
 13 23 2 -1.81 0.00
 15 23 2 -4.81 0.00
 17 23 2 3.88 0.00
 19 23 2 1.19 0.00
 0 24 2 -6.77 0.00
 2 24 2 -9.83 0.00
 4 24 2 -4.21 0.00
 6 24 2 -9.51 0.00
 8 24 2 22.58 0.00
 10 24 2 7.50 0.00
 12 24 2 9.48 0.00
 14 24 2 -11.23 0.00
 16 24 2 -8.35 0.00
 18 24 2 2.47 0.00
 20 24 2 38.16 0.00
 1 25 2 13.13 0.00
 3 25 2 14.56 0.00
 5 25 2 -5.82 0.00
 7 25 2 1.39 0.00
 9 25 2 12.68 0.00
 11 25 2 -4.84 0.00
 13 25 2 -9.75 0.00
 15 25 2 -29.21 0.00
 17 25 2 -18.25 0.00
 19 25 2 -15.53 0.00
 0 26 2 -6.83 0.00
 2 26 2 2.57 0.00
 4 26 2 -1.93 0.00
 6 26 2 3.75 0.00
 8 26 2 -6.56 0.00
 10 26 2 -8.08 0.00
 12 26 2 -0.81 0.00
 14 26 2 -2.78 0.00
 16 26 2 -22.15 0.00
 18 26 2 -7.37 0.00
 1 27 2 10.34 0.00
 3 27 2 -6.08 0.00
 5 27 2 19.36 0.00
 7 27 2 6.65 0.00
 9 27 2 -19.92 0.00
 11 27 2 8.01 0.00
 13 27 2 6.83 0.00
 15 27 2 -3.65 0.00
 17 27 2 -23.16 0.00
 19 27 2 18.42 0.00
 0 28 2 9.97 0.00
 2 28 2 -0.30 0.00
 4 28 2 8.93 0.00
 6 28 2 8.19 0.00
 8 28 2 -6.67 0.00
 10 28 2 -4.63 0.00
 12 28 2 6.67 0.00
 14 28 2 6.91 0.00
 16 28 2 -3.84 0.00
 18 28 2 20.55 0.00
 1 29 2 -13.85 0.00
 3 29 2 9.17 0.00
 5 29 2 -1.88 0.00
 7 29 2 -20.82 0.00
 9 29 2 -25.97 0.00
 11 29 2 -2.90 0.00
 13 29 2 11.31 0.00
 15 29 2 -5.60 0.00
 17 29 2 1.71 0.00
 0 30 2 26.39 0.00
 2 30 2 9.12 0.00
 4 30 2 -5.99 0.00
 6 30 2 2.83 0.00
 8 30 2 -2.35 0.00
 10 30 2 4.98 0.00
 12 30 2 4.85 0.00
 14 30 2 -23.70 0.00
 16 30 2 -43.18 0.00
 18 30 2 -11.83 0.00
 1 31 2 10.14 0.00
 3 31 2 -6.65 0.00
 5 31 2 -8.01 0.00
 7 31 2 -17.46 0.00
 9 31 2 11.01 0.00
 11 31 2 -5.74 0.00
 13 31 2 -8.78 0.00
 15 31 2 10.87 0.00
 17 31 2 2.61 0.00
 0 32 2 -5.59 0.00
 2 32 2 8.58 0.00
 4 32 2 16.17 0.00
 6 32 2 -1.90 0.00
 8 32 2 17.40 0.00
 10 32 2 -0.74 0.00
 12 32 2 -9.99 0.00
 14 32 2 5.46 0.00
 16 32 2 1.57 0.00
 1 33 2 -7.46 0.00
 3 33 2 -9.34 0.00
 5 33 2 -10.62 0.00
 7 33 2 -7.55 0.00
 9 33 2 5.39 0.00
 11 33 2 8.24 0.00
 13 33 2 5.80 0.00
 15 33 2 1.03 0.00
 0 34 2 12.58 0.00
 2 34 2 -9.43 0.00
 4 34 2 1.60 0.00
 6 34 2 -4.62 0.00
 8 34 2 0.74 0.00
 10 34 2 -6.32 0.00
 12 34 2 -5.22 0.00
 14 34 2 -9.73 0.00
 16 34 2 -6.94 0.00
 1 35 2 -12.34 0.00
 3 35 2 -6.64 0.00
 5 35 2 0.03 0.00
 7 35 2 -5.79 0.00
 9 35 2 -15.68 0.00
 11 35 2 -11.43 0.00
 13 35 2 -17.79 0.00
 15 35 2 -11.33 0.00
 0 36 2 9.04 0.00
 2 36 2 13.74 0.00
 4 36 2 -7.52 0.00
 6 36 2 -6.87 0.00
 8 36 2 -9.12 0.00
 10 36 2 7.49 0.00
 12 36 2 2.12 0.00
 14 36 2 13.25 0.00
 1 37 2 -7.40 0.00
 3 37 2 10.70 0.00
 5 37 2 8.67 0.00
 7 37 2 2.91 0.00
 9 37 2 -2.68 0.00
 11 37 2 9.70 0.00
 13 37 2 2.62 0.00
 0 38 2 -7.31 0.00
 2 38 2 9.19 0.00
 4 38 2 3.06 0.00
 6 38 2 2.85 0.00
 8 38 2 -0.69 0.00
 10 38 2 27.51 0.00
 12 38 2 12.30 0.00
 1 39 2 9.64 0.00
 3 39 2 8.87 0.00
 5 39 2 -0.68 0.00
 7 39 2 -0.58 0.00
 9 39 2 -11.72 0.00
 11 39 2 7.50 0.00
 0 40 2 -7.88 0.00
 2 40 2 12.01 0.00
 4 40 2 -9.96 0.00
 6 40 2 5.09 0.00
 8 40 2 -10.43 0.00
 10 40 2 -3.94 0.00
 12 40 2 8.53 0.00
 1 41 2 -17.42 0.00
 3 41 2 4.17 0.00
 5 41 2 -0.74 0.00
 7 41 2 -2.26 0.00
 9 41 2 -13.18 0.00
 11 41 2 2.87 0.00
 0 42 2 6.01 0.00
 2 42 2 8.72 0.00
 4 42 2 15.23 0.00
 6 42 2 -6.76 0.00
 8 42 2 -9.38 0.00
 10 42 2 -18.25 0.00
 1 43 2 -10.95 0.00
 3 43 2 -35.52 0.00
 5 43 2 6.71 0.00
 7 43 2 -1.29 0.00
 0 44 2 -10.81 0.00
 2 44 2 17.06 0.00
 4 44 2 -10.50 0.00
 6 44 2 -0.72 0.00
 1 45 2 1.63 0.00
 3 45 2 11.44 0.00
 5 45 2 -8.81 0.00
 0 46 2 19.78 0.00
 4 1 3 -119.92 0.00
 6 1 3 -8.43 0.00
 8 1 3 -17.83 0.00
 10 1 3 1.90 0.00
 12 1 3 11.56 0.00
 14 1 3 0.27 0.00
 16 1 3 -5.40 0.00
 18 1 3 -3.69 0.00
 20 1 3 -2.83 0.00
 22 1 3 -5.54 0.00
 24 1 3 -29.64 0.00
 3 2 3 229.00 0.00
 5 2 3 -15.05 0.00
 7 2 3 1.25 0.00
 9 2 3 43.09 0.00
 11 2 3 1.33 0.00
 13 2 3 3.73 0.00
 15 2 3 1.56 0.00
 17 2 3 1.92 0.00
 19 2 3 9.31 0.00
 21 2 3 17.38 0.00
 23 2 3 -1.89 0.00
 2 3 3 24.13 0.00
 4 3 3 150.70 0.00
 6 3 3 27.60 0.00
 8 3 3 2.64 0.00
 10 3 3 -17.84 0.00
 12 3 3 21.05 0.00
 14 3 3 9.82 0.00
 16 3 3 -0.59 0.00
 18 3 3 -1.79 0.00
 20 3 3 18.78 0.00
 22 3 3 12.66 0.00
 24 3 3 -17.20 0.00
 3 4 3 77.91 0.00
 5 4 3 -18.70 0.00
 7 4 3 -33.69 0.00
 9 4 3 -32.18 0.00
 11 4 3 8.57 0.00
 13 4 3 -2.43 0.00
 15 4 3 5.46 0.00
 17 4 3 -0.69 0.00
 19 4 3 -1.35 0.00
 21 4 3 4.39 0.00
 23 4 3 -6.86 0.00
 2 5 3 172.24 0.00
 4 5 3 57.90 0.00
 6 5 3 -41.08 0.00
 8 5 3 -18.82 0.00
 10 5 3 -7.26 0.00
 12 5 3 -8.16 0.00
 14 5 3 -0.07 0.00
 16 5 3 13.50 0.00
 18 5 3 -7.05 0.00
 20 5 3 -2.67 0.00
 22 5 3 -7.66 0.00
 1 6 3 103.78 0.00
 3 6 3 1.82 0.00
 5 6 3 -1.38 0.00
 7 6 3 16.55 0.00
 9 6 3 -0.84 0.00
 11 6 3 9.47 0.00
 13 6 3 -2.89 0.00
 15 6 3 -3.61 0.00
 17 6 3 5.35 0.00
 19 6 3 3.62 0.00
 21 6 3 22.08 0.00
 23 6 3 -3.58 0.00
 2 7 3 -107.85 0.00
 4 7 3 -1.23 0.00
 6 7 3 7.48 0.00
 8 7 3 26.59 0.00
 10 7 3 18.24 0.00
 12 7 3 -31.87 0.00
 14 7 3 -16.93 0.00
 16 7 3 1.89 0.00
 18 7 3 -1.63 0.00
 20 7 3 -1.43 0.00
 22 7 3 -8.45 0.00
 1 8 3 244.23 0.00
 3 8 3 53.52 0.00
 5 8 3 -9.30 0.00
 7 8 3 -26.15 0.00
 9 8 3 2.06 0.00
 11 8 3 -24.66 0.00
 13 8 3 -8.13 0.00
 15 8 3 1.10 0.00
 17 8 3 -3.79 0.00
 19 8 3 3.12 0.00
 21 8 3 1.74 0.00
 23 8 3 -1.18 0.00
 2 9 3 34.53 0.00
 4 9 3 25.45 0.00
 6 9 3 10.54 0.00
 8 9 3 -5.46 0.00
 10 9 3 4.48 0.00
 12 9 3 4.54 0.00
 14 9 3 2.96 0.00
 16 9 3 -11.84 0.00
 18 9 3 -10.71 0.00
 20 9 3 0.13 0.00
 22 9 3 -8.04 0.00
 1 10 3 102.31 0.00
 3 10 3 101.36 0.00
 5 10 3 4.60 0.00
 7 10 3 14.48 0.00
 9 10 3 5.24 0.00
 11 10 3 -14.17 0.00
 13 10 3 -5.20 0.00
 15 10 3 3.09 0.00
 17 10 3 8.69 0.00
 19 10 3 14.09 0.00
 21 10 3 2.17 0.00
 23 10 3 11.21 0.00
 2 11 3 40.31 0.00
 4 11 3 -42.39 0.00
 6 11 3 -32.78 0.00
 8 11 3 -8.22 0.00
 10 11 3 -6.01 0.00
 12 11 3 -6.18 0.00
 14 11 3 6.32 0.00
 16 11 3 -1.62 0.00
 18 11 3 28.66 0.00
 20 11 3 -2.56 0.00
 22 11 3 -10.01 0.00
 1 12 3 11.72 0.00
 3 12 3 19.29 0.00
 5 12 3 45.37 0.00
 7 12 3 22.85 0.00
 9 12 3 1.88 0.00
 11 12 3 3.69 0.00
 13 12 3 12.31 0.00
 15 12 3 8.29 0.00
 17 12 3 10.57 0.00
 19 12 3 13.85 0.00
 21 12 3 4.39 0.00
 23 12 3 2.70 0.00
 2 13 3 61.18 0.00
 4 13 3 17.06 0.00
 6 13 3 19.03 0.00
 8 13 3 17.89 0.00
 10 13 3 7.78 0.00
 12 13 3 -21.20 0.00
 14 13 3 -11.72 0.00
 16 13 3 4.45 0.00
 18 13 3 5.94 0.00
 20 13 3 -7.12 0.00
 22 13 3 -8.71 0.00
 1 14 3 10.11 0.00
 3 14 3 62.02 0.00
 5 14 3 8.88 0.00
 7 14 3 -19.98 0.00
 9 14 3 -15.14 0.00
 11 14 3 -13.37 0.00
 13 14 3 -2.43 0.00
 15 14 3 6.01 0.00
 17 14 3 -1.24 0.00
 19 14 3 4.35 0.00
 21 14 3 7.31 0.00
 2 15 3 39.22 0.00
 4 15 3 6.65 0.00
 6 15 3 -1.48 0.00
 8 15 3 -10.99 0.00
 10 15 3 13.86 0.00
 12 15 3 6.34 0.00
 14 15 3 3.54 0.00
 16 15 3 -5.97 0.00
 18 15 3 4.66 0.00
 20 15 3 10.93 0.00
 22 15 3 11.22 0.00
 1 16 3 2.09 0.00
 3 16 3 7.61 0.00
 5 16 3 -21.87 0.00
 7 16 3 14.59 0.00
 9 16 3 11.90 0.00
 11 16 3 -7.24 0.00
 13 16 3 -0.33 0.00
 15 16 3 2.22 0.00
 17 16 3 -17.54 0.00
 19 16 3 -7.35 0.00
 21 16 3 11.67 0.00
 2 17 3 -2.07 0.00
 4 17 3 -1.44 0.00
 6 17 3 9.68 0.00
 8 17 3 26.66 0.00
 10 17 3 14.19 0.00
 12 17 3 5.75 0.00
 14 17 3 2.25 0.00
 16 17 3 1.36 0.00
 18 17 3 1.72 0.00
 20 17 3 7.66 0.00
 22 17 3 9.65 0.00
 1 18 3 -14.46 0.00
 3 18 3 0.72 0.00
 5 18 3 8.59 0.00
 7 18 3 -6.52 0.00
 9 18 3 -12.96 0.00
 11 18 3 -3.40 0.00
 13 18 3 -3.23 0.00
 15 18 3 -14.35 0.00
 17 18 3 4.04 0.00
 19 18 3 -8.06 0.00
 21 18 3 6.69 0.00
 2 19 3 17.16 0.00
 4 19 3 -3.27 0.00
 6 19 3 6.07 0.00
 8 19 3 8.98 0.00
 10 19 3 -7.69 0.00
 12 19 3 -20.92 0.00
 14 19 3 4.16 0.00
 16 19 3 17.88 0.00
 18 19 3 -7.98 0.00
 20 19 3 -10.54 0.00
 1 20 3 0.24 0.00
 3 20 3 12.19 0.00
 5 20 3 1.25 0.00
 7 20 3 12.05 0.00
 9 20 3 0.47 0.00
 11 20 3 -0.26 0.00
 13 20 3 0.31 0.00
 15 20 3 -1.76 0.00
 17 20 3 10.97 0.00
 19 20 3 -14.30 0.00
 21 20 3 1.81 0.00
 2 21 3 -0.12 0.00
 4 21 3 -13.65 0.00
 6 21 3 -7.40 0.00
 8 21 3 11.76 0.00
 10 21 3 -8.52 0.00
 12 21 3 -5.36 0.00
 14 21 3 5.90 0.00
 16 21 3 5.73 0.00
 18 21 3 -2.46 0.00
 20 21 3 -12.93 0.00
 1 22 3 2.35 0.00
 3 22 3 7.89 0.00
 5 22 3 13.33 0.00
 7 22 3 -1.52 0.00
 9 22 3 4.55 0.00
 11 22 3 -4.08 0.00
 13 22 3 4.66 0.00
 15 22 3 3.55 0.00
 17 22 3 6.59 0.00
 19 22 3 -3.08 0.00
 21 22 3 5.70 0.00
 2 23 3 2.67 0.00
 4 23 3 6.38 0.00
 6 23 3 1.55 0.00
 8 23 3 -7.35 0.00
 10 23 3 0.58 0.00
 12 23 3 3.64 0.00
 14 23 3 4.83 0.00
 16 23 3 -4.23 0.00
 18 23 3 -6.22 0.00
 20 23 3 -16.21 0.00
 1 24 3 8.15 0.00
 3 24 3 11.85 0.00
 5 24 3 -3.05 0.00
 7 24 3 -10.84 0.00
 9 24 3 -2.00 0.00
 11 24 3 2.74 0.00
 13 24 3 16.43 0.00
 15 24 3 13.83 0.00
 17 24 3 7.59 0.00
 19 24 3 6.90 0.00
 2 25 3 6.26 0.00
 4 25 3 5.94 0.00
 6 25 3 -3.93 0.00
 8 25 3 13.58 0.00
 10 25 3 -5.69 0.00
 12 25 3 8.34 0.00
 14 25 3 -3.85 0.00
 16 25 3 4.55 0.00
 18 25 3 0.35 0.00
 20 25 3 -0.85 0.00
 1 26 3 -13.80 0.00
 3 26 3 -2.66 0.00
 5 26 3 0.09 0.00
 7 26 3 -12.33 0.00
 9 26 3 2.21 0.00
 11 26 3 -2.58 0.00
 13 26 3 5.85 0.00
 15 26 3 -7.02 0.00
 17 26 3 -18.68 0.00
 19 26 3 0.55 0.00
 2 27 3 -1.23 0.00
 4 27 3 4.30 0.00
 6 27 3 7.61 0.00
 8 27 3 1.74 0.00
 10 27 3 -5.79 0.00
 12 27 3 -4.21 0.00
 14 27 3 -3.49 0.00
 16 27 3 5.61 0.00
 18 27 3 -2.28 0.00
 1 28 3 -1.93 0.00
 3 28 3 -6.05 0.00
 5 28 3 12.00 0.00
 7 28 3 -17.52 0.00
 9 28 3 -19.04 0.00
 11 28 3 -14.59 0.00
 13 28 3 -5.00 0.00
 15 28 3 9.31 0.00
 17 28 3 4.26 0.00
 19 28 3 17.67 0.00
 2 29 3 -14.26 0.00
 4 29 3 5.91 0.00
 6 29 3 -3.04 0.00
 8 29 3 -2.62 0.00
 10 29 3 11.69 0.00
 12 29 3 7.02 0.00
 14 29 3 -4.58 0.00
 16 29 3 -13.21 0.00
 18 29 3 -0.33 0.00
 1 30 3 -3.91 0.00
 3 30 3 21.04 0.00
 5 30 3 23.07 0.00
 7 30 3 7.16 0.00
 9 30 3 -1.93 0.00
 11 30 3 -9.85 0.00
 13 30 3 1.05 0.00
 15 30 3 -6.73 0.00
 17 30 3 -1.09 0.00
 2 31 3 -9.97 0.00
 4 31 3 -2.06 0.00
 6 31 3 -11.13 0.00
 8 31 3 -8.37 0.00
 10 31 3 -5.76 0.00
 12 31 3 -2.59 0.00
 14 31 3 -3.10 0.00
 16 31 3 -4.74 0.00
 1 32 3 4.15 0.00
 3 32 3 -1.25 0.00
 5 32 3 -1.83 0.00
 7 32 3 -10.07 0.00
 9 32 3 -0.38 0.00
 11 32 3 -10.78 0.00
 13 32 3 6.11 0.00
 15 32 3 24.09 0.00
 17 32 3 -8.23 0.00
 2 33 3 6.04 0.00
 4 33 3 5.74 0.00
 6 33 3 -34.59 0.00
 8 33 3 -7.52 0.00
 10 33 3 18.00 0.00
 12 33 3 -24.89 0.00
 14 33 3 -9.23 0.00
 16 33 3 -7.20 0.00
 1 34 3 -7.62 0.00
 3 34 3 7.98 0.00
 5 34 3 10.78 0.00
 7 34 3 -2.68 0.00
 9 34 3 7.42 0.00
 11 34 3 4.54 0.00
 13 34 3 0.30 0.00
 15 34 3 12.09 0.00
 2 35 3 -7.90 0.00
 4 35 3 3.39 0.00
 6 35 3 -2.10 0.00
 8 35 3 2.77 0.00
 10 35 3 -1.91 0.00
 12 35 3 -8.56 0.00
 14 35 3 6.95 0.00
 1 36 3 -2.55 0.00
 3 36 3 -1.34 0.00
 5 36 3 3.03 0.00
 7 36 3 -4.76 0.00
 9 36 3 -3.74 0.00
 11 36 3 13.29 0.00
 13 36 3 -15.09 0.00
 15 36 3 1.86 0.00
 2 37 3 -18.68 0.00
 4 37 3 -7.98 0.00
 6 37 3 -5.50 0.00
 8 37 3 -19.76 0.00
 10 37 3 -14.59 0.00
 12 37 3 -22.49 0.00
 14 37 3 13.12 0.00
 1 38 3 5.65 0.00
 3 38 3 8.97 0.00
 5 38 3 13.63 0.00
 7 38 3 3.97 0.00
 9 38 3 -1.49 0.00
 11 38 3 0.68 0.00
 13 38 3 5.52 0.00
 2 39 3 -18.43 0.00
 4 39 3 -7.05 0.00
 6 39 3 18.99 0.00
 8 39 3 9.48 0.00
 10 39 3 4.45 0.00
 12 39 3 5.02 0.00
 1 40 3 -7.35 0.00
 3 40 3 -10.90 0.00
 5 40 3 -5.44 0.00
 7 40 3 -15.86 0.00
 9 40 3 1.74 0.00
 11 40 3 -4.66 0.00
 2 41 3 -1.11 0.00
 4 41 3 -18.17 0.00
 6 41 3 1.62 0.00
 8 41 3 -18.47 0.00
 10 41 3 -2.86 0.00
 1 42 3 -5.75 0.00
 3 42 3 3.64 0.00
 5 42 3 16.42 0.00
 7 42 3 7.55 0.00
 9 42 3 14.69 0.00
 2 43 3 -1.83 0.00
 4 43 3 -15.30 0.00
 6 43 3 -1.46 0.00
 8 43 3 3.84 0.00
 1 44 3 15.31 0.00
 3 44 3 -8.96 0.00
 5 44 3 4.23 0.00
 7 44 3 10.43 0.00
 2 45 3 -2.69 0.00
 4 45 3 -17.51 0.00
 2 0 4 -54.27 0.00
 6 0 4 71.37 0.00
 8 0 4 4.76 0.00
 10 0 4 34.12 0.00
 12 0 4 1.68 0.00
 14 0 4 -7.71 0.00
 16 0 4 -2.90 0.00
 18 0 4 -2.72 0.00
 20 0 4 8.28 0.00
 22 0 4 9.77 0.00
 24 0 4 -10.73 0.00
 3 1 4 -339.31 0.00
 5 1 4 -135.20 0.00
 7 1 4 -7.19 0.00
 9 1 4 -8.01 0.00
 11 1 4 7.16 0.00
 13 1 4 -10.21 0.00
 15 1 4 -4.50 0.00
 17 1 4 -2.11 0.00
 19 1 4 4.07 0.00
 21 1 4 3.94 0.00
 23 1 4 20.65 0.00
 4 2 4 -107.38 0.00
 6 2 4 8.10 0.00
 8 2 4 42.19 0.00
 10 2 4 9.08 0.00
 12 2 4 -7.78 0.00
 14 2 4 -3.99 0.00
 16 2 4 -1.19 0.00
 18 2 4 6.67 0.00
 20 2 4 7.64 0.00
 22 2 4 6.41 0.00
 24 2 4 -2.74 0.00
 3 3 4 -145.02 0.00
 5 3 4 -45.68 0.00
 7 3 4 3.92 0.00
 9 3 4 7.73 0.00
 11 3 4 -15.38 0.00
 13 3 4 -10.56 0.00
 15 3 4 -1.89 0.00
 17 3 4 -2.65 0.00
 19 3 4 -8.66 0.00
 21 3 4 -8.46 0.00
 23 3 4 -18.54 0.00
 0 4 4 -444.64 0.00
 2 4 4 -282.98 0.00
 4 4 4 -58.76 0.00
 6 4 4 5.37 0.00
 8 4 4 49.59 0.00
 10 4 4 16.15 0.00
 12 4 4 -10.75 0.00
 14 4 4 7.71 0.00
 16 4 4 -4.62 0.00
 18 4 4 -17.26 0.00
 20 4 4 11.11 0.00
 22 4 4 9.74 0.00
 1 5 4 -122.60 0.00
 3 5 4 -19.32 0.00
 5 5 4 7.23 0.00
 7 5 4 -25.36 0.00
 9 5 4 -15.35 0.00
 11 5 4 -0.46 0.00
 13 5 4 -12.83 0.00
 15 5 4 17.27 0.00
 17 5 4 -1.33 0.00
 19 5 4 4.85 0.00
 21 5 4 5.44 0.00
 23 5 4 -4.02 0.00
 4 6 4 -134.11 0.00
 6 6 4 -16.69 0.00
 8 6 4 -2.24 0.00
 10 6 4 5.92 0.00
 12 6 4 10.62 0.00
 14 6 4 -0.49 0.00
 16 6 4 -8.30 0.00
 18 6 4 -11.56 0.00
 20 6 4 7.96 0.00
 22 6 4 3.11 0.00
 1 7 4 -82.21 0.00
 3 7 4 105.72 0.00
 5 7 4 -34.18 0.00
 7 7 4 -0.54 0.00
 9 7 4 -1.48 0.00
 11 7 4 -4.29 0.00
 13 7 4 0.61 0.00
 15 7 4 -1.80 0.00
 17 7 4 -16.69 0.00
 19 7 4 -10.42 0.00
 21 7 4 3.23 0.00
 23 7 4 -19.31 0.00
 0 8 4 60.51 0.00
 2 8 4 -73.35 0.00
 4 8 4 -26.69 0.00
 6 8 4 -37.08 0.00
 8 8 4 8.61 0.00
 10 8 4 8.80 0.00
 12 8 4 -6.92 0.00
 14 8 4 9.90 0.00
 16 8 4 4.86 0.00
 18 8 4 -17.77 0.00
 20 8 4 0.13 0.00
 22 8 4 -8.97 0.00
 1 9 4 -41.70 0.00
 3 9 4 28.25 0.00
 5 9 4 25.28 0.00
 7 9 4 21.71 0.00
 9 9 4 6.50 0.00
 11 9 4 7.58 0.00
 13 9 4 4.12 0.00
 15 9 4 3.75 0.00
 17 9 4 -6.25 0.00
 19 9 4 14.88 0.00
 21 9 4 -5.92 0.00
 23 9 4 0.65 0.00
 0 10 4 83.84 0.00
 2 10 4 -53.04 0.00
 4 10 4 -56.05 0.00
 6 10 4 -44.69 0.00
 8 10 4 -39.52 0.00
 10 10 4 5.00 0.00
 12 10 4 -9.73 0.00
 14 10 4 5.41 0.00
 16 10 4 11.81 0.00
 18 10 4 2.39 0.00
 20 10 4 -9.01 0.00
 22 10 4 -2.45 0.00
 1 11 4 -65.45 0.00
 3 11 4 -14.58 0.00
 5 11 4 -7.44 0.00
 7 11 4 -32.86 0.00
 9 11 4 -11.69 0.00
 11 11 4 5.43 0.00
 13 11 4 2.69 0.00
 15 11 4 -10.30 0.00
 17 11 4 -14.49 0.00
 19 11 4 4.19 0.00
 21 11 4 1.66 0.00
 23 11 4 -7.85 0.00
 0 12 4 68.38 0.00
 2 12 4 -43.78 0.00
 4 12 4 -12.57 0.00
 6 12 4 14.54 0.00
 8 12 4 38.37 0.00
 10 12 4 -8.37 0.00
 12 12 4 10.32 0.00
 14 12 4 -8.98 0.00
 16 12 4 -17.46 0.00
 18 12 4 6.17 0.00
 20 12 4 3.61 0.00
 22 12 4 -15.39 0.00
 1 13 4 -36.54 0.00
 3 13 4 43.22 0.00
 5 13 4 -9.73 0.00
 7 13 4 22.66 0.00
 9 13 4 18.01 0.00
 11 13 4 -0.75 0.00
 13 13 4 3.65 0.00
 15 13 4 -3.54 0.00
 17 13 4 8.22 0.00
 19 13 4 -7.24 0.00
 21 13 4 -11.60 0.00
 23 13 4 6.26 0.00
 0 14 4 27.54 0.00
 2 14 4 -25.85 0.00
 4 14 4 3.02 0.00
 6 14 4 -22.13 0.00
 8 14 4 -24.12 0.00
 10 14 4 5.50 0.00
 12 14 4 -6.77 0.00
 14 14 4 -1.98 0.00
 16 14 4 -25.04 0.00
 18 14 4 -8.89 0.00
 20 14 4 -3.16 0.00
 22 14 4 5.02 0.00
 1 15 4 -5.43 0.00
 3 15 4 -18.60 0.00
 5 15 4 18.48 0.00
 7 15 4 -17.74 0.00
 9 15 4 4.26 0.00
 11 15 4 -3.36 0.00
 13 15 4 -6.10 0.00
 15 15 4 -3.15 0.00
 17 15 4 9.22 0.00
 19 15 4 15.07 0.00
 21 15 4 -4.83 0.00
 0 16 4 -7.68 0.00
 2 16 4 -14.21 0.00
 4 16 4 -13.14 0.00
 6 16 4 0.65 0.00
 8 16 4 4.72 0.00
 10 16 4 4.58 0.00
 12 16 4 6.63 0.00
 14 16 4 9.88 0.00
 16 16 4 -5.90 0.00
 18 16 4 -7.42 0.00
 20 16 4 -13.26 0.00
 22 16 4 5.80 0.00
 1 17 4 -25.44 0.00
 3 17 4 1.39 0.00
 5 17 4 3.41 0.00
 7 17 4 0.45 0.00
 9 17 4 17.31 0.00
 11 17 4 10.95 0.00
 13 17 4 -4.31 0.00
 15 17 4 -0.15 0.00
 17 17 4 -4.78 0.00
 19 17 4 -7.83 0.00
 21 17 4 -3.52 0.00
 0 18 4 -2.88 0.00
 2 18 4 -5.30 0.00
 4 18 4 -0.78 0.00
 6 18 4 3.12 0.00
 8 18 4 0.21 0.00
 10 18 4 -15.23 0.00
 12 18 4 -8.29 0.00
 14 18 4 -3.29 0.00
 16 18 4 0.42 0.00
 18 18 4 9.76 0.00
 20 18 4 -2.18 0.00
 22 18 4 11.04 0.00
 1 19 4 12.27 0.00
 3 19 4 6.09 0.00
 5 19 4 5.62 0.00
 7 19 4 -3.10 0.00
 9 19 4 8.30 0.00
 11 19 4 -7.03 0.00
 13 19 4 -4.33 0.00
 15 19 4 -0.97 0.00
 17 19 4 -16.33 0.00
 19 19 4 -12.57 0.00
 21 19 4 3.98 0.00
 0 20 4 14.36 0.00
 2 20 4 -10.13 0.00
 4 20 4 -10.18 0.00
 6 20 4 -3.43 0.00
 8 20 4 -2.00 0.00
 10 20 4 10.34 0.00
 12 20 4 1.74 0.00
 14 20 4 -5.66 0.00
 16 20 4 -13.68 0.00
 18 20 4 -0.80 0.00
 20 20 4 11.33 0.00
 1 21 4 20.58 0.00
 3 21 4 -8.97 0.00
 5 21 4 -11.94 0.00
 7 21 4 -5.33 0.00
 9 21 4 4.86 0.00
 11 21 4 -4.11 0.00
 13 21 4 -4.48 0.00
 15 21 4 1.55 0.00
 17 21 4 0.74 0.00
 19 21 4 11.57 0.00
 21 21 4 1.40 0.00
 0 22 4 -0.80 0.00
 2 22 4 4.67 0.00
 4 22 4 -10.57 0.00
 6 22 4 -10.64 0.00
 8 22 4 1.15 0.00
 10 22 4 6.72 0.00
 12 22 4 -3.01 0.00
 14 22 4 -3.37 0.00
 16 22 4 -1.13 0.00
 18 22 4 -5.05 0.00
 20 22 4 13.66 0.00
 1 23 4 -2.71 0.00
 3 23 4 -8.43 0.00
 5 23 4 6.47 0.00
 7 23 4 18.95 0.00
 9 23 4 19.33 0.00
 11 23 4 3.79 0.00
 13 23 4 -0.90 0.00
 15 23 4 -14.78 0.00
 17 23 4 -2.50 0.00
 19 23 4 15.34 0.00
 0 24 4 -2.08 0.00
 2 24 4 -10.93 0.00
 4 24 4 -23.91 0.00
 6 24 4 4.33 0.00
 8 24 4 6.25 0.00
 10 24 4 8.18 0.00
 12 24 4 -18.30 0.00
 14 24 4 -6.91 0.00
 16 24 4 4.50 0.00
 18 24 4 -1.31 0.00
 20 24 4 -15.40 0.00
 1 25 4 -3.39 0.00
 3 25 4 3.66 0.00
 5 25 4 -8.43 0.00
 7 25 4 -5.61 0.00
 9 25 4 -1.11 0.00
 11 25 4 -4.45 0.00
 13 25 4 -8.19 0.00
 15 25 4 5.05 0.00
 17 25 4 -9.86 0.00
 19 25 4 -33.67 0.00
 0 26 4 -11.09 0.00
 2 26 4 -9.98 0.00
 4 26 4 -16.27 0.00
 6 26 4 -3.54 0.00
 8 26 4 -1.30 0.00
 10 26 4 -6.02 0.00
 12 26 4 -14.43 0.00
 14 26 4 -13.92 0.00
 16 26 4 8.29 0.00
 18 26 4 -7.19 0.00
 1 27 4 -11.16 0.00
 3 27 4 3.06 0.00
 5 27 4 9.51 0.00
 7 27 4 9.17 0.00
 9 27 4 3.34 0.00
 11 27 4 2.74 0.00
 13 27 4 -1.48 0.00
 15 27 4 -7.78 0.00
 17 27 4 -12.42 0.00
 19 27 4 -18.36 0.00
 0 28 4 -19.41 0.00
 2 28 4 7.35 0.00
 4 28 4 1.01 0.00
 6 28 4 -8.91 0.00
 8 28 4 0.88 0.00
 10 28 4 -15.85 0.00
 12 28 4 -4.76 0.00
 14 28 4 -1.31 0.00
 16 28 4 5.51 0.00
 18 28 4 3.26 0.00
 1 29 4 -9.70 0.00
 3 29 4 4.27 0.00
 5 29 4 -3.29 0.00
 7 29 4 0.97 0.00
 9 29 4 -5.19 0.00
 11 29 4 -6.54 0.00
 13 29 4 0.08 0.00
 15 29 4 3.09 0.00
 17 29 4 4.89 0.00
 0 30 4 1.51 0.00
 2 30 4 5.45 0.00
 4 30 4 1.39 0.00
 6 30 4 -0.32 0.00
 8 30 4 10.63 0.00
 10 30 4 -11.04 0.00
 12 30 4 -5.01 0.00
 14 30 4 4.05 0.00
 16 30 4 5.27 0.00
 18 30 4 12.67 0.00
 1 31 4 9.55 0.00
 3 31 4 8.74 0.00
 5 31 4 0.72 0.00
 7 31 4 13.61 0.00
 9 31 4 -16.93 0.00
 11 31 4 -10.22 0.00
 13 31 4 -20.33 0.00
 15 31 4 -5.36 0.00
 17 31 4 -6.09 0.00
 0 32 4 -6.26 0.00
 2 32 4 -7.65 0.00
 4 32 4 -25.57 0.00
 6 32 4 -1.93 0.00
 8 32 4 -5.08 0.00
 10 32 4 -18.11 0.00
 12 32 4 -3.05 0.00
 14 32 4 -3.51 0.00
 16 32 4 0.47 0.00
 1 33 4 -12.14 0.00
 3 33 4 -4.59 0.00
 5 33 4 -4.71 0.00
 7 33 4 6.60 0.00
 9 33 4 9.71 0.00
 11 33 4 -0.37 0.00
 13 33 4 -10.90 0.00
 15 33 4 -7.06 0.00
 0 34 4 3.54 0.00
 2 34 4 11.85 0.00
 4 34 4 7.54 0.00
 6 34 4 -13.80 0.00
 8 34 4 -25.05 0.00
 10 34 4 -11.70 0.00
 12 34 4 3.66 0.00
 14 34 4 -14.13 0.00
 16 34 4 -7.38 0.00
 1 35 4 -16.38 0.00
 3 35 4 1.84 0.00
 5 35 4 -15.26 0.00
 7 35 4 6.61 0.00
 9 35 4 10.39 0.00
 11 35 4 -6.83 0.00
 13 35 4 -10.31 0.00
 15 35 4 8.24 0.00
 0 36 4 9.22 0.00
 2 36 4 -3.47 0.00
 4 36 4 9.06 0.00
 6 36 4 -0.92 0.00
 8 36 4 -4.14 0.00
 10 36 4 -1.91 0.00
 12 36 4 -6.74 0.00
 14 36 4 -11.86 0.00
 1 37 4 -15.14 0.00
 3 37 4 -8.84 0.00
 5 37 4 -17.27 0.00
 7 37 4 -3.86 0.00
 9 37 4 16.07 0.00
 11 37 4 2.46 0.00
 13 37 4 -7.85 0.00
 0 38 4 12.36 0.00
 2 38 4 -14.13 0.00
 4 38 4 -0.20 0.00
 6 38 4 0.75 0.00
 8 38 4 -18.03 0.00
 10 38 4 4.24 0.00
 12 38 4 -9.63 0.00
 1 39 4 3.25 0.00
 3 39 4 7.96 0.00
 5 39 4 -14.59 0.00
 7 39 4 -12.37 0.00
 9 39 4 -7.55 0.00
 11 39 4 -11.87 0.00
 0 40 4 7.30 0.00
 2 40 4 -1.46 0.00
 4 40 4 13.39 0.00
 6 40 4 -6.61 0.00
 8 40 4 2.55 0.00
 10 40 4 8.20 0.00
 1 41 4 -0.04 0.00
 3 41 4 18.07 0.00
 5 41 4 5.66 0.00
 7 41 4 -17.18 0.00
 9 41 4 -0.47 0.00
 11 41 4 16.27 0.00
 0 42 4 1.36 0.00
 2 42 4 18.60 0.00
 4 42 4 -0.48 0.00
 6 42 4 -10.49 0.00
 8 42 4 -2.25 0.00
 1 43 4 -12.30 0.00
 3 43 4 14.09 0.00
 5 43 4 6.39 0.00
 7 43 4 -11.98 0.00
 0 44 4 17.91 0.00
 2 44 4 -6.66 0.00
 4 44 4 10.31 0.00
 6 44 4 9.12 0.00
 1 45 4 22.35 0.00
 3 45 4 11.66 0.00
 4 1 5 -61.79 0.00
 6 1 5 9.52 0.00
 8 1 5 21.26 0.00
 10 1 5 9.69 0.00
 12 1 5 15.80 0.00
 14 1 5 4.94 0.00
 16 1 5 -1.06 0.00
 18 1 5 3.45 0.00
 20 1 5 3.75 0.00
 22 1 5 8.16 0.00
 24 1 5 -11.55 0.00
 1 2 5 503.29 0.00
 5 2 5 -66.91 0.00
 7 2 5 -41.71 0.00
 9 2 5 15.91 0.00
 11 2 5 24.89 0.00
 13 2 5 18.45 0.00
 15 2 5 -9.35 0.00
 17 2 5 5.31 0.00
 19 2 5 2.82 0.00
 21 2 5 -14.05 0.00
 23 2 5 -20.93 0.00
 2 3 5 -81.42 0.00
 4 3 5 -80.84 0.00
 6 3 5 -58.62 0.00
 8 3 5 -13.98 0.00
 10 3 5 -16.69 0.00
 12 3 5 20.01 0.00
 14 3 5 -0.78 0.00
 16 3 5 -3.67 0.00
 18 3 5 5.02 0.00
 20 3 5 -3.28 0.00
 22 3 5 22.00 0.00
 1 4 5 393.98 0.00
 3 4 5 266.48 0.00
 5 4 5 35.00 0.00
 7 4 5 6.54 0.00
 9 4 5 -9.23 0.00
 11 4 5 16.57 0.00
 13 4 5 16.45 0.00
 15 4 5 -4.68 0.00
 17 4 5 9.48 0.00
 19 4 5 -5.75 0.00
 21 4 5 -9.52 0.00
 23 4 5 1.86 0.00
 2 5 5 82.26 0.00
 4 5 5 116.13 0.00
 6 5 5 25.69 0.00
 8 5 5 -13.52 0.00
 10 5 5 -13.97 0.00
 12 5 5 -3.68 0.00
 14 5 5 6.51 0.00
 16 5 5 19.94 0.00
 18 5 5 6.34 0.00
 20 5 5 7.73 0.00
 22 5 5 9.37 0.00
 1 6 5 86.04 0.00
 3 6 5 110.63 0.00
 5 6 5 -5.44 0.00
 7 6 5 -31.29 0.00
 9 6 5 -26.91 0.00
 11 6 5 -1.77 0.00
 13 6 5 5.11 0.00
 15 6 5 7.06 0.00
 17 6 5 2.50 0.00
 19 6 5 -17.53 0.00
 21 6 5 -12.56 0.00
 23 6 5 -2.74 0.00
 2 7 5 29.78 0.00
 4 7 5 77.71 0.00
 6 7 5 -36.16 0.00
 8 7 5 -37.78 0.00
 10 7 5 -1.51 0.00
 12 7 5 -11.18 0.00
 14 7 5 -9.23 0.00
 16 7 5 9.75 0.00
 18 7 5 -5.47 0.00
 20 7 5 -4.92 0.00
 22 7 5 4.13 0.00
 1 8 5 126.99 0.00
 3 8 5 104.41 0.00
 5 8 5 80.41 0.00
 7 8 5 28.65 0.00
 9 8 5 2.18 0.00
 11 8 5 -18.52 0.00
 13 8 5 -34.15 0.00
 15 8 5 -5.53 0.00
 17 8 5 -6.30 0.00
 19 8 5 -3.66 0.00
 21 8 5 -7.08 0.00
 23 8 5 -0.93 0.00
 2 9 5 -22.80 0.00
 4 9 5 1.80 0.00
 6 9 5 24.55 0.00
 8 9 5 13.19 0.00
 10 9 5 20.94 0.00
 12 9 5 8.76 0.00
 14 9 5 -2.87 0.00
 16 9 5 12.85 0.00
 18 9 5 0.46 0.00
 20 9 5 6.46 0.00
 22 9 5 12.93 0.00
 1 10 5 -4.17 0.00
 3 10 5 21.16 0.00
 5 10 5 21.78 0.00
 7 10 5 -8.16 0.00
 9 10 5 -0.68 0.00
 11 10 5 3.52 0.00
 13 10 5 3.52 0.00
 15 10 5 9.25 0.00
 17 10 5 -8.51 0.00
 19 10 5 -11.36 0.00
 21 10 5 4.60 0.00
 23 10 5 6.10 0.00
 2 11 5 -17.84 0.00
 4 11 5 27.03 0.00
 6 11 5 8.33 0.00
 8 11 5 -29.39 0.00
 10 11 5 -13.24 0.00
 12 11 5 0.40 0.00
 14 11 5 12.01 0.00
 16 11 5 4.04 0.00
 18 11 5 15.93 0.00
 20 11 5 11.11 0.00
 22 11 5 2.45 0.00
 1 12 5 6.21 0.00
 3 12 5 11.04 0.00
 5 12 5 44.24 0.00
 7 12 5 28.66 0.00
 9 12 5 19.16 0.00
 11 12 5 17.34 0.00
 13 12 5 -2.11 0.00
 15 12 5 9.54 0.00
 17 12 5 -1.66 0.00
 19 12 5 -14.05 0.00
 21 12 5 -14.92 0.00
 23 12 5 -4.11 0.00
 2 13 5 6.08 0.00
 4 13 5 -1.47 0.00
 6 13 5 -7.58 0.00
 8 13 5 -18.37 0.00
 10 13 5 -1.61 0.00
 12 13 5 -9.71 0.00
 14 13 5 -9.58 0.00
 16 13 5 7.71 0.00
 18 13 5 -2.44 0.00
 20 13 5 -4.51 0.00
 22 13 5 6.07 0.00
 1 14 5 -40.66 0.00
 3 14 5 -19.18 0.00
 5 14 5 8.70 0.00
 7 14 5 20.49 0.00
 9 14 5 -17.99 0.00
 11 14 5 -10.76 0.00
 13 14 5 -8.26 0.00
 15 14 5 -15.00 0.00
 17 14 5 0.86 0.00
 19 14 5 13.97 0.00
 21 14 5 -1.87 0.00
 2 15 5 -4.30 0.00
 4 15 5 -10.99 0.00
 6 15 5 8.23 0.00
 8 15 5 -16.55 0.00
 10 15 5 -1.82 0.00
 12 15 5 2.33 0.00
 14 15 5 -16.30 0.00
 16 15 5 -0.63 0.00
 18 15 5 0.57 0.00
 20 15 5 11.33 0.00
 22 15 5 11.58 0.00
 1 16 5 -3.14 0.00
 3 16 5 -29.45 0.00
 5 16 5 -4.20 0.00
 7 16 5 17.10 0.00
 9 16 5 9.25 0.00
 11 16 5 -2.64 0.00
 13 16 5 -0.55 0.00
 15 16 5 -6.21 0.00
 17 16 5 -1.03 0.00
 19 16 5 15.39 0.00
 21 16 5 -1.97 0.00
 2 17 5 -15.91 0.00
 4 17 5 -18.36 0.00
 6 17 5 -10.40 0.00
 8 17 5 1.89 0.00
 10 17 5 -7.19 0.00
 12 17 5 8.97 0.00
 14 17 5 3.55 0.00
 16 17 5 -1.99 0.00
 18 17 5 -0.18 0.00
 20 17 5 -2.53 0.00
 22 17 5 -5.01 0.00
 1 18 5 -20.32 0.00
 3 18 5 -23.41 0.00
 5 18 5 -5.49 0.00
 7 18 5 -8.01 0.00
 9 18 5 -17.29 0.00
 11 18 5 3.24 0.00
 13 18 5 -10.22 0.00
 15 18 5 -7.13 0.00
 17 18 5 -7.00 0.00
 19 18 5 -13.98 0.00
 21 18 5 -9.75 0.00
 2 19 5 -0.96 0.00
 4 19 5 1.79 0.00
 6 19 5 16.14 0.00
 8 19 5 2.92 0.00
 10 19 5 -6.92 0.00
 12 19 5 -11.20 0.00
 14 19 5 -10.87 0.00
 16 19 5 -5.11 0.00
 18 19 5 13.64 0.00
 20 19 5 -9.90 0.00
 1 20 5 -2.28 0.00
 3 20 5 -9.31 0.00
 5 20 5 -8.61 0.00
 7 20 5 2.68 0.00
 9 20 5 -16.26 0.00
 11 20 5 9.55 0.00
 13 20 5 6.47 0.00
 15 20 5 5.87 0.00
 17 20 5 18.10 0.00
 19 20 5 5.40 0.00
 21 20 5 1.24 0.00
 2 21 5 -2.06 0.00
 4 21 5 3.01 0.00
 6 21 5 -18.71 0.00
 8 21 5 -6.59 0.00
 10 21 5 1.11 0.00
 12 21 5 -7.86 0.00
 14 21 5 0.15 0.00
 16 21 5 11.13 0.00
 18 21 5 5.75 0.00
 20 21 5 -18.44 0.00
 1 22 5 -14.60 0.00
 3 22 5 -1.56 0.00
 5 22 5 -13.33 0.00
 7 22 5 -8.10 0.00
 9 22 5 -7.21 0.00
 11 22 5 -2.35 0.00
 13 22 5 -7.51 0.00
 15 22 5 -10.39 0.00
 17 22 5 2.48 0.00
 19 22 5 -3.24 0.00
 21 22 5 -12.30 0.00
 2 23 5 -1.44 0.00
 4 23 5 19.23 0.00
 6 23 5 9.14 0.00
 8 23 5 4.21 0.00
 10 23 5 -5.94 0.00
 12 23 5 -1.33 0.00
 14 23 5 17.80 0.00
 16 23 5 13.69 0.00
 18 23 5 24.64 0.00
 20 23 5 27.65 0.00
 1 24 5 -0.15 0.00
 3 24 5 2.74 0.00
 5 24 5 -6.44 0.00
 7 24 5 0.85 0.00
 9 24 5 -0.57 0.00
 11 24 5 -3.17 0.00
 13 24 5 8.23 0.00
 15 24 5 2.13 0.00
 17 24 5 -14.85 0.00
 19 24 5 -17.69 0.00
 2 25 5 1.05 0.00
 4 25 5 -0.02 0.00
 6 25 5 -3.51 0.00
 8 25 5 2.04 0.00
 10 25 5 -1.38 0.00
 12 25 5 -6.35 0.00
 14 25 5 7.66 0.00
 16 25 5 6.51 0.00
 18 25 5 13.77 0.00
 20 25 5 11.09 0.00
 1 26 5 0.06 0.00
 3 26 5 -5.29 0.00
 5 26 5 -9.96 0.00
 7 26 5 -13.02 0.00
 9 26 5 1.77 0.00
 11 26 5 2.25 0.00
 13 26 5 -7.68 0.00
 15 26 5 -6.30 0.00
 17 26 5 -19.66 0.00
 19 26 5 -16.46 0.00
 2 27 5 -9.37 0.00
 4 27 5 1.99 0.00
 6 27 5 -3.38 0.00
 8 27 5 0.67 0.00
 10 27 5 10.33 0.00
 12 27 5 -6.49 0.00
 14 27 5 4.97 0.00
 16 27 5 4.71 0.00
 18 27 5 0.25 0.00
 1 28 5 10.81 0.00
 3 28 5 5.41 0.00
 5 28 5 3.50 0.00
 7 28 5 9.42 0.00
 9 28 5 2.22 0.00
 11 28 5 -8.48 0.00
 13 28 5 -13.76 0.00
 15 28 5 -8.87 0.00
 17 28 5 1.09 0.00
 19 28 5 -10.69 0.00
 2 29 5 3.30 0.00
 4 29 5 8.11 0.00
 6 29 5 16.66 0.00
 8 29 5 8.38 0.00
 10 29 5 -6.26 0.00
 12 29 5 -12.15 0.00
 14 29 5 -2.86 0.00
 16 29 5 14.12 0.00
 18 29 5 11.76 0.00
 1 30 5 12.27 0.00
 3 30 5 7.75 0.00
 5 30 5 -3.30 0.00
 7 30 5 -5.59 0.00
 9 30 5 -10.16 0.00
 11 30 5 1.90 0.00
 13 30 5 0.22 0.00
 15 30 5 -2.31 0.00
 17 30 5 -3.03 0.00
 2 31 5 9.66 0.00
 4 31 5 0.24 0.00
 6 31 5 0.39 0.00
 8 31 5 -8.19 0.00
 10 31 5 -7.61 0.00
 12 31 5 -18.39 0.00
 14 31 5 -3.21 0.00
 16 31 5 -10.04 0.00
 1 32 5 8.59 0.00
 3 32 5 -1.41 0.00
 5 32 5 2.59 0.00
 7 32 5 1.31 0.00
 9 32 5 0.50 0.00
 11 32 5 -14.40 0.00
 13 32 5 14.87 0.00
 15 32 5 6.32 0.00
 17 32 5 -16.50 0.00
 2 33 5 0.25 0.00
 4 33 5 24.45 0.00
 6 33 5 -27.39 0.00
 8 33 5 -8.24 0.00
 10 33 5 8.88 0.00
 12 33 5 -20.03 0.00
 14 33 5 -2.12 0.00
 16 33 5 2.93 0.00
 1 34 5 -1.56 0.00
 3 34 5 -13.48 0.00
 5 34 5 7.82 0.00
 7 34 5 9.25 0.00
 9 34 5 9.43 0.00
 11 34 5 -7.03 0.00
 13 34 5 1.91 0.00
 15 34 5 -2.43 0.00
 2 35 5 -1.80 0.00
 4 35 5 7.62 0.00
 6 35 5 1.63 0.00
 8 35 5 -0.11 0.00
 10 35 5 6.55 0.00
 12 35 5 -11.10 0.00
 14 35 5 4.64 0.00
 1 36 5 6.99 0.00
 3 36 5 -11.52 0.00
 5 36 5 4.04 0.00
 7 36 5 7.21 0.00
 9 36 5 2.45 0.00
 11 36 5 -0.30 0.00
 13 36 5 -12.38 0.00
 2 37 5 -11.34 0.00
 4 37 5 -2.47 0.00
 6 37 5 14.12 0.00
 8 37 5 3.72 0.00
 10 37 5 -6.34 0.00
 12 37 5 -12.08 0.00
 14 37 5 0.60 0.00
 1 38 5 0.78 0.00
 3 38 5 0.41 0.00
 5 38 5 1.78 0.00
 7 38 5 -2.67 0.00
 9 38 5 -0.81 0.00
 11 38 5 2.84 0.00
 13 38 5 10.18 0.00
 2 39 5 -1.03 0.00
 4 39 5 1.47 0.00
 6 39 5 10.03 0.00
 8 39 5 12.04 0.00
 10 39 5 -15.74 0.00
 12 39 5 13.25 0.00
 1 40 5 -0.88 0.00
 3 40 5 0.19 0.00
 5 40 5 -12.01 0.00
 7 40 5 -28.96 0.00
 9 40 5 0.54 0.00
 11 40 5 11.39 0.00
 2 41 5 2.67 0.00
 4 41 5 8.24 0.00
 6 41 5 13.53 0.00
 8 41 5 1.15 0.00
 10 41 5 3.33 0.00
 1 42 5 -3.70 0.00
 3 42 5 1.55 0.00
 5 42 5 1.84 0.00
 7 42 5 6.15 0.00
 9 42 5 -2.16 0.00
 2 43 5 7.02 0.00
 4 43 5 -3.95 0.00
 6 43 5 4.44 0.00
 8 43 5 7.25 0.00
 1 44 5 1.57 0.00
 3 44 5 6.28 0.00
 5 44 5 7.96 0.00
 7 44 5 20.30 0.00
 2 45 5 -2.59 0.00
 4 45 5 -8.54 0.00
 2 0 6 209.01 0.00
 4 0 6 236.39 0.00
 6 0 6 49.76 0.00
 8 0 6 13.58 0.00
 10 0 6 -15.59 0.00
 12 0 6 3.74 0.00
 14 0 6 -12.94 0.00
 16 0 6 -27.83 0.00
 18 0 6 0.66 0.00
 20 0 6 11.87 0.00
 22 0 6 -21.35 0.00
 3 1 6 -198.89 0.00
 5 1 6 -97.75 0.00
 7 1 6 0.02 0.00
 9 1 6 8.01 0.00
 11 1 6 15.59 0.00
 13 1 6 0.95 0.00
 15 1 6 -14.16 0.00
 17 1 6 -5.20 0.00
 19 1 6 16.68 0.00
 21 1 6 11.68 0.00
 23 1 6 -1.13 0.00
 2 2 6 -187.65 0.00
 4 2 6 -56.31 0.00
 6 2 6 -23.18 0.00
 8 2 6 -17.04 0.00
 10 2 6 9.09 0.00
 12 2 6 14.34 0.00
 14 2 6 -7.34 0.00
 16 2 6 8.18 0.00
 18 2 6 4.70 0.00
 20 2 6 6.10 0.00
 22 2 6 -21.72 0.00
 3 3 6 -201.87 0.00
 5 3 6 -39.70 0.00
 7 3 6 15.37 0.00
 9 3 6 -13.08 0.00
 11 3 6 -9.63 0.00
 13 3 6 8.00 0.00
 15 3 6 -5.13 0.00
 17 3 6 0.05 0.00
 19 3 6 -0.18 0.00
 21 3 6 7.09 0.00
 23 3 6 12.93 0.00
 0 4 6 315.25 0.00
 2 4 6 -107.87 0.00
 4 4 6 -113.80 0.00
 6 4 6 29.19 0.00
 8 4 6 18.39 0.00
 10 4 6 0.45 0.00
 12 4 6 -3.07 0.00
 14 4 6 7.73 0.00
 16 4 6 8.30 0.00
 18 4 6 3.36 0.00
 20 4 6 -15.59 0.00
 22 4 6 -6.17 0.00
 1 5 6 -345.70 0.00
 3 5 6 -126.99 0.00
 5 5 6 -32.79 0.00
 7 5 6 1.96 0.00
 9 5 6 -14.40 0.00
 11 5 6 -18.45 0.00
 13 5 6 10.12 0.00
 15 5 6 13.52 0.00
 17 5 6 -0.61 0.00
 19 5 6 -8.62 0.00
 21 5 6 13.06 0.00
 23 5 6 -15.12 0.00
 0 6 6 182.36 0.00
 2 6 6 54.17 0.00
 4 6 6 -42.10 0.00
 6 6 6 -36.71 0.00
 8 6 6 15.03 0.00
 10 6 6 4.16 0.00
 12 6 6 13.20 0.00
 14 6 6 13.36 0.00
 16 6 6 5.31 0.00
 18 6 6 2.88 0.00
 20 6 6 1.56 0.00
 22 6 6 -4.12 0.00
 1 7 6 24.44 0.00
 3 7 6 -122.17 0.00
 5 7 6 15.95 0.00
 7 7 6 -32.08 0.00
 9 7 6 5.55 0.00
 11 7 6 -8.44 0.00
 13 7 6 -15.30 0.00
 15 7 6 -10.81 0.00
 17 7 6 -4.90 0.00
 19 7 6 -5.09 0.00
 21 7 6 -5.57 0.00
 23 7 6 3.45 0.00
 0 8 6 180.15 0.00
 2 8 6 71.35 0.00
 4 8 6 -71.81 0.00
 6 8 6 -1.79 0.00
 8 8 6 1.61 0.00
 10 8 6 4.16 0.00
 12 8 6 15.23 0.00
 14 8 6 11.17 0.00
 16 8 6 19.15 0.00
 18 8 6 -3.08 0.00
 20 8 6 -2.40 0.00
 22 8 6 10.87 0.00
 1 9 6 -56.71 0.00
 3 9 6 -45.11 0.00
 5 9 6 -49.05 0.00
 7 9 6 31.74 0.00
 9 9 6 0.87 0.00
 11 9 6 10.61 0.00
 13 9 6 11.01 0.00
 15 9 6 20.66 0.00
 17 9 6 2.75 0.00
 19 9 6 -1.27 0.00
 21 9 6 8.66 0.00
 23 9 6 -4.63 0.00
 0 10 6 9.00 0.00
 2 10 6 -21.46 0.00
 4 10 6 -0.38 0.00
 6 10 6 -48.39 0.00
 8 10 6 7.10 0.00
 10 10 6 -12.54 0.00
 12 10 6 -10.20 0.00
 14 10 6 7.00 0.00
 16 10 6 13.16 0.00
 18 10 6 8.65 0.00
 20 10 6 10.10 0.00
 22 10 6 8.63 0.00
 1 11 6 -10.15 0.00
 3 11 6 23.72 0.00
 5 11 6 18.25 0.00
 7 11 6 -14.24 0.00
 9 11 6 -14.96 0.00
 11 11 6 -11.60 0.00
 13 11 6 1.60 0.00
 15 11 6 -1.69 0.00
 17 11 6 -15.60 0.00
 19 11 6 -14.58 0.00
 21 11 6 -10.12 0.00
 23 11 6 -2.84 0.00
 0 12 6 -1.25 0.00
 2 12 6 25.11 0.00
 4 12 6 -19.68 0.00
 6 12 6 -5.99 0.00
 8 12 6 -1.12 0.00
 10 12 6 11.38 0.00
 12 12 6 2.20 0.00
 14 12 6 -1.32 0.00
 16 12 6 -13.75 0.00
 18 12 6 -6.47 0.00
 20 12 6 -4.27 0.00
 22 12 6 2.27 0.00
 1 13 6 -24.27 0.00
 3 13 6 16.02 0.00
 5 13 6 11.94 0.00
 7 13 6 -1.56 0.00
 9 13 6 2.72 0.00
 11 13 6 -3.04 0.00
 13 13 6 -2.26 0.00
 15 13 6 1.89 0.00
 17 13 6 -16.16 0.00
 19 13 6 11.35 0.00
 21 13 6 12.41 0.00
 23 13 6 -23.85 0.00
 0 14 6 -30.12 0.00
 2 14 6 -0.88 0.00
 4 14 6 -1.92 0.00
 6 14 6 -27.36 0.00
 8 14 6 -1.09 0.00
 10 14 6 -5.84 0.00
 12 14 6 17.82 0.00
 14 14 6 17.64 0.00
 16 14 6 -1.26 0.00
 18 14 6 -1.72 0.00
 20 14 6 13.41 0.00
 22 14 6 -5.06 0.00
 1 15 6 10.71 0.00
 3 15 6 -4.30 0.00
 5 15 6 -4.48 0.00
 7 15 6 -5.58 0.00
 9 15 6 0.42 0.00
 11 15 6 -6.12 0.00
 13 15 6 -0.42 0.00
 15 15 6 -12.59 0.00
 17 15 6 -18.53 0.00
 19 15 6 11.28 0.00
 21 15 6 20.62 0.00
 0 16 6 -16.16 0.00
 2 16 6 6.13 0.00
 4 16 6 11.52 0.00
 6 16 6 8.14 0.00
 8 16 6 -16.35 0.00
 10 16 6 -21.73 0.00
 12 16 6 1.30 0.00
 14 16 6 2.86 0.00
 16 16 6 15.06 0.00
 18 16 6 -2.85 0.00
 20 16 6 -1.36 0.00
 22 16 6 -7.43 0.00
 1 17 6 -39.68 0.00
 3 17 6 -12.58 0.00
 5 17 6 -21.61 0.00
 7 17 6 -3.96 0.00
 9 17 6 4.10 0.00
 11 17 6 10.52 0.00
 13 17 6 -12.55 0.00
 15 17 6 9.96 0.00
 17 17 6 -1.83 0.00
 19 17 6 6.99 0.00
 21 17 6 -0.39 0.00
 0 18 6 -16.85 0.00
 2 18 6 -20.38 0.00
 4 18 6 37.25 0.00
 6 18 6 10.42 0.00
 8 18 6 15.90 0.00
 10 18 6 4.90 0.00
 12 18 6 7.11 0.00
 14 18 6 7.13 0.00
 16 18 6 4.79 0.00
 18 18 6 0.04 0.00
 20 18 6 -13.12 0.00
 22 18 6 -4.55 0.00
 1 19 6 -7.42 0.00
 3 19 6 -11.03 0.00
 5 19 6 12.66 0.00
 7 19 6 10.93 0.00
 9 19 6 1.74 0.00
 11 19 6 0.22 0.00
 13 19 6 -15.14 0.00
 15 19 6 -14.45 0.00
 17 19 6 -13.97 0.00
 19 19 6 15.90 0.00
 21 19 6 15.09 0.00
 0 20 6 -6.28 0.00
 2 20 6 16.13 0.00
 4 20 6 16.88 0.00
 6 20 6 4.97 0.00
 8 20 6 -5.68 0.00
 10 20 6 -9.70 0.00
 12 20 6 -1.66 0.00
 14 20 6 9.31 0.00
 16 20 6 4.48 0.00
 18 20 6 -3.02 0.00
 20 20 6 -29.77 0.00
 1 21 6 -22.71 0.00
 3 21 6 -9.59 0.00
 5 21 6 -7.71 0.00
 7 21 6 7.19 0.00
 9 21 6 -4.50 0.00
 11 21 6 1.65 0.00
 13 21 6 -23.25 0.00
 15 21 6 -8.54 0.00
 17 21 6 7.07 0.00
 19 21 6 -8.01 0.00
 21 21 6 3.05 0.00
 0 22 6 2.41 0.00
 2 22 6 0.64 0.00
 4 22 6 19.55 0.00
 6 22 6 7.89 0.00
 8 22 6 10.52 0.00
 10 22 6 19.56 0.00
 12 22 6 9.98 0.00
 14 22 6 17.93 0.00
 16 22 6 21.37 0.00
 18 22 6 13.53 0.00
 20 22 6 -29.27 0.00
 1 23 6 -23.39 0.00
 3 23 6 -13.76 0.00
 5 23 6 -13.57 0.00
 7 23 6 9.83 0.00
 9 23 6 15.18 0.00
 11 23 6 1.09 0.00
 13 23 6 -25.67 0.00
 15 23 6 -11.41 0.00
 17 23 6 3.47 0.00
 19 23 6 0.42 0.00
 0 24 6 -19.39 0.00
 2 24 6 0.73 0.00
 4 24 6 6.65 0.00
 6 24 6 7.16 0.00
 8 24 6 6.79 0.00
 10 24 6 -2.14 0.00
 12 24 6 -4.87 0.00
 14 24 6 -15.37 0.00
 16 24 6 20.23 0.00
 18 24 6 13.40 0.00
 20 24 6 12.33 0.00
 1 25 6 5.66 0.00
 3 25 6 -4.19 0.00
 5 25 6 -16.40 0.00
 7 25 6 -1.59 0.00
 9 25 6 -8.70 0.00
 11 25 6 -5.56 0.00
 13 25 6 -4.77 0.00
 15 25 6 1.41 0.00
 17 25 6 -4.82 0.00
 19 25 6 -13.43 0.00
 0 26 6 -27.66 0.00
 2 26 6 -8.14 0.00
 4 26 6 -0.73 0.00
 6 26 6 9.06 0.00
 8 26 6 3.01 0.00
 10 26 6 8.89 0.00
 12 26 6 4.13 0.00
 14 26 6 1.69 0.00
 16 26 6 2.42 0.00
 18 26 6 4.87 0.00
 1 27 6 -6.45 0.00
 3 27 6 -18.50 0.00
 5 27 6 -2.54 0.00
 7 27 6 13.17 0.00
 9 27 6 -7.50 0.00
 11 27 6 13.58 0.00
 13 27 6 10.47 0.00
 15 27 6 -2.01 0.00
 17 27 6 5.30 0.00
 19 27 6 13.47 0.00
 0 28 6 -3.41 0.00
 2 28 6 -2.76 0.00
 4 28 6 -3.28 0.00
 6 28 6 -6.85 0.00
 8 28 6 1.00 0.00
 10 28 6 -1.98 0.00
 12 28 6 -11.62 0.00
 14 28 6 4.25 0.00
 16 28 6 13.75 0.00
 18 28 6 10.78 0.00
 1 29 6 -4.20 0.00
 3 29 6 21.01 0.00
 5 29 6 -1.83 0.00
 7 29 6 -4.25 0.00
 9 29 6 -0.36 0.00
 11 29 6 4.70 0.00
 13 29 6 5.50 0.00
 15 29 6 -2.00 0.00
 17 29 6 15.20 0.00
 0 30 6 7.11 0.00
 2 30 6 -1.48 0.00
 4 30 6 -5.13 0.00
 6 30 6 12.40 0.00
 8 30 6 -9.91 0.00
 10 30 6 -0.26 0.00
 12 30 6 -7.38 0.00
 14 30 6 -0.13 0.00
 16 30 6 -0.12 0.00
 18 30 6 -0.56 0.00
 1 31 6 11.10 0.00
 3 31 6 -9.74 0.00
 5 31 6 5.93 0.00
 7 31 6 -5.43 0.00
 9 31 6 15.34 0.00
 11 31 6 -4.98 0.00
 13 31 6 -3.67 0.00
 15 31 6 -4.03 0.00
 17 31 6 7.51 0.00
 0 32 6 -25.57 0.00
 2 32 6 -9.68 0.00
 4 32 6 -6.67 0.00
 6 32 6 -4.74 0.00
 8 32 6 3.74 0.00
 10 32 6 2.33 0.00
 12 32 6 -18.67 0.00
 14 32 6 7.81 0.00
 16 32 6 1.89 0.00
 1 33 6 1.97 0.00
 3 33 6 -11.19 0.00
 5 33 6 2.56 0.00
 7 33 6 4.36 0.00
 9 33 6 7.62 0.00
 11 33 6 3.07 0.00
 13 33 6 -2.01 0.00
 15 33 6 -17.56 0.00
 0 34 6 7.72 0.00
 2 34 6 -0.40 0.00
 4 34 6 5.17 0.00
 6 34 6 -3.75 0.00
 8 34 6 -1.18 0.00
 10 34 6 -8.06 0.00
 12 34 6 -7.63 0.00
 14 34 6 -1.15 0.00
 16 34 6 7.86 0.00
 1 35 6 -6.22 0.00
 3 35 6 7.37 0.00
 5 35 6 2.95 0.00
 7 35 6 0.23 0.00
 9 35 6 2.83 0.00
 11 35 6 -5.21 0.00
 13 35 6 4.18 0.00
 15 35 6 9.95 0.00
 0 36 6 0.91 0.00
 2 36 6 0.46 0.00
 4 36 6 -4.04 0.00
 6 36 6 -3.82 0.00
 8 36 6 -3.53 0.00
 10 36 6 9.26 0.00
 12 36 6 10.03 0.00
 14 36 6 -9.95 0.00
 1 37 6 6.83 0.00
 3 37 6 12.79 0.00
 5 37 6 1.80 0.00
 7 37 6 -11.29 0.00
 9 37 6 10.58 0.00
 11 37 6 -20.96 0.00
 13 37 6 -5.54 0.00
 0 38 6 -2.59 0.00
 2 38 6 -14.63 0.00
 4 38 6 17.30 0.00
 6 38 6 15.02 0.00
 8 38 6 -7.67 0.00
 10 38 6 11.56 0.00
 12 38 6 11.87 0.00
 1 39 6 24.53 0.00
 3 39 6 2.60 0.00
 5 39 6 -0.13 0.00
 7 39 6 -11.10 0.00
 9 39 6 -2.15 0.00
 11 39 6 -1.88 0.00
 0 40 6 -5.91 0.00
 2 40 6 -14.20 0.00
 4 40 6 0.06 0.00
 6 40 6 9.05 0.00
 8 40 6 11.48 0.00
 10 40 6 3.55 0.00
 1 41 6 9.15 0.00
 3 41 6 12.74 0.00
 5 41 6 -7.48 0.00
 7 41 6 -4.86 0.00
 9 41 6 -19.60 0.00
 0 42 6 18.29 0.00
 2 42 6 -2.81 0.00
 4 42 6 5.82 0.00
 6 42 6 -17.48 0.00
 8 42 6 11.19 0.00
 1 43 6 0.82 0.00
 3 43 6 -18.34 0.00
 5 43 6 -2.00 0.00
 7 43 6 -19.27 0.00
 0 44 6 2.29 0.00
 2 44 6 15.32 0.00
 4 44 6 -11.26 0.00
 6 44 6 -9.28 0.00
 1 45 6 7.96 0.00
 3 45 6 17.81 0.00
 2 1 7 161.29 0.00
 4 1 7 -6.00 0.00
 6 1 7 1.12 0.00
 8 1 7 -9.78 0.00
 10 1 7 3.76 0.00
 12 1 7 18.13 0.00
 14 1 7 1.34 0.00
 16 1 7 -8.05 0.00
 18 1 7 2.18 0.00
 20 1 7 3.37 0.00
 22 1 7 8.96 0.00
 1 2 7 473.02 0.00
 3 2 7 389.83 0.00
 5 2 7 -18.03 0.00
 7 2 7 -8.33 0.00
 9 2 7 17.66 0.00
 11 2 7 -2.15 0.00
 13 2 7 9.62 0.00
 15 2 7 -3.58 0.00
 17 2 7 -3.29 0.00
 19 2 7 8.33 0.00
 21 2 7 -3.70 0.00
 23 2 7 -3.22 0.00
 2 3 7 11.26 0.00
 4 3 7 -34.26 0.00
 6 3 7 -46.00 0.00
 8 3 7 -2.86 0.00
 10 3 7 1.27 0.00
 12 3 7 20.15 0.00
 14 3 7 -6.91 0.00
 16 3 7 -11.02 0.00
 18 3 7 8.81 0.00
 20 3 7 1.81 0.00
 22 3 7 18.52 0.00
 1 4 7 -124.72 0.00
 3 4 7 -74.81 0.00
 5 4 7 -20.86 0.00
 7 4 7 -28.60 0.00
 9 4 7 -25.32 0.00
 11 4 7 -5.56 0.00
 13 4 7 9.72 0.00
 15 4 7 4.01 0.00
 17 4 7 -5.98 0.00
 19 4 7 -13.33 0.00
 21 4 7 -16.76 0.00
 23 4 7 -4.24 0.00
 2 5 7 175.16 0.00
 4 5 7 20.29 0.00
 6 5 7 1.90 0.00
 8 5 7 4.14 0.00
 10 5 7 -1.21 0.00
 12 5 7 5.49 0.00
 14 5 7 7.09 0.00
 16 5 7 12.14 0.00
 18 5 7 2.63 0.00
 20 5 7 1.68 0.00
 22 5 7 0.12 0.00
 1 6 7 -134.52 0.00
 3 6 7 54.03 0.00
 5 6 7 59.82 0.00
 7 6 7 -8.43 0.00
 9 6 7 1.87 0.00
 11 6 7 6.13 0.00
 13 6 7 13.39 0.00
 15 6 7 -8.40 0.00
 17 6 7 -2.68 0.00
 19 6 7 -16.14 0.00
 21 6 7 -1.85 0.00
 23 6 7 8.78 0.00
 2 7 7 -9.59 0.00
 4 7 7 26.33 0.00
 6 7 7 -1.30 0.00
 8 7 7 1.16 0.00
 10 7 7 -16.03 0.00
 12 7 7 -14.73 0.00
 14 7 7 -19.13 0.00
 16 7 7 0.42 0.00
 18 7 7 -1.22 0.00
 20 7 7 -4.77 0.00
 22 7 7 -12.83 0.00
 1 8 7 -45.16 0.00
 3 8 7 -105.40 0.00
 5 8 7 -62.98 0.00
 7 8 7 -43.30 0.00
 9 8 7 16.32 0.00
 11 8 7 0.10 0.00
 13 8 7 -22.09 0.00
 15 8 7 -9.73 0.00
 17 8 7 -10.23 0.00
 19 8 7 -5.65 0.00
 21 8 7 -18.92 0.00
 23 8 7 13.79 0.00
 2 9 7 -70.33 0.00
 4 9 7 27.99 0.00
 6 9 7 34.95 0.00
 8 9 7 -3.74 0.00
 10 9 7 1.57 0.00
 12 9 7 11.52 0.00
 14 9 7 0.61 0.00
 16 9 7 9.94 0.00
 18 9 7 -12.28 0.00
 20 9 7 -5.27 0.00
 22 9 7 4.74 0.00
 1 10 7 -83.02 0.00
 3 10 7 14.26 0.00
 5 10 7 18.35 0.00
 7 10 7 28.65 0.00
 9 10 7 10.38 0.00
 11 10 7 15.75 0.00
 13 10 7 13.16 0.00
 15 10 7 8.54 0.00
 17 10 7 2.39 0.00
 19 10 7 -6.83 0.00
 21 10 7 -17.15 0.00
 23 10 7 -1.55 0.00
 2 11 7 16.47 0.00
 4 11 7 4.09 0.00
 6 11 7 -10.30 0.00
 8 11 7 -8.45 0.00
 10 11 7 -1.64 0.00
 12 11 7 5.12 0.00
 14 11 7 0.66 0.00
 16 11 7 -2.66 0.00
 18 11 7 -10.25 0.00
 20 11 7 5.44 0.00
 22 11 7 5.32 0.00
 1 12 7 -36.95 0.00
 3 12 7 -37.71 0.00
 5 12 7 3.48 0.00
 7 12 7 -1.50 0.00
 9 12 7 -16.18 0.00
 11 12 7 6.62 0.00
 13 12 7 3.43 0.00
 15 12 7 2.07 0.00
 17 12 7 16.49 0.00
 19 12 7 -0.42 0.00
 21 12 7 12.19 0.00
 23 12 7 0.89 0.00
 2 13 7 -2.80 0.00
 4 13 7 11.25 0.00
 6 13 7 2.75 0.00
 8 13 7 -0.88 0.00
 10 13 7 -1.51 0.00
 12 13 7 -6.17 0.00
 14 13 7 -5.01 0.00
 16 13 7 -8.05 0.00
 18 13 7 -25.23 0.00
 20 13 7 3.35 0.00
 22 13 7 4.62 0.00
 1 14 7 -4.72 0.00
 3 14 7 -30.45 0.00
 5 14 7 -20.56 0.00
 7 14 7 3.50 0.00
 9 14 7 -9.87 0.00
 11 14 7 -12.53 0.00
 13 14 7 -1.27 0.00
 15 14 7 -4.26 0.00
 17 14 7 -5.82 0.00
 19 14 7 10.66 0.00
 21 14 7 5.41 0.00
 2 15 7 -32.36 0.00
 4 15 7 29.50 0.00
 6 15 7 -6.85 0.00
 8 15 7 -0.49 0.00
 10 15 7 2.14 0.00
 12 15 7 10.42 0.00
 14 15 7 1.53 0.00
 16 15 7 -7.87 0.00
 18 15 7 -3.44 0.00
 20 15 7 7.76 0.00
 22 15 7 -1.85 0.00
 1 16 7 10.21 0.00
 3 16 7 -32.42 0.00
 5 16 7 -36.95 0.00
 7 16 7 -7.62 0.00
 9 16 7 4.83 0.00
 11 16 7 -7.73 0.00
 13 16 7 -5.49 0.00
 15 16 7 -11.06 0.00
 17 16 7 0.70 0.00
 19 16 7 14.17 0.00
 21 16 7 3.14 0.00
 2 17 7 -34.12 0.00
 4 17 7 -6.72 0.00
 6 17 7 2.21 0.00
 8 17 7 11.95 0.00
 10 17 7 -15.13 0.00
 12 17 7 13.47 0.00
 14 17 7 -1.77 0.00
 16 17 7 -28.13 0.00
 18 17 7 -11.56 0.00
 20 17 7 3.65 0.00
 22 17 7 -1.49 0.00
 1 18 7 -29.04 0.00
 3 18 7 -40.58 0.00
 5 18 7 -11.75 0.00
 7 18 7 -1.32 0.00
 9 18 7 -2.00 0.00
 11 18 7 4.55 0.00
 13 18 7 -19.21 0.00
 15 18 7 -0.47 0.00
 17 18 7 6.09 0.00
 19 18 7 3.73 0.00
 21 18 7 0.13 0.00
 2 19 7 -6.93 0.00
 4 19 7 -3.96 0.00
 6 19 7 9.92 0.00
 8 19 7 1.75 0.00
 10 19 7 4.34 0.00
 12 19 7 -8.32 0.00
 14 19 7 -6.42 0.00
 16 19 7 14.47 0.00
 18 19 7 19.65 0.00
 20 19 7 2.84 0.00
 1 20 7 2.33 0.00
 3 20 7 0.39 0.00
 5 20 7 -12.35 0.00
 7 20 7 17.68 0.00
 9 20 7 0.43 0.00
 11 20 7 -11.01 0.00
 13 20 7 -16.89 0.00
 15 20 7 -1.88 0.00
 17 20 7 8.99 0.00
 19 20 7 22.48 0.00
 21 20 7 -7.95 0.00
 2 21 7 -8.30 0.00
 4 21 7 4.70 0.00
 6 21 7 -29.03 0.00
 8 21 7 -17.21 0.00
 10 21 7 -12.33 0.00
 12 21 7 -9.16 0.00
 14 21 7 -11.86 0.00
 16 21 7 1.42 0.00
 18 21 7 10.84 0.00
 20 21 7 -13.99 0.00
 1 22 7 7.58 0.00
 3 22 7 13.09 0.00
 5 22 7 2.37 0.00
 7 22 7 0.15 0.00
 9 22 7 1.90 0.00
 11 22 7 10.84 0.00
 13 22 7 3.82 0.00
 15 22 7 -12.12 0.00
 17 22 7 4.09 0.00
 19 22 7 -8.46 0.00
 21 22 7 9.97 0.00
 2 23 7 0.91 0.00
 4 23 7 8.61 0.00
 6 23 7 1.83 0.00
 8 23 7 -11.46 0.00
 10 23 7 16.31 0.00
 12 23 7 -3.73 0.00
 14 23 7 0.80 0.00
 16 23 7 -4.20 0.00
 18 23 7 -7.41 0.00
 20 23 7 28.62 0.00
 1 24 7 4.66 0.00
 3 24 7 1.08 0.00
 5 24 7 -5.97 0.00
 7 24 7 10.55 0.00
 9 24 7 -2.80 0.00
 11 24 7 8.53 0.00
 13 24 7 -5.50 0.00
 15 24 7 3.27 0.00
 17 24 7 14.14 0.00
 19 24 7 10.79 0.00
 2 25 7 6.35 0.00
 4 25 7 6.29 0.00
 6 25 7 -7.86 0.00
 8 25 7 -1.00 0.00
 10 25 7 -7.74 0.00
 12 25 7 -13.13 0.00
 14 25 7 -2.74 0.00
 16 25 7 -2.67 0.00
 18 25 7 4.87 0.00
 20 25 7 9.57 0.00
 1 26 7 -2.26 0.00
 3 26 7 4.50 0.00
 5 26 7 -10.90 0.00
 7 26 7 -16.74 0.00
 9 26 7 -2.14 0.00
 11 26 7 11.84 0.00
 13 26 7 1.24 0.00
 15 26 7 7.33 0.00
 17 26 7 8.60 0.00
 19 26 7 -2.33 0.00
 2 27 7 -5.21 0.00
 4 27 7 7.49 0.00
 6 27 7 16.32 0.00
 8 27 7 -6.06 0.00
 10 27 7 7.03 0.00
 12 27 7 7.04 0.00
 14 27 7 15.56 0.00
 16 27 7 -0.14 0.00
 18 27 7 13.54 0.00
 1 28 7 8.31 0.00
 3 28 7 -3.04 0.00
 5 28 7 2.07 0.00
 7 28 7 7.18 0.00
 9 28 7 -10.63 0.00
 11 28 7 -10.13 0.00
 13 28 7 -31.08 0.00
 15 28 7 4.54 0.00
 17 28 7 5.57 0.00
 2 29 7 -7.36 0.00
 4 29 7 2.77 0.00
 6 29 7 13.84 0.00
 8 29 7 -0.20 0.00
 10 29 7 9.24 0.00
 12 29 7 5.07 0.00
 14 29 7 0.58 0.00
 16 29 7 -7.90 0.00
 18 29 7 -0.61 0.00
 1 30 7 -9.69 0.00
 3 30 7 0.42 0.00
 5 30 7 0.86 0.00
 7 30 7 26.47 0.00
 9 30 7 -1.91 0.00
 11 30 7 -2.74 0.00
 13 30 7 6.04 0.00
 15 30 7 -6.25 0.00
 17 30 7 -1.78 0.00
 2 31 7 4.36 0.00
 4 31 7 -0.14 0.00
 6 31 7 12.65 0.00
 8 31 7 3.10 0.00
 10 31 7 -8.95 0.00
 12 31 7 10.31 0.00
 14 31 7 15.44 0.00
 16 31 7 3.84 0.00
 1 32 7 -3.34 0.00
 3 32 7 -2.64 0.00
 5 32 7 -4.30 0.00
 7 32 7 -3.59 0.00
 9 32 7 11.20 0.00
 11 32 7 2.80 0.00
 13 32 7 3.65 0.00
 15 32 7 6.26 0.00
 17 32 7 -9.88 0.00
 2 33 7 19.45 0.00
 4 33 7 10.51 0.00
 6 33 7 -5.42 0.00
 8 33 7 -8.14 0.00
 10 33 7 1.80 0.00
 12 33 7 -23.04 0.00
 14 33 7 -14.71 0.00
 16 33 7 7.14 0.00
 1 34 7 -5.18 0.00
 3 34 7 7.28 0.00
 5 34 7 0.23 0.00
 7 34 7 -4.97 0.00
 9 34 7 1.21 0.00
 11 34 7 9.48 0.00
 13 34 7 14.75 0.00
 15 34 7 -10.20 0.00
 2 35 7 -1.01 0.00
 4 35 7 9.70 0.00
 6 35 7 3.25 0.00
 8 35 7 -1.11 0.00
 10 35 7 1.25 0.00
 12 35 7 -1.52 0.00
 14 35 7 -3.06 0.00
 1 36 7 10.49 0.00
 3 36 7 -3.08 0.00
 5 36 7 -10.52 0.00
 7 36 7 6.21 0.00
 9 36 7 -14.11 0.00
 11 36 7 1.67 0.00
 13 36 7 1.76 0.00
 2 37 7 10.64 0.00
 4 37 7 3.27 0.00
 6 37 7 -3.47 0.00
 8 37 7 -14.72 0.00
 10 37 7 -3.91 0.00
 12 37 7 8.90 0.00
 14 37 7 11.93 0.00
 1 38 7 10.34 0.00
 3 38 7 -2.67 0.00
 5 38 7 6.19 0.00
 7 38 7 6.75 0.00
 9 38 7 -4.79 0.00
 11 38 7 -5.51 0.00
 13 38 7 -9.81 0.00
 2 39 7 -6.74 0.00
 4 39 7 -0.87 0.00
 6 39 7 1.20 0.00
 8 39 7 14.19 0.00
 10 39 7 -15.62 0.00
 12 39 7 16.34 0.00
 1 40 7 -3.42 0.00
 3 40 7 -2.75 0.00
 5 40 7 -13.07 0.00
 7 40 7 -22.63 0.00
 9 40 7 -3.33 0.00
 11 40 7 10.62 0.00
 2 41 7 6.06 0.00
 4 41 7 5.84 0.00
 6 41 7 6.90 0.00
 8 41 7 0.29 0.00
 10 41 7 -12.65 0.00
 1 42 7 -6.93 0.00
 3 42 7 15.11 0.00
 5 42 7 17.26 0.00
 7 42 7 18.01 0.00
 9 42 7 4.62 0.00
 2 43 7 -17.23 0.00
 4 43 7 -9.85 0.00
 6 43 7 -6.52 0.00
 8 43 7 -0.71 0.00
 1 44 7 -3.18 0.00
 3 44 7 -9.31 0.00
 5 44 7 -5.36 0.00
 2 45 7 -12.66 0.00
 4 45 7 1.22 0.00
 4 0 8 -2.80 0.00
 8 0 8 -22.93 0.00
 10 0 8 29.85 0.00
 12 0 8 19.33 0.00
 14 0 8 14.16 0.00
 16 0 8 5.59 0.00
 18 0 8 -5.03 0.00
 20 0 8 9.44 0.00
 22 0 8 -6.77 0.00
 1 1 8 43.38 0.00
 3 1 8 122.21 0.00
 5 1 8 41.32 0.00
 7 1 8 20.60 0.00
 9 1 8 23.37 0.00
 11 1 8 16.68 0.00
 13 1 8 3.03 0.00
 15 1 8 -4.40 0.00
 17 1 8 -14.34 0.00
 19 1 8 -5.32 0.00
 21 1 8 8.30 0.00
 23 1 8 16.31 0.00
 0 2 8 50.50 0.00
 2 2 8 221.96 0.00
 4 2 8 -28.32 0.00
 6 2 8 -0.77 0.00
 8 2 8 22.50 0.00
 10 2 8 2.11 0.00
 12 2 8 -23.38 0.00
 14 2 8 -11.10 0.00
 16 2 8 2.17 0.00
 18 2 8 -1.36 0.00
 20 2 8 -3.77 0.00
 22 2 8 -14.36 0.00
 1 3 8 107.54 0.00
 3 3 8 107.61 0.00
 5 3 8 -13.16 0.00
 7 3 8 -10.41 0.00
 9 3 8 48.86 0.00
 11 3 8 15.74 0.00
 13 3 8 -0.13 0.00
 15 3 8 -2.10 0.00
 17 3 8 1.10 0.00
 19 3 8 -1.25 0.00
 21 3 8 8.84 0.00
 23 3 8 -9.16 0.00
 2 4 8 -393.07 0.00
 4 4 8 -133.07 0.00
 6 4 8 -23.64 0.00
 8 4 8 -3.58 0.00
 10 4 8 5.19 0.00
 12 4 8 -11.11 0.00
 14 4 8 15.83 0.00
 16 4 8 2.25 0.00
 18 4 8 -7.24 0.00
 20 4 8 4.25 0.00
 22 4 8 -0.20 0.00
 1 5 8 -143.58 0.00
 3 5 8 -5.20 0.00
 5 5 8 99.96 0.00
 7 5 8 32.25 0.00
 9 5 8 12.02 0.00
 11 5 8 -2.96 0.00
 13 5 8 -4.36 0.00
 15 5 8 13.97 0.00
 17 5 8 7.09 0.00
 19 5 8 10.25 0.00
 21 5 8 25.33 0.00
 23 5 8 -3.39 0.00
 2 6 8 138.91 0.00
 6 6 8 57.16 0.00
 8 6 8 -34.13 0.00
 10 6 8 -19.12 0.00
 12 6 8 6.67 0.00
 14 6 8 -13.57 0.00
 16 6 8 -9.96 0.00
 18 6 8 1.72 0.00
 20 6 8 -1.40 0.00
 22 6 8 -13.73 0.00
 1 7 8 5.29 0.00
 3 7 8 -4.50 0.00
 5 7 8 0.97 0.00
 7 7 8 56.72 0.00
 9 7 8 8.44 0.00
 11 7 8 -0.82 0.00
 13 7 8 -3.86 0.00
 15 7 8 -4.17 0.00
 17 7 8 0.62 0.00
 19 7 8 -8.94 0.00
 21 7 8 15.82 0.00
 23 7 8 -3.17 0.00
 0 8 8 51.40 0.00
 2 8 8 -38.88 0.00
 4 8 8 -0.73 0.00
 6 8 8 -55.97 0.00
 8 8 8 -14.72 0.00
 10 8 8 -10.85 0.00
 12 8 8 -2.13 0.00
 14 8 8 -3.72 0.00
 16 8 8 7.81 0.00
 18 8 8 4.02 0.00
 20 8 8 7.92 0.00
 22 8 8 -8.87 0.00
 1 9 8 -8.59 0.00
 3 9 8 -59.35 0.00
 5 9 8 30.85 0.00
 7 9 8 6.83 0.00
 9 9 8 -22.28 0.00
 11 9 8 23.02 0.00
 13 9 8 10.03 0.00
 15 9 8 13.49 0.00
 17 9 8 18.40 0.00
 19 9 8 -2.82 0.00
 21 9 8 1.04 0.00
 23 9 8 9.85 0.00
 0 10 8 -31.16 0.00
 2 10 8 31.04 0.00
 4 10 8 68.72 0.00
 6 10 8 51.85 0.00
 8 10 8 1.32 0.00
 10 10 8 7.14 0.00
 12 10 8 -6.78 0.00
 14 10 8 -5.13 0.00
 16 10 8 2.98 0.00
 18 10 8 10.12 0.00
 20 10 8 -6.59 0.00
 22 10 8 10.75 0.00
 1 11 8 -5.40 0.00
 3 11 8 -36.14 0.00
 5 11 8 -4.60 0.00
 7 11 8 -24.77 0.00
 9 11 8 -8.90 0.00
 11 11 8 3.08 0.00
 13 11 8 -4.16 0.00
 15 11 8 5.46 0.00
 17 11 8 -7.25 0.00
 19 11 8 0.86 0.00
 21 11 8 16.12 0.00
 23 11 8 2.86 0.00
 0 12 8 -47.40 0.00
 2 12 8 13.20 0.00
 4 12 8 8.18 0.00
 6 12 8 7.96 0.00
 8 12 8 30.14 0.00
 10 12 8 -12.86 0.00
 12 12 8 13.25 0.00
 14 12 8 -11.57 0.00
 16 12 8 -4.68 0.00
 18 12 8 17.36 0.00
 20 12 8 6.89 0.00
 22 12 8 2.35 0.00
 1 13 8 16.56 0.00
 3 13 8 -14.29 0.00
 5 13 8 -18.77 0.00
 7 13 8 16.14 0.00
 9 13 8 -1.49 0.00
 11 13 8 -14.24 0.00
 13 13 8 -0.41 0.00
 15 13 8 -0.69 0.00
 17 13 8 0.45 0.00
 19 13 8 8.00 0.00
 21 13 8 -6.37 0.00
 0 14 8 -34.11 0.00
 2 14 8 1.20 0.00
 4 14 8 20.15 0.00
 6 14 8 -4.01 0.00
 8 14 8 -13.97 0.00
 10 14 8 13.33 0.00
 12 14 8 -0.50 0.00
 14 14 8 -2.01 0.00
 16 14 8 1.73 0.00
 18 14 8 11.60 0.00
 20 14 8 13.64 0.00
 22 14 8 12.67 0.00
 1 15 8 15.32 0.00
 3 15 8 -14.81 0.00
 5 15 8 30.06 0.00
 7 15 8 1.48 0.00
 9 15 8 -11.84 0.00
 11 15 8 -9.76 0.00
 13 15 8 8.14 0.00
 15 15 8 1.53 0.00
 17 15 8 17.41 0.00
 19 15 8 23.43 0.00
 21 15 8 5.25 0.00
 0 16 8 -27.28 0.00
 2 16 8 -23.28 0.00
 4 16 8 -8.62 0.00
 6 16 8 12.39 0.00
 8 16 8 7.01 0.00
 10 16 8 5.89 0.00
 12 16 8 13.53 0.00
 14 16 8 -3.32 0.00
 16 16 8 4.38 0.00
 18 16 8 2.00 0.00
 20 16 8 -4.14 0.00
 22 16 8 10.00 0.00
 1 17 8 -21.82 0.00
 3 17 8 15.64 0.00
 5 17 8 -10.42 0.00
 7 17 8 0.17 0.00
 9 17 8 -29.94 0.00
 11 17 8 1.85 0.00
 13 17 8 5.75 0.00
 15 17 8 -3.33 0.00
 17 17 8 -10.66 0.00
 19 17 8 -17.51 0.00
 21 17 8 1.52 0.00
 0 18 8 -2.05 0.00
 2 18 8 -10.02 0.00
 4 18 8 -4.18 0.00
 6 18 8 -7.72 0.00
 8 18 8 2.51 0.00
 10 18 8 -1.77 0.00
 12 18 8 -5.94 0.00
 14 18 8 -11.78 0.00
 16 18 8 19.55 0.00
 18 18 8 8.57 0.00
 20 18 8 4.15 0.00
 1 19 8 12.60 0.00
 3 19 8 5.14 0.00
 5 19 8 16.19 0.00
 7 19 8 7.83 0.00
 9 19 8 -19.83 0.00
 11 19 8 5.01 0.00
 13 19 8 5.80 0.00
 15 19 8 -13.17 0.00
 17 19 8 -2.03 0.00
 19 19 8 2.39 0.00
 21 19 8 12.86 0.00
 0 20 8 0.49 0.00
 2 20 8 -8.52 0.00
 4 20 8 4.66 0.00
 6 20 8 9.18 0.00
 8 20 8 -9.97 0.00
 10 20 8 -9.54 0.00
 12 20 8 6.87 0.00
 14 20 8 10.52 0.00
 16 20 8 -0.86 0.00
 18 20 8 -0.65 0.00
 20 20 8 -4.16 0.00
 1 21 8 15.58 0.00
 3 21 8 -1.06 0.00
 5 21 8 -10.28 0.00
 7 21 8 -8.02 0.00
 9 21 8 -11.61 0.00
 11 21 8 -4.45 0.00
 13 21 8 5.86 0.00
 15 21 8 14.32 0.00
 17 21 8 7.81 0.00
 19 21 8 -3.80 0.00
 21 21 8 2.03 0.00
 0 22 8 -1.78 0.00
 2 22 8 5.55 0.00
 4 22 8 -13.84 0.00
 6 22 8 -11.33 0.00
 8 22 8 2.76 0.00
 10 22 8 0.58 0.00
 12 22 8 10.96 0.00
 14 22 8 1.16 0.00
 16 22 8 -15.27 0.00
 18 22 8 -2.02 0.00
 20 22 8 -3.76 0.00
 1 23 8 2.86 0.00
 3 23 8 6.26 0.00
 5 23 8 -0.61 0.00
 7 23 8 5.79 0.00
 9 23 8 5.60 0.00
 11 23 8 1.63 0.00
 13 23 8 4.99 0.00
 15 23 8 14.95 0.00
 17 23 8 10.21 0.00
 19 23 8 25.07 0.00
 0 24 8 -2.30 0.00
 2 24 8 -0.12 0.00
 4 24 8 -11.89 0.00
 6 24 8 5.92 0.00
 8 24 8 -2.75 0.00
 10 24 8 -4.83 0.00
 12 24 8 2.66 0.00
 14 24 8 -4.87 0.00
 16 24 8 -2.59 0.00
 18 24 8 12.05 0.00
 20 24 8 -0.34 0.00
 1 25 8 -6.40 0.00
 3 25 8 -2.88 0.00
 5 25 8 -8.67 0.00
 7 25 8 1.72 0.00
 9 25 8 -7.86 0.00
 11 25 8 -15.74 0.00
 13 25 8 -5.12 0.00
 15 25 8 3.63 0.00
 17 25 8 -4.83 0.00
 19 25 8 31.22 0.00
 0 26 8 -9.14 0.00
 2 26 8 -10.68 0.00
 4 26 8 -2.63 0.00
 6 26 8 -11.87 0.00
 8 26 8 -18.37 0.00
 10 26 8 -10.09 0.00
 12 26 8 2.89 0.00
 14 26 8 3.12 0.00
 16 26 8 20.32 0.00
 18 26 8 1.36 0.00
 1 27 8 1.12 0.00
 3 27 8 -1.76 0.00
 5 27 8 -7.17 0.00
 7 27 8 -0.96 0.00
 9 27 8 -0.47 0.00
 11 27 8 -6.04 0.00
 13 27 8 15.39 0.00
 15 27 8 -14.34 0.00
 17 27 8 -1.56 0.00
 19 27 8 7.73 0.00
 0 28 8 11.88 0.00
 2 28 8 18.77 0.00
 4 28 8 10.16 0.00
 6 28 8 -11.67 0.00
 8 28 8 -11.02 0.00
 10 28 8 1.83 0.00
 12 28 8 14.50 0.00
 14 28 8 17.78 0.00
 16 28 8 12.75 0.00
 18 28 8 -1.52 0.00
 1 29 8 -14.39 0.00
 3 29 8 -8.31 0.00
 5 29 8 -15.00 0.00
 7 29 8 -12.96 0.00
 9 29 8 -8.04 0.00
 11 29 8 -5.47 0.00
 13 29 8 5.55 0.00
 15 29 8 -0.63 0.00
 17 29 8 17.83 0.00
 0 30 8 14.92 0.00
 2 30 8 7.01 0.00
 4 30 8 7.96 0.00
 6 30 8 5.71 0.00
 8 30 8 0.46 0.00
 10 30 8 -3.08 0.00
 12 30 8 6.71 0.00
 14 30 8 18.15 0.00
 16 30 8 -9.64 0.00
 18 30 8 -2.87 0.00
 1 31 8 6.78 0.00
 3 31 8 -4.68 0.00
 5 31 8 -8.52 0.00
 7 31 8 9.74 0.00
 9 31 8 -13.95 0.00
 11 31 8 -0.47 0.00
 13 31 8 0.18 0.00
 15 31 8 8.37 0.00
 17 31 8 2.07 0.00
 0 32 8 -3.78 0.00
 2 32 8 -8.79 0.00
 4 32 8 -6.40 0.00
 6 32 8 18.30 0.00
 8 32 8 -2.23 0.00
 10 32 8 -3.20 0.00
 12 32 8 13.37 0.00
 14 32 8 1.03 0.00
 16 32 8 -13.73 0.00
 1 33 8 3.29 0.00
 3 33 8 -3.05 0.00
 5 33 8 -0.03 0.00
 7 33 8 -15.40 0.00
 9 33 8 -11.49 0.00
 11 33 8 17.09 0.00
 13 33 8 16.72 0.00
 15 33 8 -3.07 0.00
 0 34 8 -15.02 0.00
 2 34 8 17.14 0.00
 4 34 8 16.50 0.00
 6 34 8 1.97 0.00
 8 34 8 -1.46 0.00
 10 34 8 -0.75 0.00
 12 34 8 -2.80 0.00
 14 34 8 -16.17 0.00
 16 34 8 -9.86 0.00
 1 35 8 10.08 0.00
 3 35 8 1.83 0.00
 5 35 8 10.58 0.00
 7 35 8 11.83 0.00
 9 35 8 -6.49 0.00
 11 35 8 5.47 0.00
 13 35 8 20.54 0.00
 15 35 8 25.67 0.00
 0 36 8 -0.03 0.00
 2 36 8 11.83 0.00
 4 36 8 2.20 0.00
 6 36 8 9.49 0.00
 8 36 8 1.54 0.00
 10 36 8 16.20 0.00
 12 36 8 3.00 0.00
 14 36 8 -11.11 0.00
 1 37 8 7.67 0.00
 3 37 8 -14.59 0.00
 5 37 8 -1.57 0.00
 7 37 8 -3.83 0.00
 9 37 8 10.03 0.00
 11 37 8 3.31 0.00
 13 37 8 0.00 0.00
 0 38 8 20.22 0.00
 2 38 8 -3.03 0.00
 4 38 8 -14.80 0.00
 6 38 8 18.21 0.00
 8 38 8 -7.28 0.00
 10 38 8 7.76 0.00
 12 38 8 15.30 0.00
 1 39 8 12.32 0.00
 3 39 8 -3.95 0.00
 5 39 8 -2.73 0.00
 7 39 8 2.62 0.00
 9 39 8 4.32 0.00
 11 39 8 1.36 0.00
 0 40 8 10.67 0.00
 2 40 8 3.47 0.00
 4 40 8 11.34 0.00
 6 40 8 5.54 0.00
 8 40 8 -1.99 0.00
 10 40 8 -2.11 0.00
 1 41 8 16.36 0.00
 3 41 8 -13.91 0.00
 5 41 8 -10.42 0.00
 7 41 8 -20.20 0.00
 9 41 8 -5.77 0.00
 0 42 8 7.08 0.00
 2 42 8 19.01 0.00
 4 42 8 6.27 0.00
 6 42 8 9.18 0.00
 8 42 8 -6.95 0.00
 1 43 8 -3.61 0.00
 3 43 8 -5.96 0.00
 5 43 8 -0.96 0.00
 7 43 8 0.13 0.00
 0 44 8 5.77 0.00
 2 44 8 -3.36 0.00
 4 44 8 14.22 0.00
 6 44 8 12.51 0.00
 1 45 8 1.13 0.00
 3 45 8 -3.33 0.00
 2 1 9 66.90 0.00
 4 1 9 -29.95 0.00
 6 1 9 -24.53 0.00
 8 1 9 -23.62 0.00
 10 1 9 5.54 0.00
 12 1 9 15.06 0.00
 14 1 9 -2.69 0.00
 16 1 9 -8.44 0.00
 18 1 9 -5.78 0.00
 20 1 9 -0.93 0.00
 22 1 9 -2.81 0.00
 3 2 9 187.91 0.00
 5 2 9 -15.86 0.00
 7 2 9 18.40 0.00
 9 2 9 20.26 0.00
 11 2 9 14.64 0.00
 13 2 9 -4.03 0.00
 15 2 9 -8.15 0.00
 17 2 9 8.30 0.00
 19 2 9 2.14 0.00
 21 2 9 -6.62 0.00
 23 2 9 -6.56 0.00
 2 3 9 46.86 0.00
 4 3 9 -166.97 0.00
 6 3 9 -100.68 0.00
 8 3 9 -30.22 0.00
 10 3 9 -5.43 0.00
 12 3 9 18.20 0.00
 14 3 9 2.16 0.00
 16 3 9 -5.94 0.00
 18 3 9 -2.86 0.00
 20 3 9 -8.42 0.00
 22 3 9 6.51 0.00
 3 4 9 -58.90 0.00
 5 4 9 -3.80 0.00
 7 4 9 11.42 0.00
 9 4 9 -22.48 0.00
 11 4 9 -6.93 0.00
 13 4 9 2.00 0.00
 15 4 9 -0.78 0.00
 17 4 9 5.32 0.00
 19 4 9 -4.65 0.00
 21 4 9 -5.16 0.00
 23 4 9 6.36 0.00
 2 5 9 171.93 0.00
 4 5 9 -8.83 0.00
 6 5 9 -47.32 0.00
 8 5 9 20.84 0.00
 10 5 9 7.03 0.00
 12 5 9 -11.24 0.00
 14 5 9 0.22 0.00
 16 5 9 8.85 0.00
 18 5 9 -3.40 0.00
 20 5 9 -5.42 0.00
 22 5 9 -4.44 0.00
 1 6 9 121.57 0.00
 3 6 9 86.78 0.00
 5 6 9 24.36 0.00
 7 6 9 -13.28 0.00
 9 6 9 -5.80 0.00
 11 6 9 3.79 0.00
 13 6 9 5.95 0.00
 15 6 9 -0.28 0.00
 17 6 9 -2.97 0.00
 19 6 9 -8.35 0.00
 21 6 9 -2.35 0.00
 23 6 9 7.08 0.00
 2 7 9 112.50 0.00
 4 7 9 32.23 0.00
 6 7 9 -70.54 0.00
 8 7 9 -32.57 0.00
 10 7 9 -23.77 0.00
 12 7 9 -6.98 0.00
 14 7 9 4.26 0.00
 16 7 9 10.72 0.00
 18 7 9 -3.31 0.00
 20 7 9 -20.61 0.00
 22 7 9 -3.72 0.00
 1 8 9 98.81 0.00
 3 8 9 21.08 0.00
 5 8 9 -44.21 0.00
 7 8 9 -43.12 0.00
 9 8 9 -18.38 0.00
 11 8 9 -22.40 0.00
 13 8 9 -7.99 0.00
 15 8 9 7.49 0.00
 17 8 9 -0.33 0.00
 19 8 9 -6.90 0.00
 21 8 9 -4.35 0.00
 23 8 9 -2.21 0.00
 2 9 9 29.52 0.00
 4 9 9 -24.38 0.00
 6 9 9 -4.62 0.00
 8 9 9 15.67 0.00
 10 9 9 19.61 0.00
 12 9 9 4.43 0.00
 14 9 9 -6.42 0.00
 16 9 9 4.02 0.00
 18 9 9 -10.38 0.00
 20 9 9 -6.74 0.00
 22 9 9 -4.84 0.00
 1 10 9 3.20 0.00
 3 10 9 38.19 0.00
 5 10 9 -7.39 0.00
 7 10 9 -17.76 0.00
 9 10 9 14.48 0.00
 11 10 9 6.41 0.00
 13 10 9 15.96 0.00
 15 10 9 7.99 0.00
 17 10 9 9.60 0.00
 19 10 9 -0.88 0.00
 21 10 9 3.05 0.00
 23 10 9 13.33 0.00
 2 11 9 15.41 0.00
 4 11 9 22.44 0.00
 6 11 9 -10.04 0.00
 8 11 9 -6.53 0.00
 10 11 9 3.27 0.00
 12 11 9 1.98 0.00
 14 11 9 17.64 0.00
 16 11 9 5.29 0.00
 18 11 9 3.76 0.00
 20 11 9 10.34 0.00
 22 11 9 -16.03 0.00
 1 12 9 60.33 0.00
 3 12 9 54.96 0.00
 5 12 9 -4.90 0.00
 7 12 9 -29.95 0.00
 9 12 9 -6.49 0.00
 11 12 9 2.88 0.00
 13 12 9 -1.76 0.00
 15 12 9 -1.16 0.00
 17 12 9 6.59 0.00
 19 12 9 -1.99 0.00
 21 12 9 -6.25 0.00
 23 12 9 8.58 0.00
 2 13 9 -3.44 0.00
 4 13 9 -24.50 0.00
 6 13 9 -18.95 0.00
 8 13 9 5.41 0.00
 10 13 9 -7.84 0.00
 12 13 9 -17.85 0.00
 14 13 9 2.36 0.00
 16 13 9 -19.96 0.00
 18 13 9 -4.90 0.00
 20 13 9 -0.02 0.00
 22 13 9 -8.59 0.00
 1 14 9 -2.20 0.00
 3 14 9 0.86 0.00
 5 14 9 -9.67 0.00
 7 14 9 9.09 0.00
 9 14 9 -13.71 0.00
 11 14 9 7.15 0.00
 13 14 9 6.71 0.00
 15 14 9 -3.99 0.00
 17 14 9 10.93 0.00
 19 14 9 0.82 0.00
 21 14 9 -0.86 0.00
 2 15 9 -26.19 0.00
 4 15 9 -5.49 0.00
 6 15 9 24.21 0.00
 8 15 9 14.05 0.00
 10 15 9 1.24 0.00
 12 15 9 0.58 0.00
 14 15 9 -1.71 0.00
 16 15 9 9.66 0.00
 18 15 9 2.71 0.00
 20 15 9 -11.78 0.00
 22 15 9 -0.40 0.00
 1 16 9 23.50 0.00
 3 16 9 8.70 0.00
 5 16 9 4.91 0.00
 7 16 9 -2.43 0.00
 9 16 9 0.26 0.00
 11 16 9 -3.97 0.00
 13 16 9 11.86 0.00
 15 16 9 7.02 0.00
 17 16 9 2.18 0.00
 19 16 9 5.40 0.00
 21 16 9 7.29 0.00
 2 17 9 -32.60 0.00
 4 17 9 -29.81 0.00
 6 17 9 -17.75 0.00
 8 17 9 -3.20 0.00
 10 17 9 -2.72 0.00
 12 17 9 8.89 0.00
 14 17 9 3.64 0.00
 16 17 9 -3.92 0.00
 18 17 9 -6.94 0.00
 20 17 9 -1.38 0.00
 22 17 9 -1.36 0.00
 1 18 9 -13.60 0.00
 3 18 9 9.08 0.00
 5 18 9 15.70 0.00
 7 18 9 30.30 0.00
 9 18 9 19.12 0.00
 11 18 9 0.06 0.00
 13 18 9 -10.64 0.00
 15 18 9 3.36 0.00
 17 18 9 3.97 0.00
 19 18 9 -3.18 0.00
 21 18 9 -1.39 0.00
 2 19 9 -5.72 0.00
 4 19 9 -10.80 0.00
 6 19 9 19.50 0.00
 8 19 9 -1.14 0.00
 10 19 9 8.60 0.00
 12 19 9 -2.88 0.00
 14 19 9 -8.71 0.00
 16 19 9 -8.79 0.00
 18 19 9 -3.23 0.00
 20 19 9 3.57 0.00
 1 20 9 1.82 0.00
 3 20 9 0.82 0.00
 5 20 9 1.52 0.00
 7 20 9 12.06 0.00
 9 20 9 10.75 0.00
 11 20 9 4.50 0.00
 13 20 9 16.10 0.00
 15 20 9 23.24 0.00
 17 20 9 12.02 0.00
 19 20 9 -6.24 0.00
 21 20 9 -8.49 0.00
 2 21 9 -7.14 0.00
 4 21 9 -7.27 0.00
 6 21 9 -18.01 0.00
 8 21 9 -22.79 0.00
 10 21 9 2.83 0.00
 12 21 9 -17.82 0.00
 14 21 9 -24.33 0.00
 16 21 9 28.11 0.00
 18 21 9 -2.31 0.00
 20 21 9 1.53 0.00
 1 22 9 -5.58 0.00
 3 22 9 12.93 0.00
 5 22 9 10.33 0.00
 7 22 9 6.96 0.00
 9 22 9 15.26 0.00
 11 22 9 3.18 0.00
 13 22 9 4.14 0.00
 15 22 9 4.70 0.00
 17 22 9 -1.52 0.00
 19 22 9 -1.22 0.00
 2 23 9 -9.41 0.00
 4 23 9 -4.20 0.00
 6 23 9 5.66 0.00
 8 23 9 7.65 0.00
 10 23 9 0.18 0.00
 12 23 9 1.26 0.00
 14 23 9 0.76 0.00
 16 23 9 -3.16 0.00
 18 23 9 -17.80 0.00
 20 23 9 22.30 0.00
 1 24 9 -11.64 0.00
 3 24 9 -18.47 0.00
 5 24 9 18.65 0.00
 7 24 9 15.55 0.00
 9 24 9 0.10 0.00
 11 24 9 -12.46 0.00
 13 24 9 4.91 0.00
 15 24 9 5.66 0.00
 17 24 9 5.66 0.00
 19 24 9 2.48 0.00
 2 25 9 -0.83 0.00
 4 25 9 -19.12 0.00
 6 25 9 -14.95 0.00
 8 25 9 -16.07 0.00
 10 25 9 -7.61 0.00
 12 25 9 -3.58 0.00
 14 25 9 6.20 0.00
 16 25 9 -28.27 0.00
 18 25 9 -14.58 0.00
 1 26 9 5.26 0.00
 3 26 9 -3.75 0.00
 5 26 9 14.28 0.00
 7 26 9 5.50 0.00
 9 26 9 -3.40 0.00
 11 26 9 8.23 0.00
 13 26 9 -3.32 0.00
 15 26 9 0.29 0.00
 17 26 9 -1.49 0.00
 19 26 9 -0.82 0.00
 2 27 9 4.35 0.00
 4 27 9 8.01 0.00
 6 27 9 4.46 0.00
 8 27 9 -5.30 0.00
 10 27 9 -0.51 0.00
 12 27 9 7.54 0.00
 14 27 9 1.18 0.00
 16 27 9 -10.60 0.00
 18 27 9 6.16 0.00
 1 28 9 -2.90 0.00
 3 28 9 -5.04 0.00
 5 28 9 -9.54 0.00
 7 28 9 -2.28 0.00
 9 28 9 7.85 0.00
 11 28 9 1.40 0.00
 13 28 9 4.45 0.00
 15 28 9 7.16 0.00
 17 28 9 -5.75 0.00
 2 29 9 -3.45 0.00
 4 29 9 -8.24 0.00
 6 29 9 0.29 0.00
 8 29 9 -0.90 0.00
 10 29 9 -18.39 0.00
 12 29 9 11.66 0.00
 14 29 9 -6.22 0.00
 16 29 9 10.99 0.00
 18 29 9 5.24 0.00
 1 30 9 4.87 0.00
 3 30 9 5.10 0.00
 5 30 9 -1.42 0.00
 7 30 9 -26.44 0.00
 9 30 9 -8.38 0.00
 11 30 9 -4.35 0.00
 13 30 9 -9.71 0.00
 15 30 9 -8.24 0.00
 17 30 9 -7.71 0.00
 2 31 9 8.62 0.00
 4 31 9 18.25 0.00
 6 31 9 13.57 0.00
 8 31 9 -6.08 0.00
 10 31 9 -6.22 0.00
 12 31 9 2.49 0.00
 14 31 9 8.35 0.00
 16 31 9 12.24 0.00
 1 32 9 -12.90 0.00
 3 32 9 -10.76 0.00
 5 32 9 -8.64 0.00
 7 32 9 -8.13 0.00
 9 32 9 8.96 0.00
 11 32 9 4.61 0.00
 13 32 9 11.05 0.00
 15 32 9 -3.89 0.00
 17 32 9 -10.32 0.00
 2 33 9 2.76 0.00
 4 33 9 13.40 0.00
 6 33 9 -11.92 0.00
 8 33 9 3.73 0.00
 10 33 9 10.52 0.00
 12 33 9 0.72 0.00
 14 33 9 -4.19 0.00
 16 33 9 11.62 0.00
 1 34 9 -17.68 0.00
 3 34 9 5.72 0.00
 5 34 9 -1.58 0.00
 7 34 9 -7.41 0.00
 9 34 9 -3.00 0.00
 11 34 9 8.59 0.00
 13 34 9 -17.62 0.00
 15 34 9 1.78 0.00
 2 35 9 13.45 0.00
 4 35 9 -0.36 0.00
 6 35 9 0.89 0.00
 8 35 9 -0.77 0.00
 10 35 9 16.84 0.00
 12 35 9 -1.97 0.00
 14 35 9 1.22 0.00
 1 36 9 11.04 0.00
 3 36 9 14.88 0.00
 5 36 9 -5.64 0.00
 7 36 9 -0.65 0.00
 9 36 9 6.72 0.00
 11 36 9 11.82 0.00
 13 36 9 -2.80 0.00
 2 37 9 -26.29 0.00
 4 37 9 -7.12 0.00
 6 37 9 6.40 0.00
 8 37 9 -27.93 0.00
 10 37 9 -1.05 0.00
 12 37 9 -0.03 0.00
 14 37 9 -0.76 0.00
 1 38 9 7.76 0.00
 3 38 9 10.58 0.00
 5 38 9 -4.96 0.00
 7 38 9 -7.34 0.00
 9 38 9 -0.20 0.00
 11 38 9 4.97 0.00
 13 38 9 5.86 0.00
 2 39 9 11.10 0.00
 4 39 9 2.44 0.00
 6 39 9 0.72 0.00
 8 39 9 -22.65 0.00
 10 39 9 -4.30 0.00
 12 39 9 0.64 0.00
 1 40 9 -3.05 0.00
 3 40 9 3.34 0.00
 5 40 9 3.10 0.00
 7 40 9 -14.50 0.00
 9 40 9 -3.40 0.00
 11 40 9 0.38 0.00
 2 41 9 5.99 0.00
 4 41 9 -1.63 0.00
 6 41 9 -3.20 0.00
 8 41 9 -17.65 0.00
 10 41 9 -11.86 0.00
 1 42 9 -1.87 0.00
 3 42 9 -1.29 0.00
 5 42 9 -2.31 0.00
 7 42 9 0.31 0.00
 9 42 9 2.24 0.00
 2 43 9 -8.15 0.00
 4 43 9 5.30 0.00
 6 43 9 4.38 0.00
 8 43 9 3.16 0.00
 1 44 9 -2.93 0.00
 3 44 9 19.12 0.00
 5 44 9 5.69 0.00
 2 45 9 7.11 0.00
 0 0 10 15.89 0.00
 2 0 10 350.20 0.00
 4 0 10 65.63 0.00
 6 0 10 18.99 0.00
 8 0 10 113.17 0.00
 10 0 10 43.56 0.00
 12 0 10 2.73 0.00
 14 0 10 -18.03 0.00
 16 0 10 -20.75 0.00
 18 0 10 9.03 0.00
 20 0 10 5.70 0.00
 22 0 10 4.05 0.00
 1 1 10 72.32 0.00
 3 1 10 66.91 0.00
 5 1 10 -5.33 0.00
 7 1 10 9.65 0.00
 9 1 10 15.66 0.00
 11 1 10 16.95 0.00
 13 1 10 -8.25 0.00
 15 1 10 14.20 0.00
 17 1 10 8.41 0.00
 19 1 10 0.05 0.00
 21 1 10 2.97 0.00
 23 1 10 -12.89 0.00
 0 2 10 -239.49 0.00
 2 2 10 -209.49 0.00
 4 2 10 -92.72 0.00
 6 2 10 -7.35 0.00
 8 2 10 29.43 0.00
 10 2 10 40.18 0.00
 12 2 10 13.14 0.00
 14 2 10 -2.08 0.00
 16 2 10 7.21 0.00
 18 2 10 -0.33 0.00
 20 2 10 10.96 0.00
 22 2 10 -0.16 0.00
 1 3 10 172.80 0.00
 3 3 10 76.80 0.00
 5 3 10 -2.10 0.00
 7 3 10 -6.53 0.00
 9 3 10 -3.05 0.00
 11 3 10 -8.15 0.00
 13 3 10 -6.44 0.00
 15 3 10 4.60 0.00
 17 3 10 -1.31 0.00
 19 3 10 -10.20 0.00
 21 3 10 -5.15 0.00
 23 3 10 16.32 0.00
 0 4 10 -246.62 0.00
 2 4 10 -6.65 0.00
 4 4 10 61.58 0.00
 6 4 10 74.70 0.00
 8 4 10 52.32 0.00
 10 4 10 14.74 0.00
 12 4 10 -0.90 0.00
 14 4 10 7.52 0.00
 16 4 10 4.28 0.00
 18 4 10 7.02 0.00
 20 4 10 9.64 0.00
 22 4 10 7.81 0.00
 1 5 10 -59.21 0.00
 3 5 10 28.91 0.00
 5 5 10 21.60 0.00
 7 5 10 38.19 0.00
 9 5 10 21.90 0.00
 11 5 10 -27.22 0.00
 13 5 10 3.12 0.00
 15 5 10 7.11 0.00
 17 5 10 -0.01 0.00
 19 5 10 0.70 0.00
 21 5 10 -4.31 0.00
 23 5 10 5.68 0.00
 0 6 10 -246.62 0.00
 2 6 10 -89.15 0.00
 4 6 10 25.18 0.00
 6 6 10 0.95 0.00
 8 6 10 25.74 0.00
 10 6 10 6.10 0.00
 12 6 10 9.93 0.00
 14 6 10 23.94 0.00
 16 6 10 8.00 0.00
 18 6 10 6.89 0.00
 20 6 10 12.60 0.00
 22 6 10 6.35 0.00
 1 7 10 90.71 0.00
 3 7 10 28.31 0.00
 5 7 10 63.36 0.00
 7 7 10 -6.68 0.00
 9 7 10 -1.67 0.00
 11 7 10 -29.46 0.00
 13 7 10 -13.77 0.00
 15 7 10 -13.29 0.00
 17 7 10 -8.91 0.00
 19 7 10 -4.36 0.00
 21 7 10 -13.39 0.00
 23 7 10 -6.82 0.00
 0 8 10 52.29 0.00
 2 8 10 -15.07 0.00
 4 8 10 -26.14 0.00
 6 8 10 29.18 0.00
 8 8 10 -16.85 0.00
 10 8 10 -2.59 0.00
 12 8 10 -1.64 0.00
 14 8 10 -6.05 0.00
 16 8 10 -0.42 0.00
 18 8 10 8.99 0.00
 20 8 10 2.12 0.00
 22 8 10 10.31 0.00
 1 9 10 20.63 0.00
 3 9 10 21.79 0.00
 5 9 10 -29.37 0.00
 7 9 10 51.54 0.00
 9 9 10 13.19 0.00
 11 9 10 15.88 0.00
 13 9 10 8.47 0.00
 15 9 10 2.07 0.00
 17 9 10 2.47 0.00
 19 9 10 4.17 0.00
 21 9 10 13.67 0.00
 23 9 10 -6.41 0.00
 2 10 10 -95.72 0.00
 4 10 10 17.41 0.00
 6 10 10 -7.45 0.00
 8 10 10 -0.63 0.00
 10 10 10 2.32 0.00
 12 10 10 3.12 0.00
 14 10 10 1.13 0.00
 16 10 10 0.41 0.00
 18 10 10 1.04 0.00
 20 10 10 11.50 0.00
 22 10 10 -2.33 0.00
 1 11 10 30.91 0.00
 3 11 10 19.44 0.00
 5 11 10 20.95 0.00
 7 11 10 18.72 0.00
 9 11 10 -3.88 0.00
 11 11 10 -17.68 0.00
 13 11 10 -1.37 0.00
 15 11 10 1.14 0.00
 17 11 10 -16.15 0.00
 19 11 10 -19.89 0.00
 21 11 10 1.97 0.00
 23 11 10 9.23 0.00
 0 12 10 19.99 0.00
 2 12 10 -11.49 0.00
 4 12 10 -21.86 0.00
 6 12 10 1.15 0.00
 8 12 10 -9.75 0.00
 10 12 10 1.47 0.00
 12 12 10 -5.56 0.00
 14 12 10 -17.21 0.00
 16 12 10 -6.12 0.00
 18 12 10 -2.48 0.00
 20 12 10 -7.46 0.00
 22 12 10 0.69 0.00
 1 13 10 -14.52 0.00
 3 13 10 -10.80 0.00
 5 13 10 -22.87 0.00
 7 13 10 -0.11 0.00
 9 13 10 5.77 0.00
 11 13 10 6.91 0.00
 13 13 10 2.87 0.00
 15 13 10 3.47 0.00
 17 13 10 5.21 0.00
 19 13 10 6.99 0.00
 21 13 10 6.68 0.00
 0 14 10 37.07 0.00
 2 14 10 -16.11 0.00
 4 14 10 -43.88 0.00
 6 14 10 -12.60 0.00
 8 14 10 9.38 0.00
 10 14 10 4.65 0.00
 12 14 10 5.73 0.00
 14 14 10 3.48 0.00
 16 14 10 1.24 0.00
 18 14 10 0.46 0.00
 20 14 10 8.95 0.00
 22 14 10 1.02 0.00
 1 15 10 13.34 0.00
 3 15 10 -2.77 0.00
 5 15 10 2.32 0.00
 7 15 10 13.93 0.00
 9 15 10 -15.44 0.00
 11 15 10 -4.44 0.00
 13 15 10 14.73 0.00
 15 15 10 -17.37 0.00
 17 15 10 2.34 0.00
 19 15 10 -5.85 0.00
 21 15 10 0.27 0.00
 0 16 10 -1.54 0.00
 2 16 10 -17.45 0.00
 4 16 10 -19.48 0.00
 6 16 10 -9.69 0.00
 8 16 10 -6.13 0.00
 10 16 10 19.32 0.00
 12 16 10 0.34 0.00
 14 16 10 -9.10 0.00
 16 16 10 4.58 0.00
 18 16 10 -13.56 0.00
 20 16 10 7.36 0.00
 22 16 10 4.82 0.00
 1 17 10 -10.38 0.00
 3 17 10 -15.83 0.00
 5 17 10 -38.14 0.00
 7 17 10 -10.71 0.00
 9 17 10 -12.12 0.00
 11 17 10 -3.24 0.00
 13 17 10 -0.16 0.00
 15 17 10 13.52 0.00
 17 17 10 2.49 0.00
 19 17 10 -12.73 0.00
 21 17 10 4.91 0.00
 0 18 10 25.71 0.00
 2 18 10 -4.69 0.00
 4 18 10 -6.86 0.00
 6 18 10 -10.89 0.00
 8 18 10 6.39 0.00
 10 18 10 14.13 0.00
 12 18 10 2.41 0.00
 14 18 10 -8.03 0.00
 16 18 10 -18.00 0.00
 18 18 10 -5.09 0.00
 20 18 10 4.71 0.00
 1 19 10 23.46 0.00
 3 19 10 16.13 0.00
 5 19 10 20.05 0.00
 7 19 10 15.03 0.00
 9 19 10 20.20 0.00
 11 19 10 -3.20 0.00
 13 19 10 6.76 0.00
 15 19 10 -12.93 0.00
 17 19 10 -0.40 0.00
 19 19 10 -3.96 0.00
 21 19 10 0.87 0.00
 0 20 10 3.77 0.00
 2 20 10 16.44 0.00
 4 20 10 -30.08 0.00
 6 20 10 5.38 0.00
 8 20 10 -4.55 0.00
 10 20 10 -10.38 0.00
 12 20 10 -7.93 0.00
 14 20 10 -1.48 0.00
 16 20 10 -4.56 0.00
 18 20 10 -2.38 0.00
 20 20 10 3.34 0.00
 1 21 10 -0.19 0.00
 3 21 10 2.07 0.00
 5 21 10 -9.02 0.00
 7 21 10 -13.16 0.00
 9 21 10 -8.50 0.00
 11 21 10 -2.90 0.00
 13 21 10 -2.60 0.00
 15 21 10 0.51 0.00
 17 21 10 3.32 0.00
 19 21 10 -3.89 0.00
 21 21 10 8.63 0.00
 0 22 10 25.46 0.00
 2 22 10 1.49 0.00
 4 22 10 -14.81 0.00
 6 22 10 -3.32 0.00
 8 22 10 10.45 0.00
 10 22 10 12.78 0.00
 12 22 10 13.25 0.00
 14 22 10 -2.85 0.00
 16 22 10 -14.58 0.00
 18 22 10 -8.18 0.00
 20 22 10 2.29 0.00
 1 23 10 14.31 0.00
 3 23 10 1.08 0.00
 5 23 10 5.06 0.00
 7 23 10 11.77 0.00
 9 23 10 12.81 0.00
 11 23 10 -5.51 0.00
 13 23 10 2.83 0.00
 15 23 10 18.64 0.00
 17 23 10 -20.73 0.00
 19 23 10 -13.28 0.00
 0 24 10 -0.53 0.00
 2 24 10 -4.94 0.00
 4 24 10 -12.01 0.00
 6 24 10 -7.29 0.00
 8 24 10 4.61 0.00
 10 24 10 -13.56 0.00
 12 24 10 -6.48 0.00
 14 24 10 -14.69 0.00
 16 24 10 -1.05 0.00
 18 24 10 0.51 0.00
 20 24 10 11.97 0.00
 1 25 10 -9.94 0.00
 3 25 10 -15.00 0.00
 5 25 10 -3.98 0.00
 7 25 10 2.84 0.00
 9 25 10 -4.23 0.00
 11 25 10 -24.07 0.00
 13 25 10 -9.84 0.00
 15 25 10 5.30 0.00
 17 25 10 -16.51 0.00
 19 25 10 10.65 0.00
 0 26 10 -3.17 0.00
 2 26 10 -4.03 0.00
 4 26 10 -8.25 0.00
 6 26 10 -14.62 0.00
 8 26 10 -11.75 0.00
 10 26 10 4.77 0.00
 12 26 10 17.02 0.00
 14 26 10 13.57 0.00
 16 26 10 6.26 0.00
 18 26 10 0.84 0.00
 1 27 10 9.74 0.00
 3 27 10 4.12 0.00
 5 27 10 7.34 0.00
 7 27 10 12.66 0.00
 9 27 10 12.02 0.00
 11 27 10 2.34 0.00
 13 27 10 -1.15 0.00
 15 27 10 -7.68 0.00
 17 27 10 0.37 0.00
 19 27 10 2.48 0.00
 0 28 10 15.04 0.00
 2 28 10 10.31 0.00
 4 28 10 -3.86 0.00
 6 28 10 -8.64 0.00
 8 28 10 -12.99 0.00
 10 28 10 -2.88 0.00
 12 28 10 -9.37 0.00
 14 28 10 -9.90 0.00
 16 28 10 3.92 0.00
 18 28 10 2.25 0.00
 1 29 10 -1.66 0.00
 3 29 10 2.07 0.00
 5 29 10 -6.39 0.00
 7 29 10 -1.20 0.00
 9 29 10 21.09 0.00
 11 29 10 7.53 0.00
 13 29 10 -8.82 0.00
 15 29 10 6.88 0.00
 17 29 10 22.45 0.00
 0 30 10 -17.67 0.00
 2 30 10 -1.70 0.00
 4 30 10 12.17 0.00
 6 30 10 -4.69 0.00
 8 30 10 -5.89 0.00
 10 30 10 8.80 0.00
 12 30 10 12.82 0.00
 14 30 10 -9.93 0.00
 16 30 10 -2.72 0.00
 1 31 10 19.96 0.00
 3 31 10 9.74 0.00
 5 31 10 -1.98 0.00
 7 31 10 1.84 0.00
 9 31 10 23.97 0.00
 11 31 10 19.11 0.00
 13 31 10 9.07 0.00
 15 31 10 -7.57 0.00
 17 31 10 8.93 0.00
 0 32 10 -3.93 0.00
 2 32 10 -11.02 0.00
 4 32 10 1.04 0.00
 6 32 10 -39.21 0.00
 8 32 10 -3.56 0.00
 10 32 10 -9.25 0.00
 12 32 10 7.95 0.00
 14 32 10 -9.41 0.00
 16 32 10 1.87 0.00
 1 33 10 -23.04 0.00
 3 33 10 12.04 0.00
 5 33 10 -5.04 0.00
 7 33 10 4.42 0.00
 9 33 10 9.51 0.00
 11 33 10 20.58 0.00
 13 33 10 -4.05 0.00
 15 33 10 6.62 0.00
 0 34 10 4.67 0.00
 2 34 10 -7.07 0.00
 4 34 10 14.05 0.00
 6 34 10 -4.31 0.00
 8 34 10 -0.41 0.00
 10 34 10 -1.82 0.00
 12 34 10 7.45 0.00
 14 34 10 -3.84 0.00
 1 35 10 2.68 0.00
 3 35 10 4.84 0.00
 5 35 10 -3.73 0.00
 7 35 10 13.39 0.00
 9 35 10 -1.48 0.00
 11 35 10 14.08 0.00
 13 35 10 -11.59 0.00
 15 35 10 3.34 0.00
 0 36 10 -0.04 0.00
 2 36 10 15.37 0.00
 4 36 10 2.55 0.00
 6 36 10 -12.44 0.00
 8 36 10 -3.21 0.00
 10 36 10 8.99 0.00
 12 36 10 3.77 0.00
 14 36 10 0.60 0.00
 1 37 10 0.92 0.00
 3 37 10 1.81 0.00
 5 37 10 -6.81 0.00
 7 37 10 18.32 0.00
 9 37 10 -4.60 0.00
 11 37 10 1.22 0.00
 13 37 10 -3.10 0.00
 0 38 10 9.50 0.00
 2 38 10 -3.26 0.00
 4 38 10 11.03 0.00
 6 38 10 11.54 0.00
 8 38 10 15.87 0.00
 10 38 10 18.59 0.00
 12 38 10 -2.52 0.00
 1 39 10 3.42 0.00
 3 39 10 8.43 0.00
 5 39 10 -7.18 0.00
 7 39 10 -11.80 0.00
 9 39 10 25.89 0.00
 11 39 10 17.42 0.00
 0 40 10 10.90 0.00
 2 40 10 -1.07 0.00
 4 40 10 -9.40 0.00
 6 40 10 0.82 0.00
 8 40 10 -1.44 0.00
 10 40 10 -0.72 0.00
 1 41 10 14.26 0.00
 3 41 10 -3.79 0.00
 5 41 10 -25.69 0.00
 7 41 10 -21.04 0.00
 9 41 10 20.19 0.00
 0 42 10 4.78 0.00
 2 42 10 -5.83 0.00
 4 42 10 1.20 0.00
 6 42 10 -15.67 0.00
 8 42 10 -10.75 0.00
 1 43 10 -2.79 0.00
 3 43 10 -15.45 0.00
 5 43 10 16.87 0.00
 7 43 10 -7.22 0.00
 0 44 10 -10.15 0.00
 2 44 10 -2.09 0.00
 4 44 10 -19.72 0.00
 6 44 10 0.47 0.00
 1 45 10 -9.51 0.00
 3 45 10 10.89 0.00
 2 1 11 -6.26 0.00
 4 1 11 -3.89 0.00
 6 1 11 11.87 0.00
 8 1 11 0.44 0.00
 10 1 11 7.45 0.00
 12 1 11 5.06 0.00
 14 1 11 2.64 0.00
 16 1 11 -3.64 0.00
 18 1 11 -12.09 0.00
 20 1 11 -11.63 0.00
 22 1 11 -1.87 0.00
 1 2 11 93.78 0.00
 3 2 11 71.87 0.00
 5 2 11 32.88 0.00
 7 2 11 51.88 0.00
 9 2 11 -8.44 0.00
 11 2 11 -27.03 0.00
 13 2 11 9.36 0.00
 15 2 11 -2.03 0.00
 17 2 11 9.25 0.00
 19 2 11 -1.20 0.00
 21 2 11 16.29 0.00
 23 2 11 8.56 0.00
 2 3 11 -26.06 0.00
 4 3 11 3.91 0.00
 6 3 11 -48.00 0.00
 8 3 11 -12.54 0.00
 10 3 11 5.83 0.00
 12 3 11 -0.79 0.00
 14 3 11 12.18 0.00
 16 3 11 -0.50 0.00
 18 3 11 1.51 0.00
 20 3 11 3.37 0.00
 22 3 11 6.83 0.00
 1 4 11 -6.51 0.00
 3 4 11 6.76 0.00
 5 4 11 21.62 0.00
 7 4 11 -6.28 0.00
 9 4 11 -13.16 0.00
 11 4 11 -0.11 0.00
 13 4 11 -2.40 0.00
 15 4 11 2.57 0.00
 17 4 11 10.16 0.00
 19 4 11 -2.03 0.00
 21 4 11 7.52 0.00
 23 4 11 -0.15 0.00
 2 5 11 20.15 0.00
 4 5 11 -43.07 0.00
 6 5 11 11.90 0.00
 8 5 11 -0.31 0.00
 10 5 11 10.08 0.00
 12 5 11 3.19 0.00
 14 5 11 21.58 0.00
 16 5 11 1.75 0.00
 18 5 11 -5.14 0.00
 20 5 11 3.79 0.00
 22 5 11 13.42 0.00
 1 6 11 58.73 0.00
 3 6 11 17.61 0.00
 5 6 11 -24.57 0.00
 7 6 11 4.98 0.00
 9 6 11 -16.13 0.00
 11 6 11 0.70 0.00
 13 6 11 6.59 0.00
 15 6 11 3.11 0.00
 17 6 11 5.81 0.00
 19 6 11 -3.01 0.00
 21 6 11 3.04 0.00
 23 6 11 4.89 0.00
 2 7 11 -102.23 0.00
 4 7 11 -8.10 0.00
 6 7 11 -20.13 0.00
 8 7 11 -18.37 0.00
 10 7 11 -11.70 0.00
 12 7 11 -6.98 0.00
 14 7 11 -10.80 0.00
 16 7 11 -8.56 0.00
 18 7 11 -0.54 0.00
 20 7 11 1.10 0.00
 22 7 11 16.36 0.00
 1 8 11 76.47 0.00
 3 8 11 -0.98 0.00
 5 8 11 11.73 0.00
 7 8 11 17.60 0.00
 9 8 11 -0.04 0.00
 11 8 11 -3.92 0.00
 13 8 11 -13.74 0.00
 15 8 11 -13.26 0.00
 17 8 11 -11.45 0.00
 19 8 11 5.75 0.00
 21 8 11 -2.62 0.00
 23 8 11 -0.82 0.00
 2 9 11 -65.92 0.00
 4 9 11 -59.12 0.00
 6 9 11 -45.26 0.00
 8 9 11 -9.06 0.00
 10 9 11 17.26 0.00
 12 9 11 11.47 0.00
 14 9 11 5.12 0.00
 16 9 11 2.97 0.00
 18 9 11 4.91 0.00
 20 9 11 -15.89 0.00
 22 9 11 1.38 0.00
 1 10 11 -2.33 0.00
 3 10 11 37.55 0.00
 5 10 11 35.74 0.00
 7 10 11 28.69 0.00
 9 10 11 -0.43 0.00
 11 10 11 8.29 0.00
 13 10 11 -4.63 0.00
 15 10 11 0.65 0.00
 17 10 11 10.63 0.00
 19 10 11 3.68 0.00
 21 10 11 -6.99 0.00
 23 10 11 -0.59 0.00
 2 11 11 6.85 0.00
 4 11 11 -32.24 0.00
 6 11 11 -4.66 0.00
 8 11 11 -20.56 0.00
 10 11 11 -18.51 0.00
 12 11 11 -1.78 0.00
 14 11 11 -8.99 0.00
 16 11 11 2.25 0.00
 18 11 11 29.30 0.00
 20 11 11 11.14 0.00
 22 11 11 13.50 0.00
 1 12 11 33.77 0.00
 3 12 11 46.93 0.00
 5 12 11 38.28 0.00
 7 12 11 9.64 0.00
 9 12 11 14.90 0.00
 11 12 11 25.95 0.00
 13 12 11 -0.36 0.00
 15 12 11 -5.05 0.00
 17 12 11 10.25 0.00
 19 12 11 7.18 0.00
 21 12 11 5.14 0.00
 2 13 11 -2.29 0.00
 4 13 11 -16.74 0.00
 6 13 11 2.30 0.00
 8 13 11 -14.90 0.00
 10 13 11 -19.88 0.00
 12 13 11 -4.18 0.00
 14 13 11 1.44 0.00
 16 13 11 -3.51 0.00
 18 13 11 8.76 0.00
 20 13 11 7.31 0.00
 22 13 11 -13.36 0.00
 1 14 11 -0.88 0.00
 3 14 11 18.71 0.00
 5 14 11 15.24 0.00
 7 14 11 -0.03 0.00
 9 14 11 -0.44 0.00
 11 14 11 -1.34 0.00
 13 14 11 1.29 0.00
 15 14 11 5.90 0.00
 17 14 11 -5.24 0.00
 19 14 11 -0.89 0.00
 21 14 11 -0.57 0.00
 2 15 11 1.79 0.00
 4 15 11 14.64 0.00
 6 15 11 -4.28 0.00
 8 15 11 6.71 0.00
 10 15 11 19.55 0.00
 12 15 11 1.42 0.00
 14 15 11 1.99 0.00
 16 15 11 1.26 0.00
 18 15 11 8.83 0.00
 20 15 11 5.15 0.00
 22 15 11 11.98 0.00
 1 16 11 -3.70 0.00
 3 16 11 -7.53 0.00
 5 16 11 8.06 0.00
 7 16 11 3.00 0.00
 9 16 11 5.78 0.00
 11 16 11 1.16 0.00
 13 16 11 13.45 0.00
 15 16 11 -4.04 0.00
 17 16 11 -14.22 0.00
 19 16 11 -0.16 0.00
 21 16 11 1.55 0.00
 2 17 11 -19.43 0.00
 4 17 11 -19.40 0.00
 6 17 11 11.11 0.00
 8 17 11 -4.67 0.00
 10 17 11 8.96 0.00
 12 17 11 15.25 0.00
 14 17 11 -3.00 0.00
 16 17 11 -7.51 0.00
 18 17 11 12.61 0.00
 20 17 11 4.14 0.00
 1 18 11 -27.21 0.00
 3 18 11 -16.53 0.00
 5 18 11 4.99 0.00
 7 18 11 6.35 0.00
 9 18 11 12.14 0.00
 11 18 11 -5.72 0.00
 13 18 11 -2.01 0.00
 15 18 11 -7.37 0.00
 17 18 11 -8.95 0.00
 19 18 11 0.92 0.00
 21 18 11 3.85 0.00
 2 19 11 -15.80 0.00
 4 19 11 -6.79 0.00
 6 19 11 33.05 0.00
 8 19 11 8.47 0.00
 10 19 11 4.21 0.00
 12 19 11 -0.13 0.00
 14 19 11 -15.43 0.00
 16 19 11 2.93 0.00
 18 19 11 10.52 0.00
 20 19 11 6.65 0.00
 1 20 11 -8.54 0.00
 3 20 11 -11.48 0.00
 5 20 11 3.22 0.00
 7 20 11 -2.69 0.00
 9 20 11 1.92 0.00
 11 20 11 -8.29 0.00
 13 20 11 -1.98 0.00
 15 20 11 -8.51 0.00
 17 20 11 -15.78 0.00
 19 20 11 3.26 0.00
 21 20 11 -11.55 0.00
 2 21 11 11.27 0.00
 4 21 11 -14.18 0.00
 6 21 11 -13.12 0.00
 8 21 11 4.43 0.00
 10 21 11 -20.79 0.00
 12 21 11 -1.73 0.00
 14 21 11 1.08 0.00
 16 21 11 8.48 0.00
 18 21 11 -9.50 0.00
 20 21 11 -19.99 0.00
 1 22 11 2.95 0.00
 3 22 11 -14.11 0.00
 5 22 11 30.27 0.00
 7 22 11 -7.12 0.00
 9 22 11 4.44 0.00
 11 22 11 2.83 0.00
 13 22 11 12.35 0.00
 15 22 11 4.73 0.00
 17 22 11 9.91 0.00
 19 22 11 -0.43 0.00
 2 23 11 -5.48 0.00
 4 23 11 -13.55 0.00
 6 23 11 -1.31 0.00
 8 23 11 -0.05 0.00
 10 23 11 41.24 0.00
 12 23 11 1.36 0.00
 14 23 11 -10.90 0.00
 16 23 11 -12.34 0.00
 18 23 11 -17.61 0.00
 20 23 11 22.31 0.00
 1 24 11 -7.17 0.00
 3 24 11 -17.27 0.00
 5 24 11 9.68 0.00
 7 24 11 2.12 0.00
 9 24 11 0.36 0.00
 11 24 11 1.09 0.00
 13 24 11 -7.42 0.00
 15 24 11 -7.38 0.00
 17 24 11 -8.28 0.00
 19 24 11 2.88 0.00
 2 25 11 -11.30 0.00
 4 25 11 9.61 0.00
 6 25 11 -15.40 0.00
 8 25 11 -7.11 0.00
 10 25 11 3.95 0.00
 12 25 11 -4.19 0.00
 14 25 11 -26.63 0.00
 16 25 11 -20.46 0.00
 18 25 11 0.48 0.00
 1 26 11 -9.53 0.00
 3 26 11 5.65 0.00
 5 26 11 -12.00 0.00
 7 26 11 -8.95 0.00
 9 26 11 3.93 0.00
 11 26 11 7.66 0.00
 13 26 11 23.13 0.00
 15 26 11 10.71 0.00
 17 26 11 -0.09 0.00
 19 26 11 2.17 0.00
 2 27 11 -1.38 0.00
 4 27 11 -9.24 0.00
 6 27 11 1.40 0.00
 8 27 11 -7.71 0.00
 10 27 11 -2.44 0.00
 12 27 11 1.88 0.00
 14 27 11 -6.38 0.00
 16 27 11 -16.25 0.00
 18 27 11 3.82 0.00
 1 28 11 -3.46 0.00
 3 28 11 -18.42 0.00
 5 28 11 8.83 0.00
 7 28 11 -0.73 0.00
 9 28 11 17.56 0.00
 11 28 11 17.49 0.00
 13 28 11 -0.36 0.00
 15 28 11 -22.28 0.00
 17 28 11 -24.49 0.00
 2 29 11 -3.36 0.00
 4 29 11 -3.14 0.00
 6 29 11 2.26 0.00
 8 29 11 -2.14 0.00
 10 29 11 -18.21 0.00
 12 29 11 -15.99 0.00
 14 29 11 7.23 0.00
 16 29 11 -26.37 0.00
 18 29 11 -19.41 0.00
 1 30 11 3.10 0.00
 3 30 11 -22.71 0.00
 5 30 11 1.68 0.00
 7 30 11 0.49 0.00
 9 30 11 5.95 0.00
 11 30 11 -4.65 0.00
 13 30 11 19.32 0.00
 15 30 11 -19.61 0.00
 17 30 11 -16.58 0.00
 2 31 11 -24.59 0.00
 4 31 11 4.66 0.00
 6 31 11 6.59 0.00
 8 31 11 9.71 0.00
 10 31 11 -14.08 0.00
 12 31 11 3.30 0.00
 14 31 11 4.78 0.00
 16 31 11 -5.32 0.00
 1 32 11 23.80 0.00
 3 32 11 -6.98 0.00
 5 32 11 -13.49 0.00
 7 32 11 9.69 0.00
 9 32 11 31.30 0.00
 11 32 11 5.24 0.00
 13 32 11 -4.04 0.00
 15 32 11 7.25 0.00
 2 33 11 2.74 0.00
 4 33 11 -7.22 0.00
 6 33 11 -3.53 0.00
 8 33 11 -2.24 0.00
 10 33 11 -7.79 0.00
 12 33 11 -5.09 0.00
 14 33 11 -20.56 0.00
 16 33 11 -9.95 0.00
 1 34 11 -10.10 0.00
 3 34 11 -4.02 0.00
 5 34 11 -11.60 0.00
 7 34 11 -2.69 0.00
 9 34 11 6.67 0.00
 11 34 11 15.66 0.00
 13 34 11 -4.40 0.00
 15 34 11 -7.11 0.00
 2 35 11 2.97 0.00
 4 35 11 -8.87 0.00
 6 35 11 -13.27 0.00
 8 35 11 10.60 0.00
 10 35 11 -16.62 0.00
 12 35 11 -7.30 0.00
 14 35 11 15.94 0.00
 1 36 11 14.48 0.00
 3 36 11 5.68 0.00
 5 36 11 -2.75 0.00
 7 36 11 -0.78 0.00
 9 36 11 12.24 0.00
 11 36 11 7.74 0.00
 13 36 11 -8.01 0.00
 2 37 11 7.93 0.00
 4 37 11 1.85 0.00
 6 37 11 1.08 0.00
 8 37 11 -14.98 0.00
 10 37 11 9.66 0.00
 12 37 11 -3.90 0.00
 1 38 11 8.48 0.00
 3 38 11 -2.98 0.00
 5 38 11 -2.26 0.00
 7 38 11 0.29 0.00
 9 38 11 -13.15 0.00
 11 38 11 -16.76 0.00
 2 39 11 0.71 0.00
 4 39 11 2.65 0.00
 6 39 11 7.26 0.00
 8 39 11 -23.99 0.00
 10 39 11 9.71 0.00
 12 39 11 9.71 0.00
 1 40 11 5.51 0.00
 3 40 11 11.04 0.00
 5 40 11 -11.54 0.00
 7 40 11 3.45 0.00
 9 40 11 -0.97 0.00
 11 40 11 -19.64 0.00
 2 41 11 17.86 0.00
 4 41 11 2.53 0.00
 6 41 11 36.33 0.00
 8 41 11 30.54 0.00
 10 41 11 5.90 0.00
 1 42 11 -9.81 0.00
 3 42 11 0.41 0.00
 5 42 11 -6.81 0.00
 7 42 11 7.94 0.00
 9 42 11 5.25 0.00
 2 43 11 -6.76 0.00
 4 43 11 -12.99 0.00
 6 43 11 5.00 0.00
 1 44 11 -4.71 0.00
 3 44 11 -12.84 0.00
 5 44 11 -0.86 0.00
 2 45 11 7.19 0.00
 2 0 12 -37.78 0.00
 4 0 12 -82.88 0.00
 6 0 12 -31.36 0.00
 8 0 12 7.66 0.00
 10 0 12 24.68 0.00
 12 0 12 11.21 0.00
 14 0 12 17.54 0.00
 16 0 12 -7.13 0.00
 18 0 12 12.06 0.00
 20 0 12 -2.18 0.00
 22 0 12 6.74 0.00
 1 1 12 113.08 0.00
 3 1 12 -53.38 0.00
 5 1 12 20.49 0.00
 7 1 12 42.88 0.00
 9 1 12 14.80 0.00
 11 1 12 19.27 0.00
 13 1 12 -10.41 0.00
 15 1 12 1.07 0.00
 17 1 12 -5.68 0.00
 19 1 12 -14.26 0.00
 21 1 12 -7.41 0.00
 23 1 12 7.80 0.00
 0 2 12 6.26 0.00
 2 2 12 99.84 0.00
 4 2 12 -32.50 0.00
 6 2 12 -12.87 0.00
 8 2 12 18.97 0.00
 10 2 12 2.00 0.00
 12 2 12 1.48 0.00
 14 2 12 -2.70 0.00
 16 2 12 2.66 0.00
 18 2 12 5.17 0.00
 20 2 12 -0.44 0.00
 22 2 12 14.90 0.00
 1 3 12 72.33 0.00
 3 3 12 62.59 0.00
 5 3 12 -20.50 0.00
 7 3 12 -2.72 0.00
 9 3 12 1.58 0.00
 11 3 12 -8.43 0.00
 13 3 12 0.96 0.00
 15 3 12 6.62 0.00
 17 3 12 -3.87 0.00
 19 3 12 1.35 0.00
 21 3 12 3.07 0.00
 23 3 12 2.10 0.00
 0 4 12 -142.68 0.00
 2 4 12 -148.77 0.00
 4 4 12 -5.20 0.00
 6 4 12 -30.67 0.00
 8 4 12 -8.01 0.00
 10 4 12 4.16 0.00
 12 4 12 9.22 0.00
 14 4 12 -3.83 0.00
 16 4 12 7.91 0.00
 18 4 12 -2.54 0.00
 20 4 12 10.99 0.00
 22 4 12 5.92 0.00
 1 5 12 -41.99 0.00
 3 5 12 -40.07 0.00
 5 5 12 27.22 0.00
 7 5 12 18.58 0.00
 9 5 12 -15.27 0.00
 11 5 12 -2.67 0.00
 13 5 12 19.78 0.00
 15 5 12 13.43 0.00
 17 5 12 -1.44 0.00
 19 5 12 -2.45 0.00
 21 5 12 -12.35 0.00
 23 5 12 -0.31 0.00
 0 6 12 75.20 0.00
 2 6 12 102.79 0.00
 4 6 12 4.14 0.00
 6 6 12 60.05 0.00
 8 6 12 22.37 0.00
 10 6 12 -2.40 0.00
 12 6 12 5.36 0.00
 14 6 12 -1.59 0.00
 16 6 12 5.98 0.00
 18 6 12 -5.10 0.00
 20 6 12 -5.94 0.00
 22 6 12 -8.37 0.00
 1 7 12 -40.75 0.00
 3 7 12 42.85 0.00
 5 7 12 21.11 0.00
 7 7 12 18.90 0.00
 9 7 12 -1.55 0.00
 11 7 12 -4.13 0.00
 13 7 12 -2.47 0.00
 15 7 12 -4.48 0.00
 17 7 12 -1.55 0.00
 19 7 12 -1.80 0.00
 21 7 12 0.26 0.00
 23 7 12 1.73 0.00
 0 8 12 87.98 0.00
 2 8 12 -12.65 0.00
 4 8 12 0.16 0.00
 6 8 12 -3.67 0.00
 8 8 12 8.14 0.00
 10 8 12 -5.76 0.00
 12 8 12 6.57 0.00
 14 8 12 0.03 0.00
 16 8 12 4.32 0.00
 18 8 12 -9.28 0.00
 20 8 12 -6.92 0.00
 22 8 12 -18.36 0.00
 1 9 12 -57.93 0.00
 3 9 12 -1.98 0.00
 5 9 12 13.99 0.00
 7 9 12 -9.49 0.00
 9 9 12 -4.81 0.00
 11 9 12 1.53 0.00
 13 9 12 -2.58 0.00
 15 9 12 -5.11 0.00
 17 9 12 4.09 0.00
 19 9 12 -1.14 0.00
 21 9 12 -20.81 0.00
 23 9 12 7.34 0.00
 0 10 12 12.50 0.00
 2 10 12 34.19 0.00
 4 10 12 20.31 0.00
 6 10 12 48.62 0.00
 8 10 12 -3.68 0.00
 10 10 12 16.29 0.00
 12 10 12 -0.36 0.00
 14 10 12 -2.44 0.00
 16 10 12 4.14 0.00
 18 10 12 -6.06 0.00
 20 10 12 -11.65 0.00
 22 10 12 3.51 0.00
 1 11 12 -28.48 0.00
 3 11 12 -10.68 0.00
 5 11 12 -19.20 0.00
 7 11 12 10.59 0.00
 9 11 12 20.25 0.00
 11 11 12 -8.88 0.00
 13 11 12 -2.59 0.00
 15 11 12 -9.93 0.00
 17 11 12 -11.27 0.00
 19 11 12 5.38 0.00
 21 11 12 24.52 0.00
 0 12 12 -2.18 0.00
 2 12 12 -0.20 0.00
 4 12 12 -15.80 0.00
 6 12 12 5.68 0.00
 8 12 12 9.21 0.00
 10 12 12 -13.01 0.00
 12 12 12 -9.85 0.00
 14 12 12 -1.77 0.00
 16 12 12 -0.98 0.00
 18 12 12 2.00 0.00
 20 12 12 -6.23 0.00
 22 12 12 -4.75 0.00
 1 13 12 -34.20 0.00
 3 13 12 4.59 0.00
 5 13 12 -7.35 0.00
 7 13 12 5.85 0.00
 9 13 12 -2.31 0.00
 11 13 12 -13.70 0.00
 13 13 12 -8.70 0.00
 15 13 12 4.47 0.00
 17 13 12 -0.22 0.00
 19 13 12 -1.19 0.00
 21 13 12 -1.85 0.00
 0 14 12 16.71 0.00
 2 14 12 16.37 0.00
 4 14 12 -1.22 0.00
 6 14 12 -3.91 0.00
 8 14 12 3.04 0.00
 10 14 12 10.74 0.00
 12 14 12 -10.33 0.00
 14 14 12 8.76 0.00
 16 14 12 5.26 0.00
 18 14 12 -1.84 0.00
 20 14 12 -8.18 0.00
 22 14 12 -4.90 0.00
 1 15 12 -2.55 0.00
 3 15 12 -5.35 0.00
 5 15 12 16.27 0.00
 7 15 12 -1.07 0.00
 9 15 12 7.58 0.00
 11 15 12 3.22 0.00
 13 15 12 -2.37 0.00
 15 15 12 -2.45 0.00
 17 15 12 7.11 0.00
 19 15 12 1.16 0.00
 21 15 12 1.94 0.00
 0 16 12 -8.71 0.00
 2 16 12 20.47 0.00
 4 16 12 -5.01 0.00
 6 16 12 9.10 0.00
 8 16 12 -2.05 0.00
 10 16 12 -11.90 0.00
 12 16 12 -12.82 0.00
 14 16 12 15.22 0.00
 16 16 12 -1.74 0.00
 18 16 12 -12.40 0.00
 20 16 12 0.81 0.00
 22 16 12 6.92 0.00
 1 17 12 -29.28 0.00
 3 17 12 -6.84 0.00
 5 17 12 -20.67 0.00
 7 17 12 15.28 0.00
 9 17 12 13.94 0.00
 11 17 12 -10.59 0.00
 13 17 12 -9.71 0.00
 15 17 12 -15.16 0.00
 17 17 12 -8.51 0.00
 19 17 12 -1.31 0.00
 21 17 12 13.43 0.00
 0 18 12 8.87 0.00
 2 18 12 21.95 0.00
 4 18 12 13.60 0.00
 6 18 12 11.61 0.00
 8 18 12 1.91 0.00
 10 18 12 -0.30 0.00
 12 18 12 -7.22 0.00
 14 18 12 0.43 0.00
 16 18 12 12.52 0.00
 18 18 12 -4.68 0.00
 20 18 12 -2.26 0.00
 1 19 12 -10.91 0.00
 3 19 12 6.00 0.00
 5 19 12 -1.67 0.00
 7 19 12 2.69 0.00
 9 19 12 17.29 0.00
 11 19 12 3.32 0.00
 13 19 12 -16.47 0.00
 15 19 12 -5.25 0.00
 17 19 12 -1.16 0.00
 19 19 12 -8.01 0.00
 21 19 12 -6.03 0.00
 0 20 12 12.18 0.00
 2 20 12 11.91 0.00
 4 20 12 2.82 0.00
 6 20 12 12.73 0.00
 8 20 12 -0.28 0.00
 10 20 12 -13.49 0.00
 12 20 12 0.46 0.00
 14 20 12 0.20 0.00
 16 20 12 7.08 0.00
 18 20 12 9.62 0.00
 20 20 12 19.31 0.00
 1 21 12 -18.08 0.00
 3 21 12 1.64 0.00
 5 21 12 -12.57 0.00
 7 21 12 -7.31 0.00
 9 21 12 -1.79 0.00
 11 21 12 9.99 0.00
 13 21 12 -7.89 0.00
 15 21 12 16.87 0.00
 17 21 12 10.40 0.00
 19 21 12 -2.95 0.00
 0 22 12 -7.58 0.00
 2 22 12 20.18 0.00
 4 22 12 17.51 0.00
 6 22 12 -10.63 0.00
 8 22 12 0.89 0.00
 10 22 12 9.70 0.00
 12 22 12 -0.31 0.00
 14 22 12 4.15 0.00
 16 22 12 -16.72 0.00
 18 22 12 -4.94 0.00
 20 22 12 -3.69 0.00
 1 23 12 -12.46 0.00
 3 23 12 -23.41 0.00
 5 23 12 16.35 0.00
 7 23 12 5.02 0.00
 9 23 12 -4.88 0.00
 11 23 12 11.54 0.00
 13 23 12 -0.81 0.00
 15 23 12 -15.45 0.00
 17 23 12 -15.86 0.00
 19 23 12 3.53 0.00
 0 24 12 -11.32 0.00
 2 24 12 -3.85 0.00
 4 24 12 21.59 0.00
 6 24 12 -2.38 0.00
 8 24 12 9.33 0.00
 10 24 12 3.58 0.00
 12 24 12 -0.42 0.00
 14 24 12 9.04 0.00
 16 24 12 7.15 0.00
 18 24 12 5.67 0.00
 20 24 12 -8.96 0.00
 1 25 12 -4.10 0.00
 3 25 12 5.73 0.00
 5 25 12 2.30 0.00
 7 25 12 12.38 0.00
 9 25 12 16.49 0.00
 11 25 12 -6.28 0.00
 13 25 12 -9.48 0.00
 15 25 12 -6.27 0.00
 17 25 12 7.27 0.00
 19 25 12 18.55 0.00
 0 26 12 14.61 0.00
 2 26 12 -0.12 0.00
 4 26 12 7.67 0.00
 6 26 12 -2.39 0.00
 8 26 12 1.06 0.00
 10 26 12 1.81 0.00
 12 26 12 7.34 0.00
 14 26 12 12.14 0.00
 16 26 12 9.41 0.00
 18 26 12 -2.67 0.00
 1 27 12 -4.57 0.00
 3 27 12 16.25 0.00
 5 27 12 -3.31 0.00
 7 27 12 1.16 0.00
 9 27 12 17.20 0.00
 11 27 12 -4.32 0.00
 13 27 12 -18.09 0.00
 15 27 12 -1.31 0.00
 17 27 12 -5.08 0.00
 0 28 12 -1.70 0.00
 2 28 12 19.55 0.00
 4 28 12 5.01 0.00
 6 28 12 3.14 0.00
 8 28 12 -4.70 0.00
 10 28 12 15.00 0.00
 12 28 12 20.92 0.00
 14 28 12 19.30 0.00
 16 28 12 21.51 0.00
 18 28 12 7.56 0.00
 1 29 12 9.01 0.00
 3 29 12 -8.78 0.00
 5 29 12 -1.16 0.00
 7 29 12 -8.40 0.00
 9 29 12 -2.84 0.00
 11 29 12 6.19 0.00
 13 29 12 -8.60 0.00
 15 29 12 -0.99 0.00
 17 29 12 5.50 0.00
 0 30 12 -11.67 0.00
 2 30 12 13.06 0.00
 4 30 12 21.40 0.00
 6 30 12 -0.94 0.00
 8 30 12 24.16 0.00
 10 30 12 18.32 0.00
 12 30 12 5.89 0.00
 14 30 12 -4.35 0.00
 16 30 12 10.34 0.00
 1 31 12 29.48 0.00
 3 31 12 0.88 0.00
 5 31 12 3.24 0.00
 7 31 12 12.77 0.00
 9 31 12 5.13 0.00
 11 31 12 -3.01 0.00
 13 31 12 13.53 0.00
 15 31 12 13.36 0.00
 17 31 12 5.88 0.00
 0 32 12 12.99 0.00
 2 32 12 -22.77 0.00
 4 32 12 -1.63 0.00
 6 32 12 9.63 0.00
 8 32 12 4.59 0.00
 10 32 12 8.59 0.00
 12 32 12 22.68 0.00
 14 32 12 -5.51 0.00
 16 32 12 11.32 0.00
 1 33 12 1.35 0.00
 3 33 12 6.05 0.00
 5 33 12 15.99 0.00
 7 33 12 -11.36 0.00
 9 33 12 -3.50 0.00
 11 33 12 -4.73 0.00
 13 33 12 -3.88 0.00
 15 33 12 -1.02 0.00
 0 34 12 -0.65 0.00
 2 34 12 -18.03 0.00
 4 34 12 -11.60 0.00
 6 34 12 3.96 0.00
 8 34 12 -1.24 0.00
 10 34 12 -0.18 0.00
 12 34 12 -1.04 0.00
 14 34 12 8.55 0.00
 1 35 12 -11.24 0.00
 3 35 12 7.68 0.00
 5 35 12 28.61 0.00
 7 35 12 9.68 0.00
 9 35 12 -4.16 0.00
 11 35 12 16.40 0.00
 13 35 12 3.23 0.00
 15 35 12 6.02 0.00
 0 36 12 -1.30 0.00
 2 36 12 -25.47 0.00
 4 36 12 -17.68 0.00
 6 36 12 1.71 0.00
 8 36 12 -1.40 0.00
 10 36 12 -10.82 0.00
 12 36 12 -21.58 0.00
 14 36 12 17.63 0.00
 1 37 12 -2.55 0.00
 3 37 12 -17.66 0.00
 5 37 12 7.99 0.00
 7 37 12 17.83 0.00
 9 37 12 -11.34 0.00
 11 37 12 -1.48 0.00
 13 37 12 5.01 0.00
 0 38 12 0.92 0.00
 2 38 12 -30.39 0.00
 4 38 12 -20.83 0.00
 6 38 12 -1.54 0.00
 8 38 12 27.83 0.00
 10 38 12 4.97 0.00
 12 38 12 11.98 0.00
 1 39 12 7.73 0.00
 3 39 12 -7.76 0.00
 5 39 12 -2.24 0.00
 7 39 12 14.29 0.00
 9 39 12 -3.42 0.00
 11 39 12 8.10 0.00
 0 40 12 -8.20 0.00
 2 40 12 -20.44 0.00
 4 40 12 -1.24 0.00
 6 40 12 -28.69 0.00
 8 40 12 -21.91 0.00
 10 40 12 -15.74 0.00
 1 41 12 -12.96 0.00
 3 41 12 -8.22 0.00
 5 41 12 -5.69 0.00
 7 41 12 -21.33 0.00
 9 41 12 0.29 0.00
 0 42 12 17.31 0.00
 2 42 12 4.60 0.00
 4 42 12 -2.51 0.00
 6 42 12 24.10 0.00
 8 42 12 7.35 0.00
 1 43 12 -4.26 0.00
 3 43 12 13.06 0.00
 5 43 12 20.38 0.00
 7 43 12 21.12 0.00
 0 44 12 0.47 0.00
 2 44 12 -2.64 0.00
 4 44 12 5.59 0.00
 1 45 12 -14.05 0.00
 2 1 13 -74.98 0.00
 4 1 13 -20.70 0.00
 6 1 13 -10.73 0.00
 8 1 13 -16.19 0.00
 10 1 13 8.26 0.00
 12 1 13 -5.06 0.00
 14 1 13 -1.99 0.00
 16 1 13 0.81 0.00
 18 1 13 -0.72 0.00
 20 1 13 10.55 0.00
 22 1 13 7.65 0.00
 1 2 13 -109.96 0.00
 3 2 13 -0.81 0.00
 5 2 13 11.96 0.00
 7 2 13 13.26 0.00
 9 2 13 11.95 0.00
 11 2 13 1.14 0.00
 13 2 13 2.10 0.00
 15 2 13 -4.15 0.00
 17 2 13 21.93 0.00
 19 2 13 4.86 0.00
 21 2 13 7.33 0.00
 23 2 13 7.68 0.00
 2 3 13 -7.07 0.00
 4 3 13 -18.05 0.00
 6 3 13 5.17 0.00
 8 3 13 -5.41 0.00
 10 3 13 8.82 0.00
 12 3 13 14.77 0.00
 14 3 13 4.80 0.00
 16 3 13 0.99 0.00
 18 3 13 2.33 0.00
 20 3 13 -6.14 0.00
 22 3 13 -10.94 0.00
 3 4 13 -31.93 0.00
 5 4 13 -51.55 0.00
 7 4 13 -18.25 0.00
 9 4 13 -6.65 0.00
 11 4 13 3.71 0.00
 13 4 13 0.50 0.00
 15 4 13 6.20 0.00
 17 4 13 11.99 0.00
 19 4 13 -5.89 0.00
 21 4 13 1.54 0.00
 23 4 13 3.81 0.00
 2 5 13 27.10 0.00
 4 5 13 29.82 0.00
 6 5 13 -5.02 0.00
 8 5 13 -7.12 0.00
 10 5 13 9.36 0.00
 12 5 13 3.63 0.00
 14 5 13 0.02 0.00
 16 5 13 8.42 0.00
 18 5 13 16.43 0.00
 20 5 13 8.50 0.00
 22 5 13 -0.84 0.00
 1 6 13 -88.61 0.00
 3 6 13 -23.92 0.00
 5 6 13 -28.44 0.00
 7 6 13 -1.32 0.00
 9 6 13 24.32 0.00
 11 6 13 4.10 0.00
 13 6 13 -22.21 0.00
 15 6 13 6.36 0.00
 17 6 13 3.39 0.00
 19 6 13 0.09 0.00
 21 6 13 5.15 0.00
 23 6 13 10.85 0.00
 2 7 13 -8.13 0.00
 4 7 13 21.48 0.00
 6 7 13 6.94 0.00
 8 7 13 -3.78 0.00
 10 7 13 6.98 0.00
 12 7 13 6.32 0.00
 14 7 13 9.41 0.00
 16 7 13 2.91 0.00
 18 7 13 -16.06 0.00
 20 7 13 -14.22 0.00
 22 7 13 6.09 0.00
 1 8 13 -49.44 0.00
 3 8 13 -14.98 0.00
 5 8 13 -26.83 0.00
 7 8 13 -21.87 0.00
 9 8 13 -16.38 0.00
 11 8 13 -21.53 0.00
 13 8 13 0.37 0.00
 15 8 13 8.11 0.00
 17 8 13 -9.42 0.00
 19 8 13 -4.33 0.00
 21 8 13 0.73 0.00
 23 8 13 -2.39 0.00
 2 9 13 22.87 0.00
 4 9 13 -34.19 0.00
 6 9 13 -8.80 0.00
 8 9 13 15.10 0.00
 10 9 13 17.88 0.00
 12 9 13 1.81 0.00
 14 9 13 -0.66 0.00
 16 9 13 -1.43 0.00
 18 9 13 -13.21 0.00
 20 9 13 -2.28 0.00
 22 9 13 18.36 0.00
 1 10 13 -46.45 0.00
 3 10 13 -31.67 0.00
 5 10 13 -28.12 0.00
 7 10 13 4.58 0.00
 9 10 13 4.48 0.00
 11 10 13 0.16 0.00
 13 10 13 -8.02 0.00
 15 10 13 -1.85 0.00
 17 10 13 -0.28 0.00
 19 10 13 -0.71 0.00
 21 10 13 -4.88 0.00
 2 11 13 -1.64 0.00
 4 11 13 19.31 0.00
 6 11 13 8.26 0.00
 8 11 13 14.68 0.00
 10 11 13 -4.91 0.00
 12 11 13 10.86 0.00
 14 11 13 14.72 0.00
 16 11 13 8.08 0.00
 18 11 13 -1.78 0.00
 20 11 13 -4.68 0.00
 22 11 13 6.25 0.00
 1 12 13 0.44 0.00
 3 12 13 -28.86 0.00
 5 12 13 -12.28 0.00
 7 12 13 -11.26 0.00
 9 12 13 4.06 0.00
 11 12 13 -7.45 0.00
 13 12 13 -7.32 0.00
 15 12 13 9.03 0.00
 17 12 13 3.36 0.00
 19 12 13 1.70 0.00
 21 12 13 -3.53 0.00
 2 13 13 21.00 0.00
 4 13 13 -2.53 0.00
 6 13 13 5.08 0.00
 8 13 13 -2.79 0.00
 10 13 13 -8.65 0.00
 12 13 13 4.35 0.00
 14 13 13 -8.52 0.00
 16 13 13 -6.42 0.00
 18 13 13 8.26 0.00
 20 13 13 -2.76 0.00
 22 13 13 -7.39 0.00
 1 14 13 -29.21 0.00
 3 14 13 -19.64 0.00
 5 14 13 -7.59 0.00
 7 14 13 14.35 0.00
 9 14 13 -4.37 0.00
 11 14 13 -10.86 0.00
 13 14 13 -13.13 0.00
 15 14 13 -1.72 0.00
 17 14 13 8.43 0.00
 19 14 13 -11.27 0.00
 21 14 13 1.21 0.00
 2 15 13 0.86 0.00
 4 15 13 -7.05 0.00
 6 15 13 6.26 0.00
 8 15 13 -1.05 0.00
 10 15 13 7.13 0.00
 12 15 13 15.77 0.00
 14 15 13 9.59 0.00
 16 15 13 4.87 0.00
 18 15 13 -7.67 0.00
 20 15 13 -11.57 0.00
 22 15 13 18.67 0.00
 1 16 13 -5.52 0.00
 3 16 13 -26.00 0.00
 5 16 13 -8.64 0.00
 7 16 13 -3.19 0.00
 9 16 13 -3.23 0.00
 11 16 13 -9.05 0.00
 13 16 13 3.36 0.00
 15 16 13 1.41 0.00
 17 16 13 -10.50 0.00
 19 16 13 -4.01 0.00
 21 16 13 13.12 0.00
 2 17 13 -15.93 0.00
 4 17 13 0.97 0.00
 6 17 13 -9.90 0.00
 8 17 13 14.51 0.00
 10 17 13 -15.06 0.00
 12 17 13 -1.74 0.00
 14 17 13 6.17 0.00
 16 17 13 -0.94 0.00
 18 17 13 -5.77 0.00
 20 17 13 3.63 0.00
 1 18 13 -10.86 0.00
 3 18 13 -23.54 0.00
 5 18 13 0.19 0.00
 7 18 13 9.73 0.00
 9 18 13 8.76 0.00
 11 18 13 1.44 0.00
 13 18 13 0.78 0.00
 15 18 13 -12.74 0.00
 17 18 13 0.63 0.00
 19 18 13 15.03 0.00
 21 18 13 1.34 0.00
 2 19 13 -2.08 0.00
 4 19 13 5.42 0.00
 6 19 13 -3.10 0.00
 8 19 13 -10.42 0.00
 10 19 13 -23.58 0.00
 12 19 13 -4.33 0.00
 14 19 13 -3.69 0.00
 16 19 13 -15.41 0.00
 18 19 13 -5.11 0.00
 20 19 13 -13.33 0.00
 1 20 13 7.68 0.00
 3 20 13 -17.02 0.00
 5 20 13 1.07 0.00
 7 20 13 0.11 0.00
 9 20 13 0.00 0.00
 11 20 13 1.40 0.00
 13 20 13 0.32 0.00
 15 20 13 3.75 0.00
 17 20 13 -0.32 0.00
 19 20 13 -1.85 0.00
 21 20 13 -0.03 0.00
 2 21 13 3.58 0.00
 4 21 13 -10.84 0.00
 6 21 13 3.67 0.00
 8 21 13 3.01 0.00
 10 21 13 -1.15 0.00
 12 21 13 -10.94 0.00
 14 21 13 8.08 0.00
 16 21 13 11.36 0.00
 18 21 13 -0.72 0.00
 20 21 13 -15.24 0.00
 1 22 13 -5.77 0.00
 3 22 13 -4.43 0.00
 5 22 13 -2.62 0.00
 7 22 13 -6.64 0.00
 9 22 13 2.50 0.00
 11 22 13 3.83 0.00
 13 22 13 -12.40 0.00
 15 22 13 15.04 0.00
 17 22 13 10.52 0.00
 19 22 13 5.74 0.00
 2 23 13 -8.12 0.00
 4 23 13 0.08 0.00
 6 23 13 7.82 0.00
 8 23 13 1.90 0.00
 10 23 13 -2.86 0.00
 12 23 13 4.35 0.00
 14 23 13 18.91 0.00
 16 23 13 -0.13 0.00
 18 23 13 5.74 0.00
 20 23 13 14.82 0.00
 1 24 13 -1.41 0.00
 3 24 13 -22.77 0.00
 5 24 13 -9.54 0.00
 7 24 13 -0.49 0.00
 9 24 13 6.50 0.00
 11 24 13 2.14 0.00
 13 24 13 9.63 0.00
 15 24 13 1.59 0.00
 17 24 13 10.29 0.00
 19 24 13 12.55 0.00
 2 25 13 -7.16 0.00
 4 25 13 10.81 0.00
 6 25 13 3.36 0.00
 8 25 13 -3.62 0.00
 10 25 13 8.19 0.00
 12 25 13 -7.90 0.00
 14 25 13 -10.86 0.00
 16 25 13 -3.80 0.00
 18 25 13 1.63 0.00
 1 26 13 2.76 0.00
 3 26 13 -10.18 0.00
 5 26 13 -9.28 0.00
 7 26 13 4.67 0.00
 9 26 13 -16.87 0.00
 11 26 13 4.36 0.00
 13 26 13 9.97 0.00
 15 26 13 1.09 0.00
 17 26 13 0.81 0.00
 19 26 13 3.68 0.00
 2 27 13 4.97 0.00
 4 27 13 -1.17 0.00
 6 27 13 13.23 0.00
 8 27 13 18.01 0.00
 10 27 13 -1.39 0.00
 12 27 13 6.28 0.00
 14 27 13 8.31 0.00
 16 27 13 -1.99 0.00
 18 27 13 -31.19 0.00
 1 28 13 -3.94 0.00
 3 28 13 2.55 0.00
 5 28 13 -12.08 0.00
 7 28 13 -5.53 0.00
 9 28 13 0.55 0.00
 11 28 13 5.93 0.00
 13 28 13 10.05 0.00
 15 28 13 2.53 0.00
 17 28 13 6.50 0.00
 2 29 13 9.20 0.00
 4 29 13 -8.03 0.00
 6 29 13 8.01 0.00
 8 29 13 8.96 0.00
 10 29 13 2.35 0.00
 12 29 13 5.21 0.00
 14 29 13 -0.94 0.00
 16 29 13 -17.45 0.00
 18 29 13 -17.04 0.00
 1 30 13 10.96 0.00
 3 30 13 6.76 0.00
 5 30 13 6.28 0.00
 7 30 13 -10.11 0.00
 9 30 13 -6.56 0.00
 11 30 13 8.22 0.00
 13 30 13 0.66 0.00
 15 30 13 -0.06 0.00
 17 30 13 6.01 0.00
 2 31 13 8.51 0.00
 4 31 13 1.47 0.00
 6 31 13 5.21 0.00
 8 31 13 0.97 0.00
 10 31 13 21.86 0.00
 12 31 13 2.19 0.00
 14 31 13 8.70 0.00
 16 31 13 5.84 0.00
 1 32 13 -0.10 0.00
 3 32 13 -4.80 0.00
 5 32 13 -6.90 0.00
 7 32 13 8.86 0.00
 9 32 13 -3.96 0.00
 11 32 13 1.20 0.00
 13 32 13 -3.23 0.00
 15 32 13 4.73 0.00
 2 33 13 -14.60 0.00
 4 33 13 -5.34 0.00
 6 33 13 1.30 0.00
 8 33 13 10.85 0.00
 10 33 13 -5.83 0.00
 12 33 13 9.77 0.00
 14 33 13 -7.83 0.00
 16 33 13 -15.78 0.00
 1 34 13 -8.88 0.00
 3 34 13 0.43 0.00
 5 34 13 -6.70 0.00
 7 34 13 6.08 0.00
 9 34 13 16.93 0.00
 11 34 13 12.35 0.00
 13 34 13 -26.90 0.00
 15 34 13 14.49 0.00
 2 35 13 -5.45 0.00
 4 35 13 1.74 0.00
 6 35 13 -1.14 0.00
 8 35 13 5.50 0.00
 10 35 13 1.01 0.00
 12 35 13 3.10 0.00
 14 35 13 -3.91 0.00
 1 36 13 6.95 0.00
 3 36 13 8.95 0.00
 5 36 13 8.05 0.00
 7 36 13 -0.67 0.00
 9 36 13 19.67 0.00
 11 36 13 15.09 0.00
 13 36 13 5.79 0.00
 2 37 13 -1.34 0.00
 4 37 13 -3.34 0.00
 6 37 13 -18.10 0.00
 8 37 13 6.96 0.00
 10 37 13 -10.01 0.00
 12 37 13 6.25 0.00
 1 38 13 -11.88 0.00
 3 38 13 -2.80 0.00
 5 38 13 6.80 0.00
 7 38 13 -15.04 0.00
 9 38 13 -14.76 0.00
 11 38 13 13.71 0.00
 2 39 13 -2.18 0.00
 4 39 13 -4.81 0.00
 6 39 13 -4.85 0.00
 8 39 13 5.57 0.00
 10 39 13 9.76 0.00
 1 40 13 2.36 0.00
 3 40 13 1.25 0.00
 5 40 13 1.15 0.00
 7 40 13 11.86 0.00
 9 40 13 -0.68 0.00
 2 41 13 -18.38 0.00
 4 41 13 -6.42 0.00
 6 41 13 -22.73 0.00
 8 41 13 -2.17 0.00
 1 42 13 4.98 0.00
 3 42 13 1.08 0.00
 5 42 13 -14.81 0.00
 7 42 13 7.34 0.00
 2 43 13 13.24 0.00
 4 43 13 3.19 0.00
 6 43 13 -12.20 0.00
 1 44 13 -8.02 0.00
 3 44 13 7.50 0.00
 5 44 13 2.23 0.00
 0 0 14 444.35 0.00
 4 0 14 -56.80 0.00
 6 0 14 -97.67 0.00
 8 0 14 -11.70 0.00
 10 0 14 0.02 0.00
 12 0 14 -5.74 0.00
 14 0 14 -10.81 0.00
 16 0 14 -1.52 0.00
 18 0 14 -1.04 0.00
 20 0 14 -22.66 0.00
 22 0 14 1.35 0.00
 1 1 14 19.83 0.00
 3 1 14 45.42 0.00
 5 1 14 -24.29 0.00
 7 1 14 -12.78 0.00
 9 1 14 27.54 0.00
 11 1 14 24.96 0.00
 13 1 14 -3.12 0.00
 15 1 14 -0.30 0.00
 17 1 14 -4.18 0.00
 19 1 14 -8.39 0.00
 21 1 14 8.52 0.00
 23 1 14 -13.39 0.00
 0 2 14 13.92 0.00
 2 2 14 -131.97 0.00
 4 2 14 -30.99 0.00
 6 2 14 -51.24 0.00
 8 2 14 -57.45 0.00
 10 2 14 -1.78 0.00
 12 2 14 -13.78 0.00
 14 2 14 -3.33 0.00
 16 2 14 12.87 0.00
 18 2 14 -11.82 0.00
 20 2 14 -15.36 0.00
 22 2 14 -7.33 0.00
 1 3 14 43.32 0.00
 3 3 14 51.32 0.00
 5 3 14 25.09 0.00
 7 3 14 0.62 0.00
 9 3 14 -8.70 0.00
 11 3 14 7.30 0.00
 13 3 14 9.04 0.00
 15 3 14 -6.59 0.00
 17 3 14 -2.84 0.00
 19 3 14 -0.45 0.00
 21 3 14 6.51 0.00
 23 3 14 7.23 0.00
 0 4 14 -26.49 0.00
 2 4 14 -9.01 0.00
 4 4 14 -0.41 0.00
 6 4 14 -28.91 0.00
 8 4 14 -27.70 0.00
 10 4 14 -14.21 0.00
 12 4 14 -1.29 0.00
 14 4 14 -8.86 0.00
 16 4 14 -1.12 0.00
 18 4 14 -3.74 0.00
 20 4 14 -1.76 0.00
 22 4 14 -4.29 0.00
 1 5 14 -3.88 0.00
 3 5 14 65.92 0.00
 5 5 14 9.17 0.00
 7 5 14 4.84 0.00
 9 5 14 18.31 0.00
 11 5 14 1.86 0.00
 13 5 14 0.47 0.00
 15 5 14 4.16 0.00
 17 5 14 6.16 0.00
 19 5 14 -3.72 0.00
 21 5 14 3.28 0.00
 23 5 14 17.19 0.00
 0 6 14 18.68 0.00
 2 6 14 -35.41 0.00
 4 6 14 -3.76 0.00
 6 6 14 -8.68 0.00
 8 6 14 -11.16 0.00
 10 6 14 -15.39 0.00
 12 6 14 1.55 0.00
 14 6 14 12.80 0.00
 16 6 14 6.01 0.00
 18 6 14 -9.03 0.00
 20 6 14 -2.20 0.00
 22 6 14 -6.19 0.00
 1 7 14 -21.60 0.00
 3 7 14 55.37 0.00
 5 7 14 56.25 0.00
 7 7 14 -23.24 0.00
 9 7 14 7.71 0.00
 11 7 14 4.84 0.00
 13 7 14 -3.89 0.00
 15 7 14 3.60 0.00
 17 7 14 8.86 0.00
 19 7 14 -16.96 0.00
 21 7 14 -15.67 0.00
 23 7 14 -4.50 0.00
 0 8 14 -31.94 0.00
 2 8 14 47.81 0.00
 4 8 14 12.45 0.00
 6 8 14 13.80 0.00
 8 8 14 -34.50 0.00
 10 8 14 -21.61 0.00
 12 8 14 -6.37 0.00
 14 8 14 1.35 0.00
 16 8 14 -1.47 0.00
 18 8 14 1.45 0.00
 20 8 14 -10.95 0.00
 22 8 14 -8.91 0.00
 1 9 14 15.81 0.00
 3 9 14 28.43 0.00
 5 9 14 24.17 0.00
 7 9 14 12.46 0.00
 9 9 14 0.90 0.00
 11 9 14 17.40 0.00
 13 9 14 6.22 0.00
 15 9 14 4.10 0.00
 17 9 14 6.72 0.00
 19 9 14 13.48 0.00
 21 9 14 4.22 0.00
 23 9 14 7.73 0.00
 0 10 14 -62.76 0.00
 2 10 14 37.26 0.00
 4 10 14 44.16 0.00
 6 10 14 -3.65 0.00
 8 10 14 7.21 0.00
 10 10 14 -3.94 0.00
 12 10 14 -1.06 0.00
 14 10 14 -1.90 0.00
 16 10 14 -3.44 0.00
 18 10 14 0.29 0.00
 20 10 14 3.66 0.00
 22 10 14 -6.68 0.00
 1 11 14 0.03 0.00
 3 11 14 -9.45 0.00
 5 11 14 33.45 0.00
 7 11 14 -10.70 0.00
 9 11 14 -14.95 0.00
 11 11 14 -10.14 0.00
 13 11 14 1.22 0.00
 15 11 14 -4.84 0.00
 17 11 14 1.93 0.00
 19 11 14 0.94 0.00
 21 11 14 -5.22 0.00
 0 12 14 -28.02 0.00
 2 12 14 0.18 0.00
 4 12 14 20.77 0.00
 6 12 14 19.35 0.00
 8 12 14 -10.94 0.00
 10 12 14 -0.50 0.00
 12 12 14 1.27 0.00
 14 12 14 -6.64 0.00
 16 12 14 -8.65 0.00
 18 12 14 0.13 0.00
 20 12 14 -15.78 0.00
 22 12 14 4.65 0.00
 1 13 14 -16.16 0.00
 3 13 14 7.21 0.00
 5 13 14 0.86 0.00
 7 13 14 -6.29 0.00
 9 13 14 -7.37 0.00
 11 13 14 15.65 0.00
 13 13 14 10.16 0.00
 15 13 14 2.97 0.00
 17 13 14 -5.30 0.00
 19 13 14 3.59 0.00
 21 13 14 0.00 0.00
 0 14 14 3.89 0.00
 2 14 14 13.01 0.00
 4 14 14 22.03 0.00
 6 14 14 19.81 0.00
 8 14 14 2.87 0.00
 10 14 14 -15.44 0.00
 12 14 14 8.50 0.00
 14 14 14 13.98 0.00
 16 14 14 -2.33 0.00
 18 14 14 -2.12 0.00
 20 14 14 -3.46 0.00
 22 14 14 6.27 0.00
 1 15 14 -3.39 0.00
 3 15 14 -3.55 0.00
 5 15 14 17.74 0.00
 7 15 14 -9.30 0.00
 9 15 14 1.09 0.00
 11 15 14 2.01 0.00
 13 15 14 -0.61 0.00
 15 15 14 7.50 0.00
 17 15 14 8.58 0.00
 19 15 14 -5.44 0.00
 21 15 14 -14.20 0.00
 0 16 14 -39.85 0.00
 2 16 14 -16.18 0.00
 4 16 14 1.93 0.00
 6 16 14 -0.26 0.00
 8 16 14 -2.37 0.00
 10 16 14 -4.80 0.00
 12 16 14 6.20 0.00
 14 16 14 4.98 0.00
 16 16 14 7.62 0.00
 18 16 14 -9.71 0.00
 20 16 14 14.92 0.00
 1 17 14 5.62 0.00
 3 17 14 0.54 0.00
 5 17 14 8.84 0.00
 7 17 14 1.67 0.00
 9 17 14 -6.65 0.00
 11 17 14 1.83 0.00
 13 17 14 -3.62 0.00
 15 17 14 17.75 0.00
 17 17 14 10.51 0.00
 19 17 14 13.54 0.00
 21 17 14 6.84 0.00
 0 18 14 -10.54 0.00
 2 18 14 2.72 0.00
 4 18 14 12.11 0.00
 6 18 14 4.04 0.00
 8 18 14 9.59 0.00
 10 18 14 -15.98 0.00
 12 18 14 -3.21 0.00
 14 18 14 2.30 0.00
 16 18 14 -18.23 0.00
 18 18 14 -0.45 0.00
 20 18 14 11.90 0.00
 1 19 14 28.68 0.00
 3 19 14 11.51 0.00
 5 19 14 10.61 0.00
 7 19 14 18.18 0.00
 9 19 14 -0.06 0.00
 11 19 14 -3.96 0.00
 13 19 14 11.95 0.00
 15 19 14 7.25 0.00
 17 19 14 6.17 0.00
 19 19 14 10.00 0.00
 21 19 14 -7.58 0.00
 0 20 14 -25.10 0.00
 2 20 14 -4.73 0.00
 4 20 14 -11.24 0.00
 6 20 14 1.48 0.00
 8 20 14 8.95 0.00
 10 20 14 -8.49 0.00
 12 20 14 -7.96 0.00
 14 20 14 -3.44 0.00
 16 20 14 6.68 0.00
 18 20 14 0.16 0.00
 20 20 14 -3.90 0.00
 1 21 14 10.18 0.00
 3 21 14 13.87 0.00
 5 21 14 -6.96 0.00
 7 21 14 7.87 0.00
 9 21 14 -0.80 0.00
 11 21 14 -4.08 0.00
 13 21 14 6.41 0.00
 15 21 14 1.44 0.00
 17 21 14 5.16 0.00
 19 21 14 23.97 0.00
 0 22 14 8.06 0.00
 2 22 14 4.64 0.00
 4 22 14 21.91 0.00
 6 22 14 5.10 0.00
 8 22 14 -5.21 0.00
 10 22 14 -13.86 0.00
 12 22 14 6.91 0.00
 14 22 14 7.71 0.00
 16 22 14 -4.87 0.00
 18 22 14 1.04 0.00
 20 22 14 19.52 0.00
 1 23 14 5.88 0.00
 3 23 14 -1.23 0.00
 5 23 14 4.77 0.00
 7 23 14 6.51 0.00
 9 23 14 1.57 0.00
 11 23 14 -1.96 0.00
 13 23 14 21.85 0.00
 15 23 14 -12.97 0.00
 17 23 14 -7.01 0.00
 19 23 14 -15.78 0.00
 0 24 14 1.99 0.00
 2 24 14 3.12 0.00
 4 24 14 -2.85 0.00
 6 24 14 10.33 0.00
 8 24 14 21.10 0.00
 10 24 14 -9.71 0.00
 12 24 14 -15.73 0.00
 14 24 14 15.67 0.00
 16 24 14 0.44 0.00
 18 24 14 -6.97 0.00
 1 25 14 -12.95 0.00
 3 25 14 -3.07 0.00
 5 25 14 -11.49 0.00
 7 25 14 -17.10 0.00
 9 25 14 -8.32 0.00
 11 25 14 -6.87 0.00
 13 25 14 -2.74 0.00
 15 25 14 -7.39 0.00
 17 25 14 13.72 0.00
 19 25 14 -2.56 0.00
 0 26 14 7.38 0.00
 2 26 14 3.47 0.00
 4 26 14 -5.70 0.00
 6 26 14 5.00 0.00
 8 26 14 12.46 0.00
 10 26 14 -7.51 0.00
 12 26 14 -8.89 0.00
 14 26 14 12.80 0.00
 16 26 14 2.07 0.00
 18 26 14 -7.79 0.00
 1 27 14 1.17 0.00
 3 27 14 8.64 0.00
 5 27 14 5.60 0.00
 7 27 14 9.99 0.00
 9 27 14 0.74 0.00
 11 27 14 -0.87 0.00
 13 27 14 13.23 0.00
 15 27 14 13.22 0.00
 17 27 14 -8.01 0.00
 0 28 14 22.78 0.00
 2 28 14 8.60 0.00
 4 28 14 0.97 0.00
 6 28 14 12.86 0.00
 8 28 14 13.74 0.00
 10 28 14 0.90 0.00
 12 28 14 1.21 0.00
 14 28 14 6.04 0.00
 16 28 14 6.98 0.00
 18 28 14 -4.97 0.00
 1 29 14 -15.70 0.00
 3 29 14 1.85 0.00
 5 29 14 -8.06 0.00
 7 29 14 -6.84 0.00
 9 29 14 -3.77 0.00
 11 29 14 -2.53 0.00
 13 29 14 2.22 0.00
 15 29 14 7.38 0.00
 17 29 14 -8.69 0.00
 0 30 14 -9.15 0.00
 2 30 14 -9.09 0.00
 4 30 14 -0.39 0.00
 6 30 14 10.23 0.00
 8 30 14 -1.65 0.00
 10 30 14 -4.30 0.00
 12 30 14 -1.72 0.00
 14 30 14 -2.94 0.00
 16 30 14 -4.54 0.00
 1 31 14 35.12 0.00
 3 31 14 18.12 0.00
 5 31 14 1.61 0.00
 7 31 14 5.19 0.00
 9 31 14 10.18 0.00
 11 31 14 -2.51 0.00
 13 31 14 11.28 0.00
 15 31 14 -12.62 0.00
 17 31 14 -8.26 0.00
 0 32 14 -6.87 0.00
 2 32 14 -1.81 0.00
 4 32 14 -13.92 0.00
 6 32 14 -23.37 0.00
 8 32 14 -2.53 0.00
 10 32 14 17.23 0.00
 12 32 14 19.60 0.00
 14 32 14 13.01 0.00
 16 32 14 -2.74 0.00
 1 33 14 -9.78 0.00
 3 33 14 -21.06 0.00
 5 33 14 -4.11 0.00
 7 33 14 -5.55 0.00
 9 33 14 -15.28 0.00
 11 33 14 -9.78 0.00
 13 33 14 12.54 0.00
 15 33 14 8.60 0.00
 0 34 14 -17.36 0.00
 2 34 14 -6.88 0.00
 4 34 14 -13.31 0.00
 6 34 14 -0.84 0.00
 8 34 14 -4.99 0.00
 10 34 14 12.54 0.00
 12 34 14 14.76 0.00
 14 34 14 11.55 0.00
 1 35 14 4.09 0.00
 3 35 14 0.42 0.00
 5 35 14 19.01 0.00
 7 35 14 -14.31 0.00
 9 35 14 -7.28 0.00
 11 35 14 -3.16 0.00
 13 35 14 -3.92 0.00
 0 36 14 -7.64 0.00
 2 36 14 4.92 0.00
 4 36 14 -12.97 0.00
 6 36 14 10.02 0.00
 8 36 14 -2.43 0.00
 10 36 14 -13.77 0.00
 12 36 14 8.25 0.00
 14 36 14 11.51 0.00
 1 37 14 -9.97 0.00
 3 37 14 3.98 0.00
 5 37 14 -1.13 0.00
 7 37 14 -0.80 0.00
 9 37 14 -13.78 0.00
 11 37 14 -1.84 0.00
 13 37 14 -2.60 0.00
 0 38 14 -0.19 0.00
 2 38 14 7.63 0.00
 4 38 14 -7.19 0.00
 6 38 14 3.33 0.00
 8 38 14 6.65 0.00
 10 38 14 10.41 0.00
 12 38 14 -6.21 0.00
 1 39 14 21.82 0.00
 3 39 14 -7.10 0.00
 5 39 14 15.99 0.00
 7 39 14 3.86 0.00
 9 39 14 -19.29 0.00
 11 39 14 10.39 0.00
 0 40 14 -12.42 0.00
 2 40 14 1.06 0.00
 4 40 14 -14.70 0.00
 6 40 14 -0.54 0.00
 8 40 14 -2.25 0.00
 10 40 14 7.03 0.00
 1 41 14 3.70 0.00
 3 41 14 3.02 0.00
 5 41 14 3.87 0.00
 7 41 14 3.78 0.00
 9 41 14 -1.16 0.00
 0 42 14 1.44 0.00
 2 42 14 -6.03 0.00
 4 42 14 5.48 0.00
 6 42 14 -12.25 0.00
 8 42 14 -4.45 0.00
 1 43 14 5.26 0.00
 3 43 14 -5.13 0.00
 5 43 14 7.13 0.00
 0 44 14 20.04 0.00
 2 44 14 1.89 0.00
 4 44 14 -17.22 0.00
 2 1 15 -5.55 0.00
 4 1 15 -54.10 0.00
 6 1 15 12.61 0.00
 8 1 15 18.80 0.00
 10 1 15 -5.68 0.00
 12 1 15 3.57 0.00
 14 1 15 -5.22 0.00
 16 1 15 -8.60 0.00
 18 1 15 -12.78 0.00
 20 1 15 -13.16 0.00
 22 1 15 -7.34 0.00
 1 2 15 20.63 0.00
 3 2 15 11.72 0.00
 5 2 15 12.44 0.00
 7 2 15 47.36 0.00
 9 2 15 -5.94 0.00
 11 2 15 -12.04 0.00
 13 2 15 6.35 0.00
 15 2 15 11.80 0.00
 17 2 15 -3.45 0.00
 19 2 15 -7.98 0.00
 21 2 15 23.43 0.00
 23 2 15 7.54 0.00
 2 3 15 59.10 0.00
 4 3 15 26.95 0.00
 6 3 15 -7.21 0.00
 8 3 15 5.92 0.00
 10 3 15 -0.87 0.00
 12 3 15 10.25 0.00
 14 3 15 -2.85 0.00
 16 3 15 2.50 0.00
 18 3 15 -3.92 0.00
 20 3 15 -11.07 0.00
 22 3 15 -1.58 0.00
 1 4 15 -10.53 0.00
 3 4 15 14.10 0.00
 5 4 15 -9.60 0.00
 7 4 15 -12.23 0.00
 9 4 15 9.33 0.00
 11 4 15 -1.19 0.00
 13 4 15 0.35 0.00
 15 4 15 4.76 0.00
 17 4 15 -3.57 0.00
 19 4 15 -11.54 0.00
 21 4 15 12.87 0.00
 23 4 15 7.26 0.00
 2 5 15 64.66 0.00
 4 5 15 -3.42 0.00
 6 5 15 38.19 0.00
 8 5 15 -1.75 0.00
 10 5 15 3.43 0.00
 12 5 15 6.94 0.00
 14 5 15 -1.05 0.00
 16 5 15 -1.77 0.00
 18 5 15 -1.22 0.00
 20 5 15 -1.86 0.00
 22 5 15 1.58 0.00
 1 6 15 -69.78 0.00
 3 6 15 -81.56 0.00
 5 6 15 -61.23 0.00
 7 6 15 -17.45 0.00
 9 6 15 -8.51 0.00
 11 6 15 -2.76 0.00
 13 6 15 5.33 0.00
 15 6 15 8.21 0.00
 17 6 15 -0.07 0.00
 19 6 15 -4.35 0.00
 21 6 15 2.86 0.00
 23 6 15 6.58 0.00
 2 7 15 -5.68 0.00
 4 7 15 -27.55 0.00
 6 7 15 -4.74 0.00
 8 7 15 14.74 0.00
 10 7 15 -5.45 0.00
 12 7 15 -9.12 0.00
 14 7 15 -7.54 0.00
 16 7 15 -3.95 0.00
 18 7 15 -19.07 0.00
 20 7 15 2.83 0.00
 22 7 15 -7.23 0.00
 1 8 15 -31.70 0.00
 3 8 15 -30.73 0.00
 5 8 15 3.13 0.00
 7 8 15 -5.55 0.00
 9 8 15 17.17 0.00
 11 8 15 -2.52 0.00
 13 8 15 -13.89 0.00
 15 8 15 -14.62 0.00
 17 8 15 -22.33 0.00
 19 8 15 -7.87 0.00
 21 8 15 -2.73 0.00
 23 8 15 -4.49 0.00
 2 9 15 24.27 0.00
 4 9 15 -34.32 0.00
 6 9 15 -10.10 0.00
 8 9 15 24.55 0.00
 10 9 15 22.42 0.00
 12 9 15 0.59 0.00
 14 9 15 -3.08 0.00
 16 9 15 -6.68 0.00
 18 9 15 -7.90 0.00
 20 9 15 1.96 0.00
 22 9 15 -17.71 0.00
 1 10 15 -11.31 0.00
 3 10 15 -31.67 0.00
 5 10 15 -28.50 0.00
 7 10 15 -14.70 0.00
 9 10 15 -6.36 0.00
 11 10 15 -3.99 0.00
 13 10 15 3.41 0.00
 15 10 15 8.10 0.00
 17 10 15 4.09 0.00
 19 10 15 8.24 0.00
 21 10 15 2.05 0.00
 2 11 15 5.69 0.00
 4 11 15 -12.18 0.00
 6 11 15 0.02 0.00
 8 11 15 2.83 0.00
 10 11 15 -9.15 0.00
 12 11 15 0.11 0.00
 14 11 15 4.09 0.00
 16 11 15 -1.50 0.00
 18 11 15 1.39 0.00
 20 11 15 -0.17 0.00
 22 11 15 -3.15 0.00
 1 12 15 23.98 0.00
 3 12 15 -2.50 0.00
 5 12 15 1.45 0.00
 7 12 15 8.55 0.00
 9 12 15 2.17 0.00
 11 12 15 6.15 0.00
 13 12 15 3.36 0.00
 15 12 15 2.51 0.00
 17 12 15 13.77 0.00
 19 12 15 3.22 0.00
 21 12 15 -7.94 0.00
 2 13 15 16.75 0.00
 4 13 15 0.02 0.00
 6 13 15 -10.28 0.00
 8 13 15 -9.86 0.00
 10 13 15 -17.71 0.00
 12 13 15 -4.72 0.00
 14 13 15 -3.73 0.00
 16 13 15 8.82 0.00
 18 13 15 -4.04 0.00
 20 13 15 4.24 0.00
 22 13 15 -16.19 0.00
 1 14 15 20.30 0.00
 3 14 15 37.65 0.00
 5 14 15 -7.04 0.00
 7 14 15 -18.96 0.00
 9 14 15 -1.37 0.00
 11 14 15 -9.81 0.00
 13 14 15 0.41 0.00
 15 14 15 -8.83 0.00
 17 14 15 4.17 0.00
 19 14 15 0.58 0.00
 21 14 15 4.54 0.00
 2 15 15 1.83 0.00
 4 15 15 2.92 0.00
 6 15 15 -8.49 0.00
 8 15 15 17.99 0.00
 10 15 15 4.16 0.00
 12 15 15 -13.38 0.00
 14 15 15 -7.65 0.00
 16 15 15 -10.58 0.00
 18 15 15 -4.60 0.00
 20 15 15 1.91 0.00
 22 15 15 10.82 0.00
 1 16 15 15.24 0.00
 3 16 15 4.38 0.00
 5 16 15 -6.84 0.00
 7 16 15 -1.70 0.00
 9 16 15 2.20 0.00
 11 16 15 -0.55 0.00
 13 16 15 6.52 0.00
 15 16 15 -8.28 0.00
 17 16 15 -11.56 0.00
 19 16 15 -5.48 0.00
 21 16 15 10.03 0.00
 2 17 15 5.06 0.00
 4 17 15 -23.18 0.00
 6 17 15 -15.07 0.00
 8 17 15 -2.38 0.00
 10 17 15 -11.10 0.00
 12 17 15 -9.70 0.00
 14 17 15 3.49 0.00
 16 17 15 -7.06 0.00
 18 17 15 6.68 0.00
 20 17 15 -2.92 0.00
 1 18 15 -7.25 0.00
 3 18 15 11.95 0.00
 5 18 15 5.28 0.00
 7 18 15 0.75 0.00
 9 18 15 0.16 0.00
 11 18 15 -2.45 0.00
 13 18 15 -6.89 0.00
 15 18 15 0.29 0.00
 17 18 15 3.20 0.00
 19 18 15 1.52 0.00
 21 18 15 0.12 0.00
 2 19 15 -9.46 0.00
 4 19 15 7.16 0.00
 6 19 15 5.87 0.00
 8 19 15 -3.69 0.00
 10 19 15 5.32 0.00
 12 19 15 -11.94 0.00
 14 19 15 -1.21 0.00
 16 19 15 -12.99 0.00
 18 19 15 -14.90 0.00
 20 19 15 1.42 0.00
 1 20 15 2.42 0.00
 3 20 15 17.54 0.00
 5 20 15 4.96 0.00
 7 20 15 12.10 0.00
 9 20 15 -6.23 0.00
 11 20 15 -3.21 0.00
 13 20 15 -2.18 0.00
 15 20 15 -2.08 0.00
 17 20 15 -8.87 0.00
 19 20 15 2.48 0.00
 2 21 15 1.11 0.00
 4 21 15 -5.31 0.00
 6 21 15 -11.57 0.00
 8 21 15 -9.63 0.00
 10 21 15 -23.09 0.00
 12 21 15 0.30 0.00
 14 21 15 37.10 0.00
 16 21 15 2.13 0.00
 18 21 15 -9.19 0.00
 20 21 15 -10.79 0.00
 1 22 15 17.83 0.00
 3 22 15 24.54 0.00
 5 22 15 0.81 0.00
 7 22 15 9.11 0.00
 9 22 15 6.42 0.00
 11 22 15 0.49 0.00
 13 22 15 -7.21 0.00
 15 22 15 9.16 0.00
 17 22 15 1.99 0.00
 19 22 15 -4.65 0.00
 2 23 15 -5.02 0.00
 4 23 15 0.86 0.00
 6 23 15 7.05 0.00
 8 23 15 -13.49 0.00
 10 23 15 0.95 0.00
 12 23 15 12.88 0.00
 14 23 15 11.09 0.00
 16 23 15 7.04 0.00
 18 23 15 5.29 0.00
 20 23 15 4.77 0.00
 1 24 15 -0.84 0.00
 3 24 15 9.98 0.00
 5 24 15 -3.02 0.00
 7 24 15 2.06 0.00
 9 24 15 10.50 0.00
 11 24 15 17.59 0.00
 13 24 15 -9.90 0.00
 15 24 15 -0.07 0.00
 17 24 15 2.49 0.00
 19 24 15 4.80 0.00
 2 25 15 -2.62 0.00
 4 25 15 5.82 0.00
 6 25 15 -9.57 0.00
 8 25 15 1.23 0.00
 10 25 15 -4.16 0.00
 12 25 15 12.05 0.00
 14 25 15 -13.14 0.00
 16 25 15 25.08 0.00
 18 25 15 11.84 0.00
 1 26 15 0.35 0.00
 3 26 15 18.47 0.00
 5 26 15 -10.99 0.00
 7 26 15 0.60 0.00
 9 26 15 6.87 0.00
 11 26 15 -13.53 0.00
 13 26 15 4.20 0.00
 15 26 15 -2.36 0.00
 17 26 15 -10.08 0.00
 19 26 15 -10.24 0.00
 2 27 15 1.33 0.00
 4 27 15 -11.92 0.00
 6 27 15 -5.72 0.00
 8 27 15 9.95 0.00
 10 27 15 0.73 0.00
 12 27 15 -11.25 0.00
 14 27 15 -4.81 0.00
 16 27 15 19.80 0.00
 18 27 15 -9.46 0.00
 1 28 15 10.51 0.00
 3 28 15 1.18 0.00
 5 28 15 4.05 0.00
 7 28 15 4.63 0.00
 9 28 15 -4.25 0.00
 11 28 15 7.19 0.00
 13 28 15 11.73 0.00
 15 28 15 2.07 0.00
 17 28 15 0.71 0.00
 2 29 15 7.58 0.00
 4 29 15 13.88 0.00
 6 29 15 19.62 0.00
 8 29 15 27.12 0.00
 10 29 15 4.95 0.00
 12 29 15 5.63 0.00
 14 29 15 15.17 0.00
 16 29 15 -15.28 0.00
 1 30 15 -14.20 0.00
 3 30 15 5.44 0.00
 5 30 15 4.80 0.00
 7 30 15 4.49 0.00
 9 30 15 -22.58 0.00
 11 30 15 -14.59 0.00
 13 30 15 -3.58 0.00
 15 30 15 -9.99 0.00
 17 30 15 -5.92 0.00
 2 31 15 16.11 0.00
 4 31 15 5.13 0.00
 6 31 15 7.55 0.00
 8 31 15 18.33 0.00
 10 31 15 9.36 0.00
 12 31 15 12.80 0.00
 14 31 15 -3.31 0.00
 16 31 15 -0.90 0.00
 1 32 15 -17.57 0.00
 3 32 15 1.19 0.00
 5 32 15 -1.87 0.00
 7 32 15 -3.95 0.00
 9 32 15 3.53 0.00
 11 32 15 2.12 0.00
 13 32 15 12.69 0.00
 15 32 15 26.68 0.00
 2 33 15 19.74 0.00
 4 33 15 -6.10 0.00
 6 33 15 15.10 0.00
 8 33 15 -3.66 0.00
 10 33 15 7.38 0.00
 12 33 15 0.54 0.00
 14 33 15 -17.12 0.00
 1 34 15 -25.95 0.00
 3 34 15 -11.57 0.00
 5 34 15 -4.36 0.00
 7 34 15 2.67 0.00
 9 34 15 10.05 0.00
 11 34 15 -4.28 0.00
 13 34 15 4.90 0.00
 15 34 15 -33.87 0.00
 2 35 15 -5.52 0.00
 4 35 15 2.14 0.00
 6 35 15 6.59 0.00
 8 35 15 17.00 0.00
 10 35 15 0.88 0.00
 12 35 15 10.84 0.00
 14 35 15 4.54 0.00
 1 36 15 3.87 0.00
 3 36 15 9.03 0.00
 5 36 15 2.95 0.00
 7 36 15 9.25 0.00
 9 36 15 13.14 0.00
 11 36 15 6.27 0.00
 13 36 15 -7.69 0.00
 2 37 15 3.80 0.00
 4 37 15 -10.57 0.00
 6 37 15 1.08 0.00
 8 37 15 20.37 0.00
 10 37 15 2.83 0.00
 12 37 15 -1.86 0.00
 1 38 15 2.42 0.00
 3 38 15 -1.64 0.00
 5 38 15 -12.84 0.00
 7 38 15 -10.70 0.00
 9 38 15 -7.93 0.00
 11 38 15 3.50 0.00
 2 39 15 7.41 0.00
 4 39 15 -0.16 0.00
 6 39 15 6.41 0.00
 8 39 15 16.69 0.00
 10 39 15 25.39 0.00
 1 40 15 9.12 0.00
 3 40 15 -18.59 0.00
 5 40 15 -7.10 0.00
 7 40 15 -5.56 0.00
 9 40 15 18.70 0.00
 2 41 15 4.72 0.00
 4 41 15 -3.97 0.00
 6 41 15 -6.19 0.00
 8 41 15 8.14 0.00
 1 42 15 5.20 0.00
 3 42 15 -3.32 0.00
 5 42 15 -1.21 0.00
 7 42 15 3.24 0.00
 2 43 15 10.29 0.00
 4 43 15 -2.93 0.00
 6 43 15 -9.06 0.00
 1 44 15 7.58 0.00
 3 44 15 -1.09 0.00
 0 0 16 290.19 0.00
 2 0 16 52.13 0.00
 4 0 16 29.98 0.00
 6 0 16 -3.55 0.00
 8 0 16 -2.06 0.00
 10 0 16 -6.10 0.00
 12 0 16 -9.11 0.00
 14 0 16 -13.90 0.00
 16 0 16 -1.78 0.00
 18 0 16 -25.71 0.00
 20 0 16 -25.30 0.00
 22 0 16 -7.69 0.00
 1 1 16 19.55 0.00
 3 1 16 -4.25 0.00
 5 1 16 -14.59 0.00
 7 1 16 20.36 0.00
 9 1 16 21.44 0.00
 11 1 16 3.94 0.00
 13 1 16 5.37 0.00
 15 1 16 0.92 0.00
 17 1 16 -2.73 0.00
 19 1 16 -6.03 0.00
 21 1 16 -9.46 0.00
 23 1 16 -7.84 0.00
 0 2 16 -120.87 0.00
 2 2 16 22.86 0.00
 4 2 16 -63.07 0.00
 6 2 16 -52.61 0.00
 8 2 16 -11.55 0.00
 10 2 16 0.11 0.00
 12 2 16 -0.32 0.00
 14 2 16 -7.61 0.00
 16 2 16 -2.10 0.00
 18 2 16 -2.93 0.00
 20 2 16 1.62 0.00
 22 2 16 4.77 0.00
 1 3 16 26.18 0.00
 3 3 16 49.86 0.00
 5 3 16 -2.89 0.00
 7 3 16 -8.87 0.00
 9 3 16 -0.68 0.00
 11 3 16 -4.24 0.00
 13 3 16 1.91 0.00
 15 3 16 1.96 0.00
 17 3 16 0.59 0.00
 19 3 16 4.11 0.00
 21 3 16 -0.33 0.00
 23 3 16 -8.51 0.00
 0 4 16 -18.24 0.00
 2 4 16 -59.97 0.00
 4 4 16 5.58 0.00
 6 4 16 1.94 0.00
 8 4 16 -4.23 0.00
 10 4 16 5.66 0.00
 12 4 16 -19.01 0.00
 14 4 16 -5.67 0.00
 16 4 16 -9.87 0.00
 18 4 16 -1.21 0.00
 20 4 16 12.11 0.00
 22 4 16 -0.13 0.00
 1 5 16 21.28 0.00
 3 5 16 -23.74 0.00
 5 5 16 -8.25 0.00
 7 5 16 -22.32 0.00
 9 5 16 -12.81 0.00
 11 5 16 2.97 0.00
 13 5 16 2.58 0.00
 15 5 16 12.39 0.00
 17 5 16 10.80 0.00
 19 5 16 5.77 0.00
 21 5 16 8.55 0.00
 23 5 16 -15.53 0.00
 2 6 16 40.70 0.00
 4 6 16 -27.64 0.00
 6 6 16 14.99 0.00
 8 6 16 -14.72 0.00
 10 6 16 -4.58 0.00
 12 6 16 5.83 0.00
 14 6 16 8.40 0.00
 16 6 16 -1.69 0.00
 18 6 16 12.59 0.00
 20 6 16 3.07 0.00
 22 6 16 0.50 0.00
 1 7 16 9.04 0.00
 3 7 16 13.25 0.00
 5 7 16 4.46 0.00
 7 7 16 4.79 0.00
 9 7 16 5.32 0.00
 11 7 16 1.09 0.00
 13 7 16 -10.37 0.00
 15 7 16 -11.16 0.00
 17 7 16 -7.44 0.00
 19 7 16 -13.09 0.00
 21 7 16 5.79 0.00
 23 7 16 -21.11 0.00
 0 8 16 6.30 0.00
 2 8 16 -15.32 0.00
 4 8 16 60.38 0.00
 6 8 16 4.28 0.00
 8 8 16 15.53 0.00
 10 8 16 13.22 0.00
 12 8 16 14.66 0.00
 14 8 16 7.51 0.00
 16 8 16 3.80 0.00
 18 8 16 -11.06 0.00
 20 8 16 -0.46 0.00
 22 8 16 6.55 0.00
 1 9 16 40.53 0.00
 3 9 16 5.52 0.00
 5 9 16 26.40 0.00
 7 9 16 -2.45 0.00
 9 9 16 -1.70 0.00
 11 9 16 -3.64 0.00
 13 9 16 -6.73 0.00
 15 9 16 12.73 0.00
 17 9 16 18.10 0.00
 19 9 16 4.85 0.00
 21 9 16 -16.96 0.00
 0 10 16 -28.05 0.00
 2 10 16 -12.47 0.00
 4 10 16 -12.26 0.00
 6 10 16 -7.44 0.00
 8 10 16 -3.74 0.00
 10 10 16 1.63 0.00
 12 10 16 -10.68 0.00
 14 10 16 0.21 0.00
 16 10 16 4.74 0.00
 18 10 16 -5.06 0.00
 20 10 16 5.84 0.00
 22 10 16 13.70 0.00
 1 11 16 56.91 0.00
 3 11 16 10.33 0.00
 5 11 16 -14.74 0.00
 7 11 16 -2.61 0.00
 9 11 16 0.65 0.00
 11 11 16 -7.04 0.00
 13 11 16 -7.38 0.00
 15 11 16 -7.22 0.00
 17 11 16 0.07 0.00
 19 11 16 0.67 0.00
 21 11 16 10.34 0.00
 0 12 16 -16.95 0.00
 2 12 16 -46.94 0.00
 4 12 16 -10.77 0.00
 6 12 16 11.72 0.00
 8 12 16 19.33 0.00
 10 12 16 -3.66 0.00
 12 12 16 1.64 0.00
 14 12 16 0.23 0.00
 16 12 16 -11.21 0.00
 18 12 16 -2.15 0.00
 20 12 16 -10.72 0.00
 22 12 16 -14.82 0.00
 1 13 16 27.51 0.00
 3 13 16 13.97 0.00
 5 13 16 14.25 0.00
 7 13 16 18.64 0.00
 9 13 16 10.72 0.00
 11 13 16 3.60 0.00
 13 13 16 2.11 0.00
 15 13 16 8.07 0.00
 17 13 16 2.37 0.00
 19 13 16 -2.62 0.00
 21 13 16 0.86 0.00
 0 14 16 -2.99 0.00
 2 14 16 -21.68 0.00
 4 14 16 -16.48 0.00
 6 14 16 -25.38 0.00
 8 14 16 -0.60 0.00
 10 14 16 21.68 0.00
 12 14 16 14.43 0.00
 14 14 16 -2.94 0.00
 16 14 16 3.71 0.00
 18 14 16 5.08 0.00
 20 14 16 -9.99 0.00
 22 14 16 2.87 0.00
 1 15 16 42.14 0.00
 3 15 16 8.46 0.00
 5 15 16 5.86 0.00
 7 15 16 -6.07 0.00
 9 15 16 -8.09 0.00
 11 15 16 11.89 0.00
 13 15 16 6.79 0.00
 15 15 16 8.21 0.00
 17 15 16 1.67 0.00
 19 15 16 -2.87 0.00
 21 15 16 -9.36 0.00
 0 16 16 11.64 0.00
 2 16 16 8.50 0.00
 4 16 16 -5.31 0.00
 6 16 16 6.76 0.00
 8 16 16 3.45 0.00
 10 16 16 -2.10 0.00
 12 16 16 -0.55 0.00
 14 16 16 -15.56 0.00
 16 16 16 14.88 0.00
 18 16 16 12.93 0.00
 20 16 16 0.28 0.00
 1 17 16 -4.39 0.00
 3 17 16 -7.18 0.00
 5 17 16 -6.62 0.00
 7 17 16 9.11 0.00
 9 17 16 -14.24 0.00
 11 17 16 -3.94 0.00
 13 17 16 4.19 0.00
 15 17 16 -5.72 0.00
 17 17 16 13.64 0.00
 19 17 16 2.60 0.00
 21 17 16 -4.21 0.00
 0 18 16 29.70 0.00
 2 18 16 -14.26 0.00
 4 18 16 2.11 0.00
 6 18 16 9.14 0.00
 8 18 16 12.28 0.00
 10 18 16 8.88 0.00
 12 18 16 10.72 0.00
 14 18 16 -4.70 0.00
 16 18 16 15.29 0.00
 18 18 16 0.09 0.00
 20 18 16 -3.07 0.00
 1 19 16 24.15 0.00
 3 19 16 1.31 0.00
 5 19 16 11.07 0.00
 7 19 16 5.18 0.00
 9 19 16 -2.76 0.00
 11 19 16 -5.06 0.00
 13 19 16 -2.38 0.00
 15 19 16 10.20 0.00
 17 19 16 9.03 0.00
 19 19 16 -7.64 0.00
 21 19 16 -12.25 0.00
 0 20 16 25.26 0.00
 2 20 16 -1.50 0.00
 4 20 16 -6.51 0.00
 6 20 16 -14.39 0.00
 8 20 16 -0.07 0.00
 10 20 16 -11.49 0.00
 12 20 16 9.21 0.00
 14 20 16 -1.97 0.00
 16 20 16 1.17 0.00
 18 20 16 -6.93 0.00
 20 20 16 -2.14 0.00
 1 21 16 -2.44 0.00
 3 21 16 8.72 0.00
 5 21 16 -6.33 0.00
 7 21 16 -8.92 0.00
 9 21 16 -4.79 0.00
 11 21 16 -24.10 0.00
 13 21 16 4.95 0.00
 15 21 16 7.50 0.00
 17 21 16 11.09 0.00
 19 21 16 -4.17 0.00
 0 22 16 -26.52 0.00
 2 22 16 -0.77 0.00
 4 22 16 2.42 0.00
 6 22 16 -6.54 0.00
 8 22 16 -9.74 0.00
 10 22 16 13.00 0.00
 12 22 16 -2.72 0.00
 14 22 16 1.11 0.00
 16 22 16 -11.58 0.00
 18 22 16 -2.53 0.00
 20 22 16 2.07 0.00
 1 23 16 1.74 0.00
 3 23 16 2.58 0.00
 5 23 16 22.85 0.00
 7 23 16 1.68 0.00
 9 23 16 2.39 0.00
 11 23 16 -1.00 0.00
 13 23 16 27.18 0.00
 15 23 16 0.43 0.00
 17 23 16 -0.04 0.00
 19 23 16 13.26 0.00
 0 24 16 2.33 0.00
 2 24 16 -6.09 0.00
 4 24 16 -23.70 0.00
 6 24 16 -5.91 0.00
 8 24 16 -2.46 0.00
 10 24 16 10.91 0.00
 12 24 16 -6.73 0.00
 14 24 16 -7.87 0.00
 16 24 16 -11.76 0.00
 18 24 16 -6.37 0.00
 1 25 16 -1.33 0.00
 3 25 16 7.58 0.00
 5 25 16 -2.26 0.00
 7 25 16 -11.11 0.00
 9 25 16 -9.83 0.00
 11 25 16 5.71 0.00
 13 25 16 1.72 0.00
 15 25 16 -14.63 0.00
 17 25 16 -2.89 0.00
 19 25 16 -6.69 0.00
 0 26 16 7.41 0.00
 2 26 16 -8.19 0.00
 4 26 16 -22.63 0.00
 6 26 16 -3.52 0.00
 8 26 16 10.39 0.00
 10 26 16 -11.27 0.00
 12 26 16 -7.75 0.00
 14 26 16 5.51 0.00
 16 26 16 3.24 0.00
 18 26 16 15.34 0.00
 1 27 16 -10.22 0.00
 3 27 16 6.36 0.00
 5 27 16 -8.88 0.00
 7 27 16 -12.22 0.00
 9 27 16 8.68 0.00
 11 27 16 10.10 0.00
 13 27 16 -1.01 0.00
 15 27 16 16.11 0.00
 17 27 16 3.32 0.00
 0 28 16 5.41 0.00
 2 28 16 -6.36 0.00
 4 28 16 -23.32 0.00
 6 28 16 -0.49 0.00
 8 28 16 -1.85 0.00
 10 28 16 -11.49 0.00
 12 28 16 1.58 0.00
 14 28 16 -0.28 0.00
 16 28 16 -4.33 0.00
 18 28 16 6.80 0.00
 1 29 16 -12.27 0.00
 3 29 16 1.57 0.00
 5 29 16 -12.08 0.00
 7 29 16 -6.43 0.00
 9 29 16 -18.80 0.00
 11 29 16 1.52 0.00
 13 29 16 17.32 0.00
 15 29 16 10.50 0.00
 17 29 16 -11.99 0.00
 0 30 16 7.33 0.00
 2 30 16 -7.24 0.00
 4 30 16 -8.59 0.00
 6 30 16 2.52 0.00
 8 30 16 7.60 0.00
 10 30 16 -3.28 0.00
 12 30 16 -6.09 0.00
 14 30 16 -8.05 0.00
 16 30 16 1.49 0.00
 1 31 16 6.64 0.00
 3 31 16 5.82 0.00
 5 31 16 -1.22 0.00
 7 31 16 10.76 0.00
 9 31 16 -15.12 0.00
 11 31 16 -7.59 0.00
 13 31 16 12.44 0.00
 15 31 16 5.88 0.00
 0 32 16 12.15 0.00
 2 32 16 -10.97 0.00
 4 32 16 -24.38 0.00
 6 32 16 7.67 0.00
 8 32 16 -6.49 0.00
 10 32 16 4.65 0.00
 12 32 16 3.17 0.00
 14 32 16 4.08 0.00
 16 32 16 -13.54 0.00
 1 33 16 -5.37 0.00
 3 33 16 -3.61 0.00
 5 33 16 -1.29 0.00
 7 33 16 6.11 0.00
 9 33 16 5.40 0.00
 11 33 16 -0.09 0.00
 13 33 16 1.36 0.00
 15 33 16 1.27 0.00
 0 34 16 -1.06 0.00
 2 34 16 7.96 0.00
 4 34 16 -8.97 0.00
 6 34 16 0.18 0.00
 8 34 16 2.86 0.00
 10 34 16 -1.14 0.00
 12 34 16 -2.15 0.00
 14 34 16 -3.58 0.00
 1 35 16 -4.13 0.00
 3 35 16 -6.75 0.00
 5 35 16 -9.01 0.00
 7 35 16 -3.22 0.00
 9 35 16 11.03 0.00
 11 35 16 1.92 0.00
 13 35 16 -2.95 0.00
 0 36 16 -28.40 0.00
 2 36 16 -1.53 0.00
 4 36 16 12.85 0.00
 6 36 16 7.65 0.00
 8 36 16 2.31 0.00
 10 36 16 2.41 0.00
 12 36 16 1.88 0.00
 1 37 16 4.52 0.00
 3 37 16 -8.15 0.00
 5 37 16 8.08 0.00
 7 37 16 23.17 0.00
 9 37 16 15.31 0.00
 11 37 16 -5.19 0.00
 0 38 16 -12.66 0.00
 2 38 16 9.11 0.00
 4 38 16 -15.33 0.00
 6 38 16 3.73 0.00
 8 38 16 0.17 0.00
 10 38 16 2.08 0.00
 12 38 16 6.38 0.00
 1 39 16 -1.33 0.00
 3 39 16 -10.89 0.00
 5 39 16 -1.36 0.00
 7 39 16 4.14 0.00
 9 39 16 -19.36 0.00
 11 39 16 9.03 0.00
 0 40 16 0.62 0.00
 2 40 16 -1.87 0.00
 4 40 16 1.05 0.00
 6 40 16 -4.64 0.00
 8 40 16 -13.14 0.00
 10 40 16 -2.82 0.00
 1 41 16 5.93 0.00
 3 41 16 10.20 0.00
 5 41 16 16.25 0.00
 7 41 16 -7.78 0.00
 9 41 16 4.16 0.00
 0 42 16 -10.84 0.00
 2 42 16 -13.71 0.00
 4 42 16 13.87 0.00
 6 42 16 32.01 0.00
 1 43 16 15.21 0.00
 3 43 16 3.09 0.00
 5 43 16 1.46 0.00
 0 44 16 2.04 0.00
 2 44 16 -9.14 0.00
 2 1 17 -49.62 0.00
 4 1 17 -23.02 0.00
 6 1 17 -10.09 0.00
 8 1 17 -26.64 0.00
 10 1 17 1.17 0.00
 12 1 17 -5.73 0.00
 14 1 17 -0.54 0.00
 16 1 17 -1.55 0.00
 18 1 17 0.21 0.00
 20 1 17 3.86 0.00
 22 1 17 8.04 0.00
 1 2 17 -2.57 0.00
 3 2 17 40.30 0.00
 5 2 17 10.14 0.00
 7 2 17 -28.50 0.00
 9 2 17 -12.52 0.00
 11 2 17 4.64 0.00
 13 2 17 -1.32 0.00
 15 2 17 14.60 0.00
 17 2 17 -8.57 0.00
 19 2 17 10.73 0.00
 21 2 17 -1.85 0.00
 23 2 17 0.46 0.00
 2 3 17 -1.64 0.00
 4 3 17 4.34 0.00
 6 3 17 38.50 0.00
 8 3 17 0.10 0.00
 10 3 17 4.92 0.00
 12 3 17 9.01 0.00
 14 3 17 -4.72 0.00
 16 3 17 3.07 0.00
 18 3 17 4.55 0.00
 20 3 17 -16.63 0.00
 22 3 17 -2.59 0.00
 1 4 17 26.52 0.00
 3 4 17 -26.51 0.00
 5 4 17 3.32 0.00
 7 4 17 -1.49 0.00
 9 4 17 -20.44 0.00
 11 4 17 4.86 0.00
 13 4 17 -0.81 0.00
 15 4 17 3.19 0.00
 17 4 17 -4.29 0.00
 19 4 17 -0.58 0.00
 21 4 17 -19.07 0.00
 23 4 17 -0.63 0.00
 2 5 17 33.61 0.00
 4 5 17 44.73 0.00
 6 5 17 -19.80 0.00
 8 5 17 -15.46 0.00
 10 5 17 -12.80 0.00
 12 5 17 -5.17 0.00
 14 5 17 1.93 0.00
 16 5 17 -4.41 0.00
 18 5 17 8.88 0.00
 20 5 17 -4.68 0.00
 22 5 17 1.18 0.00
 1 6 17 -1.80 0.00
 3 6 17 -16.47 0.00
 5 6 17 10.29 0.00
 7 6 17 -19.40 0.00
 9 6 17 -9.01 0.00
 11 6 17 -4.31 0.00
 13 6 17 3.87 0.00
 15 6 17 1.31 0.00
 17 6 17 5.25 0.00
 19 6 17 -9.63 0.00
 21 6 17 -12.49 0.00
 2 7 17 -19.75 0.00
 4 7 17 -1.74 0.00
 6 7 17 5.54 0.00
 8 7 17 4.86 0.00
 10 7 17 0.11 0.00
 12 7 17 -2.40 0.00
 14 7 17 -0.66 0.00
 16 7 17 -9.99 0.00
 18 7 17 -12.35 0.00
 20 7 17 -17.22 0.00
 22 7 17 -21.59 0.00
 1 8 17 27.19 0.00
 3 8 17 6.47 0.00
 5 8 17 8.65 0.00
 7 8 17 -1.24 0.00
 9 8 17 -4.14 0.00
 11 8 17 -7.01 0.00
 13 8 17 4.46 0.00
 15 8 17 -7.51 0.00
 17 8 17 9.30 0.00
 19 8 17 -4.54 0.00
 21 8 17 2.45 0.00
 2 9 17 -14.91 0.00
 4 9 17 -2.34 0.00
 6 9 17 9.74 0.00
 8 9 17 -14.15 0.00
 10 9 17 -13.26 0.00
 12 9 17 2.27 0.00
 14 9 17 -4.14 0.00
 16 9 17 5.73 0.00
 18 9 17 1.22 0.00
 20 9 17 -2.93 0.00
 22 9 17 -5.35 0.00
 1 10 17 1.13 0.00
 3 10 17 4.64 0.00
 5 10 17 -13.53 0.00
 7 10 17 12.75 0.00
 9 10 17 -7.94 0.00
 11 10 17 4.33 0.00
 13 10 17 6.61 0.00
 15 10 17 -12.07 0.00
 17 10 17 -2.64 0.00
 19 10 17 14.68 0.00
 21 10 17 8.39 0.00
 2 11 17 -36.51 0.00
 4 11 17 2.51 0.00
 6 11 17 -7.62 0.00
 8 11 17 -4.41 0.00
 10 11 17 -5.50 0.00
 12 11 17 8.84 0.00
 14 11 17 12.74 0.00
 16 11 17 6.94 0.00
 18 11 17 0.28 0.00
 20 11 17 -13.54 0.00
 22 11 17 -9.40 0.00
 1 12 17 -3.12 0.00
 3 12 17 -7.91 0.00
 5 12 17 20.13 0.00
 7 12 17 3.28 0.00
 9 12 17 -2.39 0.00
 11 12 17 6.75 0.00
 13 12 17 16.76 0.00
 15 12 17 -5.39 0.00
 17 12 17 -8.51 0.00
 19 12 17 0.68 0.00
 21 12 17 -5.49 0.00
 2 13 17 -0.76 0.00
 4 13 17 -11.17 0.00
 6 13 17 4.04 0.00
 8 13 17 -6.79 0.00
 10 13 17 5.29 0.00
 12 13 17 -3.59 0.00
 14 13 17 -2.25 0.00
 16 13 17 5.80 0.00
 18 13 17 12.52 0.00
 20 13 17 3.56 0.00
 22 13 17 -3.52 0.00
 1 14 17 -19.18 0.00
 3 14 17 21.41 0.00
 5 14 17 23.72 0.00
 7 14 17 -0.18 0.00
 9 14 17 -21.88 0.00
 11 14 17 -2.88 0.00
 13 14 17 1.62 0.00
 15 14 17 -17.27 0.00
 17 14 17 1.60 0.00
 19 14 17 -8.23 0.00
 21 14 17 0.00 0.00
 2 15 17 -12.38 0.00
 4 15 17 -10.96 0.00
 6 15 17 2.14 0.00
 8 15 17 -8.26 0.00
 10 15 17 -7.41 0.00
 12 15 17 -4.09 0.00
 14 15 17 8.21 0.00
 16 15 17 -0.96 0.00
 18 15 17 -3.66 0.00
 20 15 17 -3.24 0.00
 1 16 17 6.86 0.00
 3 16 17 -1.18 0.00
 5 16 17 -6.11 0.00
 7 16 17 4.25 0.00
 9 16 17 7.87 0.00
 11 16 17 -4.10 0.00
 13 16 17 0.22 0.00
 15 16 17 -5.84 0.00
 17 16 17 -10.47 0.00
 19 16 17 -16.12 0.00
 21 16 17 3.01 0.00
 2 17 17 -21.55 0.00
 4 17 17 -14.37 0.00
 6 17 17 -0.91 0.00
 8 17 17 17.85 0.00
 10 17 17 7.29 0.00
 12 17 17 -1.12 0.00
 14 17 17 6.71 0.00
 16 17 17 6.62 0.00
 18 17 17 0.98 0.00
 20 17 17 0.43 0.00
 1 18 17 -1.37 0.00
 3 18 17 9.57 0.00
 5 18 17 0.67 0.00
 7 18 17 -3.30 0.00
 9 18 17 1.14 0.00
 11 18 17 -9.81 0.00
 13 18 17 8.07 0.00
 15 18 17 11.53 0.00
 17 18 17 -8.78 0.00
 19 18 17 1.77 0.00
 21 18 17 -6.35 0.00
 2 19 17 8.36 0.00
 4 19 17 7.61 0.00
 6 19 17 3.71 0.00
 8 19 17 0.03 0.00
 10 19 17 4.95 0.00
 12 19 17 -9.79 0.00
 14 19 17 -7.64 0.00
 16 19 17 -14.33 0.00
 18 19 17 -0.95 0.00
 20 19 17 3.61 0.00
 1 20 17 -8.54 0.00
 3 20 17 3.54 0.00
 5 20 17 -0.08 0.00
 7 20 17 2.22 0.00
 9 20 17 1.82 0.00
 11 20 17 -2.64 0.00
 13 20 17 -5.87 0.00
 15 20 17 -0.62 0.00
 17 20 17 -10.16 0.00
 19 20 17 -7.81 0.00
 2 21 17 -7.37 0.00
 4 21 17 -5.82 0.00
 6 21 17 -0.45 0.00
 8 21 17 7.82 0.00
 10 21 17 24.60 0.00
 12 21 17 4.57 0.00
 14 21 17 -0.89 0.00
 16 21 17 1.93 0.00
 18 21 17 1.22 0.00
 20 21 17 -2.95 0.00
 1 22 17 -20.29 0.00
 3 22 17 11.76 0.00
 5 22 17 -14.06 0.00
 7 22 17 -6.12 0.00
 9 22 17 -5.01 0.00
 11 22 17 10.37 0.00
 13 22 17 -10.00 0.00
 15 22 17 4.31 0.00
 17 22 17 -3.22 0.00
 19 22 17 -10.19 0.00
 2 23 17 -19.86 0.00
 4 23 17 1.53 0.00
 6 23 17 9.24 0.00
 8 23 17 6.81 0.00
 10 23 17 -5.96 0.00
 12 23 17 16.98 0.00
 14 23 17 0.34 0.00
 16 23 17 7.12 0.00
 18 23 17 -6.72 0.00
 1 24 17 -4.38 0.00
 3 24 17 -7.43 0.00
 5 24 17 1.55 0.00
 7 24 17 -0.59 0.00
 9 24 17 18.36 0.00
 11 24 17 -9.27 0.00
 13 24 17 2.36 0.00
 15 24 17 -7.84 0.00
 17 24 17 -4.19 0.00
 19 24 17 15.07 0.00
 2 25 17 -10.07 0.00
 4 25 17 11.36 0.00
 6 25 17 5.76 0.00
 8 25 17 -10.63 0.00
 10 25 17 -0.11 0.00
 12 25 17 5.49 0.00
 14 25 17 -3.92 0.00
 16 25 17 6.32 0.00
 18 25 17 12.68 0.00
 1 26 17 -4.45 0.00
 3 26 17 -8.34 0.00
 5 26 17 8.18 0.00
 7 26 17 5.61 0.00
 9 26 17 15.42 0.00
 11 26 17 -13.16 0.00
 13 26 17 -10.43 0.00
 15 26 17 -7.40 0.00
 17 26 17 -12.68 0.00
 2 27 17 -19.58 0.00
 4 27 17 -4.69 0.00
 6 27 17 1.51 0.00
 8 27 17 7.95 0.00
 10 27 17 -6.48 0.00
 12 27 17 -17.37 0.00
 14 27 17 -1.38 0.00
 16 27 17 -1.49 0.00
 18 27 17 -1.83 0.00
 1 28 17 9.45 0.00
 3 28 17 17.46 0.00
 5 28 17 -5.05 0.00
 7 28 17 -2.94 0.00
 9 28 17 -1.56 0.00
 11 28 17 -5.33 0.00
 13 28 17 3.24 0.00
 15 28 17 0.35 0.00
 17 28 17 -5.86 0.00
 2 29 17 -2.03 0.00
 4 29 17 -6.09 0.00
 6 29 17 0.89 0.00
 8 29 17 4.83 0.00
 10 29 17 4.10 0.00
 12 29 17 -6.84 0.00
 14 29 17 -3.01 0.00
 16 29 17 -10.22 0.00
 1 30 17 -2.09 0.00
 3 30 17 6.80 0.00
 5 30 17 16.83 0.00
 7 30 17 5.93 0.00
 9 30 17 1.29 0.00
 11 30 17 8.33 0.00
 13 30 17 4.47 0.00
 15 30 17 -3.62 0.00
 17 30 17 12.68 0.00
 2 31 17 5.82 0.00
 4 31 17 5.36 0.00
 6 31 17 -6.71 0.00
 8 31 17 -17.15 0.00
 10 31 17 16.66 0.00
 12 31 17 8.88 0.00
 14 31 17 1.22 0.00
 16 31 17 -2.96 0.00
 1 32 17 1.08 0.00
 3 32 17 -0.13 0.00
 5 32 17 10.49 0.00
 7 32 17 3.13 0.00
 9 32 17 -14.63 0.00
 11 32 17 -5.43 0.00
 13 32 17 10.22 0.00
 15 32 17 -2.72 0.00
 2 33 17 12.43 0.00
 4 33 17 5.94 0.00
 6 33 17 -13.02 0.00
 8 33 17 -16.47 0.00
 10 33 17 -10.01 0.00
 12 33 17 1.83 0.00
 14 33 17 -15.25 0.00
 1 34 17 -14.65 0.00
 3 34 17 -11.12 0.00
 5 34 17 13.78 0.00
 7 34 17 0.20 0.00
 9 34 17 0.18 0.00
 11 34 17 7.00 0.00
 13 34 17 10.60 0.00
 2 35 17 10.33 0.00
 4 35 17 14.22 0.00
 6 35 17 20.50 0.00
 8 35 17 -2.86 0.00
 10 35 17 11.24 0.00
 12 35 17 2.80 0.00
 14 35 17 -14.29 0.00
 1 36 17 -5.37 0.00
 3 36 17 2.44 0.00
 5 36 17 9.49 0.00
 7 36 17 -3.40 0.00
 9 36 17 -9.63 0.00
 11 36 17 -1.06 0.00
 13 36 17 8.34 0.00
 2 37 17 4.62 0.00
 4 37 17 16.43 0.00
 6 37 17 -1.40 0.00
 8 37 17 -4.74 0.00
 10 37 17 -2.55 0.00
 12 37 17 24.10 0.00
 1 38 17 1.23 0.00
 3 38 17 -4.53 0.00
 5 38 17 5.20 0.00
 7 38 17 -14.72 0.00
 9 38 17 -11.46 0.00
 11 38 17 -13.25 0.00
 2 39 17 -1.85 0.00
 4 39 17 2.67 0.00
 6 39 17 19.68 0.00
 8 39 17 6.82 0.00
 10 39 17 15.38 0.00
 1 40 17 8.50 0.00
 3 40 17 -17.30 0.00
 5 40 17 2.26 0.00
 7 40 17 -0.52 0.00
 9 40 17 3.10 0.00
 2 41 17 -6.20 0.00
 4 41 17 -1.31 0.00
 6 41 17 4.25 0.00
 8 41 17 -4.06 0.00
 1 42 17 5.44 0.00
 3 42 17 -5.06 0.00
 5 42 17 -9.26 0.00
 7 42 17 -8.93 0.00
 2 43 17 17.06 0.00
 4 43 17 5.23 0.00
 1 44 17 2.93 0.00
 3 44 17 5.81 0.00
 0 0 18 106.31 0.00
 2 0 18 108.98 0.00
 4 0 18 -5.16 0.00
 6 0 18 -30.28 0.00
 8 0 18 -45.89 0.00
 10 0 18 -32.52 0.00
 12 0 18 3.59 0.00
 14 0 18 7.96 0.00
 16 0 18 20.61 0.00
 18 0 18 -5.71 0.00
 20 0 18 12.77 0.00
 22 0 18 2.18 0.00
 1 1 18 4.41 0.00
 3 1 18 -16.47 0.00
 5 1 18 -13.69 0.00
 7 1 18 0.80 0.00
 9 1 18 3.78 0.00
 11 1 18 -0.33 0.00
 13 1 18 -0.11 0.00
 15 1 18 1.91 0.00
 17 1 18 -4.14 0.00
 19 1 18 6.85 0.00
 21 1 18 -21.13 0.00
 23 1 18 -17.03 0.00
 0 2 18 28.17 0.00
 2 2 18 -19.23 0.00
 4 2 18 7.94 0.00
 6 2 18 28.01 0.00
 8 2 18 0.19 0.00
 10 2 18 4.91 0.00
 12 2 18 -2.94 0.00
 14 2 18 10.09 0.00
 16 2 18 0.91 0.00
 18 2 18 -1.63 0.00
 20 2 18 7.92 0.00
 22 2 18 -8.54 0.00
 1 3 18 23.89 0.00
 3 3 18 -36.89 0.00
 5 3 18 36.35 0.00
 7 3 18 16.52 0.00
 9 3 18 -2.31 0.00
 11 3 18 11.17 0.00
 13 3 18 2.76 0.00
 15 3 18 -13.13 0.00
 17 3 18 -4.03 0.00
 19 3 18 11.71 0.00
 21 3 18 -5.48 0.00
 23 3 18 -4.49 0.00
 0 4 18 -114.51 0.00
 2 4 18 -38.26 0.00
 4 4 18 -55.61 0.00
 6 4 18 -26.69 0.00
 8 4 18 12.52 0.00
 10 4 18 0.30 0.00
 12 4 18 -5.48 0.00
 14 4 18 -1.95 0.00
 16 4 18 -14.97 0.00
 18 4 18 17.77 0.00
 20 4 18 7.77 0.00
 22 4 18 2.85 0.00
 1 5 18 -34.44 0.00
 3 5 18 -5.45 0.00
 5 5 18 -0.73 0.00
 7 5 18 -10.67 0.00
 9 5 18 -16.39 0.00
 11 5 18 -5.36 0.00
 13 5 18 8.31 0.00
 15 5 18 7.55 0.00
 17 5 18 -4.80 0.00
 19 5 18 6.68 0.00
 21 5 18 7.97 0.00
 0 6 18 54.72 0.00
 2 6 18 7.66 0.00
 4 6 18 35.32 0.00
 6 6 18 17.37 0.00
 8 6 18 8.78 0.00
 10 6 18 8.90 0.00
 12 6 18 3.01 0.00
 14 6 18 0.98 0.00
 16 6 18 -6.68 0.00
 18 6 18 2.44 0.00
 20 6 18 -1.67 0.00
 22 6 18 16.85 0.00
 1 7 18 -13.54 0.00
 3 7 18 -17.44 0.00
 5 7 18 1.06 0.00
 7 7 18 16.56 0.00
 9 7 18 -0.44 0.00
 11 7 18 -7.90 0.00
 13 7 18 -3.78 0.00
 15 7 18 -10.93 0.00
 17 7 18 -0.42 0.00
 19 7 18 -5.92 0.00
 21 7 18 -3.72 0.00
 0 8 18 13.16 0.00
 2 8 18 -6.87 0.00
 4 8 18 -18.22 0.00
 6 8 18 -6.99 0.00
 8 8 18 -3.59 0.00
 10 8 18 18.94 0.00
 12 8 18 8.79 0.00
 14 8 18 7.90 0.00
 16 8 18 -3.12 0.00
 18 8 18 -5.80 0.00
 20 8 18 -4.84 0.00
 22 8 18 12.80 0.00
 1 9 18 7.44 0.00
 3 9 18 1.54 0.00
 5 9 18 -2.30 0.00
 7 9 18 -3.82 0.00
 9 9 18 -21.08 0.00
 11 9 18 -2.47 0.00
 13 9 18 -6.66 0.00
 15 9 18 2.27 0.00
 17 9 18 3.18 0.00
 19 9 18 13.05 0.00
 21 9 18 -2.02 0.00
 0 10 18 31.12 0.00
 2 10 18 39.38 0.00
 4 10 18 34.34 0.00
 6 10 18 5.47 0.00
 8 10 18 13.42 0.00
 10 10 18 0.79 0.00
 12 10 18 -8.58 0.00
 14 10 18 18.87 0.00
 16 10 18 8.30 0.00
 18 10 18 -8.77 0.00
 20 10 18 -8.64 0.00
 22 10 18 -8.84 0.00
 1 11 18 -29.65 0.00
 3 11 18 1.54 0.00
 5 11 18 -10.47 0.00
 7 11 18 -35.90 0.00
 9 11 18 -7.95 0.00
 11 11 18 6.96 0.00
 13 11 18 -16.37 0.00
 15 11 18 -16.01 0.00
 17 11 18 0.97 0.00
 19 11 18 10.79 0.00
 21 11 18 -4.67 0.00
 0 12 18 15.46 0.00
 2 12 18 -3.57 0.00
 4 12 18 -5.42 0.00
 6 12 18 10.67 0.00
 8 12 18 -7.77 0.00
 10 12 18 7.77 0.00
 12 12 18 -6.49 0.00
 14 12 18 -0.38 0.00
 16 12 18 3.57 0.00
 18 12 18 8.05 0.00
 20 12 18 -14.44 0.00
 22 12 18 -4.55 0.00
 1 13 18 -34.83 0.00
 3 13 18 21.88 0.00
 5 13 18 -16.73 0.00
 7 13 18 4.32 0.00
 9 13 18 9.76 0.00
 11 13 18 4.79 0.00
 13 13 18 2.90 0.00
 15 13 18 -0.70 0.00
 17 13 18 -18.85 0.00
 19 13 18 -8.34 0.00
 21 13 18 -2.51 0.00
 0 14 18 -5.71 0.00
 2 14 18 24.06 0.00
 4 14 18 25.30 0.00
 6 14 18 0.11 0.00
 8 14 18 -11.52 0.00
 10 14 18 1.28 0.00
 12 14 18 -1.58 0.00
 14 14 18 2.04 0.00
 16 14 18 -4.86 0.00
 18 14 18 13.22 0.00
 20 14 18 -5.80 0.00
 1 15 18 -37.09 0.00
 3 15 18 -4.12 0.00
 5 15 18 0.24 0.00
 7 15 18 -13.15 0.00
 9 15 18 4.30 0.00
 11 15 18 -15.62 0.00
 13 15 18 5.77 0.00
 15 15 18 3.46 0.00
 17 15 18 0.98 0.00
 19 15 18 1.70 0.00
 21 15 18 -2.76 0.00
 0 16 18 -23.38 0.00
 2 16 18 -7.04 0.00
 4 16 18 15.38 0.00
 6 16 18 -20.40 0.00
 8 16 18 -9.39 0.00
 10 16 18 7.08 0.00
 12 16 18 1.28 0.00
 14 16 18 -7.27 0.00
 16 16 18 11.12 0.00
 18 16 18 -1.10 0.00
 20 16 18 -1.96 0.00
 1 17 18 -13.58 0.00
 3 17 18 0.11 0.00
 5 17 18 -6.06 0.00
 7 17 18 3.72 0.00
 9 17 18 2.49 0.00
 11 17 18 5.22 0.00
 13 17 18 7.78 0.00
 15 17 18 3.12 0.00
 17 17 18 -1.21 0.00
 19 17 18 2.54 0.00
 21 17 18 -1.49 0.00
 0 18 18 5.25 0.00
 2 18 18 14.84 0.00
 4 18 18 -0.83 0.00
 6 18 18 -4.37 0.00
 8 18 18 -3.95 0.00
 10 18 18 -10.73 0.00
 12 18 18 -7.36 0.00
 14 18 18 6.50 0.00
 16 18 18 -12.10 0.00
 18 18 18 3.03 0.00
 20 18 18 4.82 0.00
 1 19 18 0.67 0.00
 3 19 18 0.26 0.00
 5 19 18 13.47 0.00
 7 19 18 11.31 0.00
 9 19 18 6.29 0.00
 11 19 18 -5.14 0.00
 13 19 18 16.27 0.00
 15 19 18 0.18 0.00
 17 19 18 -5.64 0.00
 19 19 18 11.85 0.00
 0 20 18 23.24 0.00
 2 20 18 14.66 0.00
 4 20 18 -8.54 0.00
 6 20 18 -1.31 0.00
 8 20 18 0.00 0.00
 10 20 18 -0.85 0.00
 12 20 18 1.57 0.00
 14 20 18 0.30 0.00
 16 20 18 -9.86 0.00
 18 20 18 0.43 0.00
 20 20 18 -15.85 0.00
 1 21 18 2.78 0.00
 3 21 18 2.72 0.00
 5 21 18 -10.39 0.00
 7 21 18 7.87 0.00
 9 21 18 13.31 0.00
 11 21 18 9.25 0.00
 13 21 18 30.04 0.00
 15 21 18 3.84 0.00
 17 21 18 -5.82 0.00
 19 21 18 -1.92 0.00
 0 22 18 7.79 0.00
 2 22 18 14.48 0.00
 4 22 18 20.27 0.00
 6 22 18 3.35 0.00
 8 22 18 -1.44 0.00
 10 22 18 9.87 0.00
 12 22 18 9.65 0.00
 14 22 18 1.10 0.00
 16 22 18 -2.64 0.00
 18 22 18 -1.19 0.00
 1 23 18 -14.72 0.00
 3 23 18 -4.75 0.00
 5 23 18 -5.67 0.00
 7 23 18 2.94 0.00
 9 23 18 -1.30 0.00
 11 23 18 -3.29 0.00
 13 23 18 -2.55 0.00
 15 23 18 0.49 0.00
 17 23 18 21.53 0.00
 19 23 18 9.98 0.00
 0 24 18 -14.04 0.00
 2 24 18 5.87 0.00
 4 24 18 -2.32 0.00
 6 24 18 7.27 0.00
 8 24 18 9.37 0.00
 10 24 18 44.18 0.00
 12 24 18 9.74 0.00
 14 24 18 7.89 0.00
 16 24 18 -2.33 0.00
 18 24 18 8.30 0.00
 1 25 18 -8.62 0.00
 3 25 18 1.76 0.00
 5 25 18 -6.91 0.00
 7 25 18 -15.98 0.00
 9 25 18 -14.39 0.00
 11 25 18 4.85 0.00
 13 25 18 -22.90 0.00
 15 25 18 -4.18 0.00
 17 25 18 -15.75 0.00
 19 25 18 6.97 0.00
 0 26 18 3.11 0.00
 2 26 18 11.71 0.00
 4 26 18 1.64 0.00
 6 26 18 -4.93 0.00
 8 26 18 5.91 0.00
 10 26 18 2.81 0.00
 12 26 18 8.19 0.00
 14 26 18 -1.57 0.00
 16 26 18 -5.71 0.00
 18 26 18 1.80 0.00
 1 27 18 -9.80 0.00
 3 27 18 -6.96 0.00
 5 27 18 2.18 0.00
 7 27 18 -3.54 0.00
 9 27 18 -8.30 0.00
 11 27 18 -1.45 0.00
 13 27 18 -6.29 0.00
 15 27 18 4.29 0.00
 17 27 18 -0.60 0.00
 0 28 18 10.82 0.00
 2 28 18 14.38 0.00
 4 28 18 9.96 0.00
 6 28 18 2.83 0.00
 8 28 18 15.84 0.00
 10 28 18 -4.06 0.00
 12 28 18 9.29 0.00
 14 28 18 18.42 0.00
 16 28 18 9.76 0.00
 1 29 18 -11.04 0.00
 3 29 18 2.60 0.00
 5 29 18 4.53 0.00
 7 29 18 1.98 0.00
 9 29 18 9.05 0.00
 11 29 18 -9.81 0.00
 13 29 18 -7.11 0.00
 15 29 18 -5.17 0.00
 17 29 18 -4.10 0.00
 0 30 18 5.17 0.00
 2 30 18 3.57 0.00
 4 30 18 -0.04 0.00
 6 30 18 12.17 0.00
 8 30 18 -2.87 0.00
 10 30 18 -11.36 0.00
 12 30 18 -18.97 0.00
 14 30 18 -1.78 0.00
 16 30 18 -7.55 0.00
 1 31 18 2.82 0.00
 3 31 18 -1.81 0.00
 5 31 18 9.61 0.00
 7 31 18 -0.69 0.00
 9 31 18 1.19 0.00
 11 31 18 -0.09 0.00
 13 31 18 8.56 0.00
 15 31 18 -3.73 0.00
 0 32 18 -0.57 0.00
 2 32 18 -3.03 0.00
 4 32 18 -9.85 0.00
 6 32 18 -3.03 0.00
 8 32 18 11.31 0.00
 10 32 18 3.44 0.00
 12 32 18 -8.82 0.00
 14 32 18 5.69 0.00
 1 33 18 -10.17 0.00
 3 33 18 -3.99 0.00
 5 33 18 5.56 0.00
 7 33 18 -4.53 0.00
 9 33 18 -13.43 0.00
 11 33 18 1.33 0.00
 13 33 18 16.93 0.00
 15 33 18 -4.83 0.00
 0 34 18 29.33 0.00
 2 34 18 -6.74 0.00
 4 34 18 -13.14 0.00
 6 34 18 0.68 0.00
 8 34 18 1.85 0.00
 10 34 18 -4.52 0.00
 12 34 18 -3.56 0.00
 14 34 18 -7.02 0.00
 1 35 18 7.05 0.00
 3 35 18 -6.14 0.00
 5 35 18 26.13 0.00
 7 35 18 8.12 0.00
 9 35 18 -1.34 0.00
 11 35 18 -2.17 0.00
 13 35 18 4.26 0.00
 0 36 18 4.79 0.00
 2 36 18 1.48 0.00
 4 36 18 10.03 0.00
 6 36 18 17.52 0.00
 8 36 18 -1.47 0.00
 10 36 18 3.02 0.00
 12 36 18 10.71 0.00
 1 37 18 8.50 0.00
 3 37 18 19.86 0.00
 5 37 18 8.70 0.00
 7 37 18 9.43 0.00
 9 37 18 -4.72 0.00
 11 37 18 -6.50 0.00
 0 38 18 -0.25 0.00
 2 38 18 4.60 0.00
 4 38 18 11.51 0.00
 6 38 18 5.37 0.00
 8 38 18 -14.36 0.00
 10 38 18 -0.57 0.00
 1 39 18 8.93 0.00
 3 39 18 -2.68 0.00
 5 39 18 -2.48 0.00
 7 39 18 10.44 0.00
 9 39 18 -2.96 0.00
 0 40 18 10.11 0.00
 2 40 18 1.97 0.00
 4 40 18 16.39 0.00
 6 40 18 14.10 0.00
 8 40 18 -13.28 0.00
 1 41 18 -10.30 0.00
 3 41 18 4.87 0.00
 5 41 18 3.35 0.00
 7 41 18 -4.94 0.00
 0 42 18 2.54 0.00
 2 42 18 2.29 0.00
 4 42 18 28.06 0.00
 6 42 18 -16.71 0.00
 1 43 18 -17.89 0.00
 3 43 18 -8.73 0.00
 5 43 18 2.96 0.00
 0 44 18 -0.10 0.00
 2 1 19 14.83 0.00
 4 1 19 -48.04 0.00
 6 1 19 -10.39 0.00
 8 1 19 8.40 0.00
 10 1 19 -9.27 0.00
 12 1 19 18.98 0.00
 14 1 19 3.29 0.00
 16 1 19 0.21 0.00
 18 1 19 -7.13 0.00
 20 1 19 -11.32 0.00
 22 1 19 -1.63 0.00
 1 2 19 20.16 0.00
 3 2 19 31.90 0.00
 5 2 19 -0.85 0.00
 7 2 19 -15.53 0.00
 9 2 19 -13.77 0.00
 11 2 19 8.34 0.00
 13 2 19 10.68 0.00
 15 2 19 9.52 0.00
 17 2 19 -7.78 0.00
 19 2 19 -0.17 0.00
 21 2 19 -0.47 0.00
 2 3 19 -6.96 0.00
 4 3 19 23.27 0.00
 6 3 19 -9.29 0.00
 8 3 19 9.78 0.00
 10 3 19 -2.77 0.00
 12 3 19 12.02 0.00
 14 3 19 8.76 0.00
 16 3 19 10.15 0.00
 18 3 19 -17.02 0.00
 20 3 19 -27.10 0.00
 22 3 19 6.25 0.00
 1 4 19 -12.10 0.00
 3 4 19 15.05 0.00
 5 4 19 1.70 0.00
 7 4 19 -25.81 0.00
 9 4 19 -2.59 0.00
 11 4 19 -3.57 0.00
 13 4 19 6.73 0.00
 15 4 19 -6.48 0.00
 17 4 19 5.94 0.00
 19 4 19 1.46 0.00
 21 4 19 -3.70 0.00
 2 5 19 33.22 0.00
 4 5 19 58.71 0.00
 6 5 19 44.71 0.00
 8 5 19 3.24 0.00
 10 5 19 1.03 0.00
 12 5 19 0.97 0.00
 14 5 19 5.20 0.00
 16 5 19 8.73 0.00
 18 5 19 11.55 0.00
 20 5 19 4.67 0.00
 22 5 19 12.20 0.00
 1 6 19 10.10 0.00
 3 6 19 -25.21 0.00
 5 6 19 -54.85 0.00
 7 6 19 -21.89 0.00
 9 6 19 -19.44 0.00
 11 6 19 -2.75 0.00
 13 6 19 3.30 0.00
 15 6 19 2.58 0.00
 17 6 19 2.76 0.00
 19 6 19 6.36 0.00
 21 6 19 -9.92 0.00
 2 7 19 -2.01 0.00
 4 7 19 15.57 0.00
 6 7 19 -16.61 0.00
 8 7 19 6.68 0.00
 10 7 19 1.51 0.00
 12 7 19 11.90 0.00
 14 7 19 5.66 0.00
 16 7 19 -7.30 0.00
 18 7 19 -12.95 0.00
 20 7 19 -9.53 0.00
 22 7 19 -8.65 0.00
 1 8 19 -27.47 0.00
 3 8 19 -11.59 0.00
 5 8 19 3.01 0.00
 7 8 19 3.87 0.00
 9 8 19 3.56 0.00
 11 8 19 -14.34 0.00
 13 8 19 -30.33 0.00
 15 8 19 -5.56 0.00
 17 8 19 -5.43 0.00
 19 8 19 9.76 0.00
 21 8 19 2.86 0.00
 2 9 19 -26.89 0.00
 4 9 19 14.59 0.00
 6 9 19 29.79 0.00
 8 9 19 12.17 0.00
 10 9 19 13.39 0.00
 12 9 19 8.49 0.00
 14 9 19 -0.36 0.00
 16 9 19 -0.66 0.00
 18 9 19 10.38 0.00
 20 9 19 6.79 0.00
 22 9 19 -3.89 0.00
 1 10 19 -22.31 0.00
 3 10 19 -17.87 0.00
 5 10 19 -11.94 0.00
 7 10 19 -0.37 0.00
 9 10 19 -1.07 0.00
 11 10 19 -3.05 0.00
 13 10 19 -1.01 0.00
 15 10 19 1.36 0.00
 17 10 19 2.07 0.00
 19 10 19 17.57 0.00
 21 10 19 1.69 0.00
 2 11 19 -13.43 0.00
 4 11 19 24.15 0.00
 6 11 19 13.50 0.00
 8 11 19 -0.89 0.00
 10 11 19 18.15 0.00
 12 11 19 12.45 0.00
 14 11 19 12.53 0.00
 16 11 19 6.87 0.00
 18 11 19 12.12 0.00
 20 11 19 -4.15 0.00
 22 11 19 1.90 0.00
 1 12 19 -3.85 0.00
 3 12 19 -7.21 0.00
 5 12 19 -3.46 0.00
 7 12 19 7.59 0.00
 9 12 19 -7.15 0.00
 11 12 19 9.71 0.00
 13 12 19 1.74 0.00
 15 12 19 -0.73 0.00
 17 12 19 3.45 0.00
 19 12 19 4.74 0.00
 21 12 19 -0.26 0.00
 2 13 19 29.23 0.00
 4 13 19 16.42 0.00
 6 13 19 0.98 0.00
 8 13 19 -4.51 0.00
 10 13 19 3.46 0.00
 12 13 19 -10.66 0.00
 14 13 19 -9.15 0.00
 16 13 19 7.64 0.00
 18 13 19 5.07 0.00
 20 13 19 -5.46 0.00
 1 14 19 3.09 0.00
 3 14 19 0.15 0.00
 5 14 19 -2.79 0.00
 7 14 19 -8.54 0.00
 9 14 19 10.99 0.00
 11 14 19 -0.21 0.00
 13 14 19 7.29 0.00
 15 14 19 -6.88 0.00
 17 14 19 -2.65 0.00
 19 14 19 5.90 0.00
 21 14 19 2.28 0.00
 2 15 19 13.60 0.00
 4 15 19 8.41 0.00
 6 15 19 -2.49 0.00
 8 15 19 10.42 0.00
 10 15 19 7.46 0.00
 12 15 19 -1.97 0.00
 14 15 19 5.21 0.00
 16 15 19 -1.17 0.00
 18 15 19 11.62 0.00
 20 15 19 -0.08 0.00
 1 16 19 7.61 0.00
 3 16 19 -9.87 0.00
 5 16 19 -5.95 0.00
 7 16 19 -5.48 0.00
 9 16 19 1.33 0.00
 11 16 19 7.00 0.00
 13 16 19 2.76 0.00
 15 16 19 -6.47 0.00
 17 16 19 -2.81 0.00
 19 16 19 -6.96 0.00
 21 16 19 -5.19 0.00
 2 17 19 18.88 0.00
 4 17 19 -2.08 0.00
 6 17 19 -6.21 0.00
 8 17 19 -15.05 0.00
 10 17 19 -5.92 0.00
 12 17 19 4.40 0.00
 14 17 19 -1.89 0.00
 16 17 19 -6.40 0.00
 18 17 19 13.55 0.00
 20 17 19 3.61 0.00
 1 18 19 -12.15 0.00
 3 18 19 0.21 0.00
 5 18 19 -1.41 0.00
 7 18 19 10.12 0.00
 9 18 19 5.00 0.00
 11 18 19 7.48 0.00
 13 18 19 -1.26 0.00
 15 18 19 4.54 0.00
 17 18 19 -7.27 0.00
 19 18 19 4.13 0.00
 2 19 19 -11.63 0.00
 4 19 19 18.16 0.00
 6 19 19 8.35 0.00
 8 19 19 2.98 0.00
 10 19 19 -3.77 0.00
 12 19 19 -5.95 0.00
 14 19 19 6.03 0.00
 16 19 19 -7.36 0.00
 18 19 19 -5.72 0.00
 20 19 19 16.60 0.00
 1 20 19 10.30 0.00
 3 20 19 -2.72 0.00
 5 20 19 -1.49 0.00
 7 20 19 -4.41 0.00
 9 20 19 -7.34 0.00
 11 20 19 1.77 0.00
 13 20 19 14.29 0.00
 15 20 19 2.24 0.00
 17 20 19 -2.94 0.00
 19 20 19 -1.36 0.00
 2 21 19 4.93 0.00
 4 21 19 5.29 0.00
 6 21 19 -9.86 0.00
 8 21 19 -0.95 0.00
 10 21 19 -22.80 0.00
 12 21 19 6.82 0.00
 14 21 19 5.85 0.00
 16 21 19 -20.99 0.00
 18 21 19 5.50 0.00
 20 21 19 11.59 0.00
 1 22 19 0.46 0.00
 3 22 19 -7.32 0.00
 5 22 19 -12.56 0.00
 7 22 19 -12.83 0.00
 9 22 19 -7.32 0.00
 11 22 19 4.38 0.00
 13 22 19 -1.86 0.00
 15 22 19 1.62 0.00
 17 22 19 -2.54 0.00
 19 22 19 2.49 0.00
 2 23 19 0.45 0.00
 4 23 19 8.22 0.00
 6 23 19 9.85 0.00
 8 23 19 -4.10 0.00
 10 23 19 2.09 0.00
 12 23 19 9.32 0.00
 14 23 19 -9.79 0.00
 16 23 19 7.27 0.00
 18 23 19 -3.42 0.00
 1 24 19 -10.42 0.00
 3 24 19 -10.12 0.00
 5 24 19 -2.93 0.00
 7 24 19 1.11 0.00
 9 24 19 7.00 0.00
 11 24 19 12.36 0.00
 13 24 19 9.10 0.00
 15 24 19 4.75 0.00
 17 24 19 -8.26 0.00
 19 24 19 -17.12 0.00
 2 25 19 1.58 0.00
 4 25 19 -6.78 0.00
 6 25 19 -11.52 0.00
 8 25 19 1.18 0.00
 10 25 19 2.64 0.00
 12 25 19 1.55 0.00
 14 25 19 -7.63 0.00
 16 25 19 12.52 0.00
 18 25 19 4.47 0.00
 1 26 19 1.27 0.00
 3 26 19 17.75 0.00
 5 26 19 -9.06 0.00
 7 26 19 -5.23 0.00
 9 26 19 28.13 0.00
 11 26 19 -10.03 0.00
 13 26 19 -12.18 0.00
 15 26 19 -8.10 0.00
 17 26 19 1.44 0.00
 2 27 19 4.67 0.00
 4 27 19 -15.11 0.00
 6 27 19 -21.39 0.00
 8 27 19 -0.38 0.00
 10 27 19 21.57 0.00
 12 27 19 -6.92 0.00
 14 27 19 7.80 0.00
 16 27 19 -6.13 0.00
 18 27 19 12.54 0.00
 1 28 19 14.08 0.00
 3 28 19 -7.46 0.00
 5 28 19 -10.60 0.00
 7 28 19 -2.21 0.00
 9 28 19 2.88 0.00
 11 28 19 15.74 0.00
 13 28 19 -10.69 0.00
 15 28 19 2.79 0.00
 17 28 19 20.36 0.00
 2 29 19 -7.34 0.00
 4 29 19 -7.35 0.00
 6 29 19 -10.02 0.00
 8 29 19 -1.13 0.00
 10 29 19 1.97 0.00
 12 29 19 0.28 0.00
 14 29 19 7.86 0.00
 16 29 19 -9.64 0.00
 1 30 19 11.32 0.00
 3 30 19 6.07 0.00
 5 30 19 -8.02 0.00
 7 30 19 -0.58 0.00
 9 30 19 0.51 0.00
 11 30 19 3.36 0.00
 13 30 19 -17.62 0.00
 15 30 19 -11.01 0.00
 2 31 19 1.84 0.00
 4 31 19 -9.37 0.00
 6 31 19 -10.58 0.00
 8 31 19 1.63 0.00
 10 31 19 -2.58 0.00
 12 31 19 0.89 0.00
 14 31 19 6.27 0.00
 16 31 19 10.60 0.00
 1 32 19 17.95 0.00
 3 32 19 -1.84 0.00
 5 32 19 -12.67 0.00
 7 32 19 -8.07 0.00
 9 32 19 8.63 0.00
 11 32 19 -1.34 0.00
 13 32 19 -11.46 0.00
 15 32 19 16.64 0.00
 2 33 19 6.03 0.00
 4 33 19 -16.70 0.00
 6 33 19 -22.82 0.00
 8 33 19 -8.06 0.00
 10 33 19 8.12 0.00
 12 33 19 -8.28 0.00
 14 33 19 3.90 0.00
 1 34 19 12.67 0.00
 3 34 19 -0.44 0.00
 5 34 19 -6.51 0.00
 7 34 19 8.04 0.00
 9 34 19 -1.00 0.00
 11 34 19 0.43 0.00
 13 34 19 19.57 0.00
 2 35 19 -6.67 0.00
 4 35 19 -1.49 0.00
 6 35 19 -23.61 0.00
 8 35 19 8.62 0.00
 10 35 19 3.84 0.00
 12 35 19 12.86 0.00
 1 36 19 3.25 0.00
 3 36 19 -1.72 0.00
 5 36 19 12.49 0.00
 7 36 19 28.29 0.00
 9 36 19 4.42 0.00
 11 36 19 1.73 0.00
 13 36 19 -0.80 0.00
 2 37 19 -9.07 0.00
 4 37 19 -4.26 0.00
 6 37 19 -33.85 0.00
 8 37 19 -10.19 0.00
 10 37 19 0.15 0.00
 12 37 19 7.32 0.00
 1 38 19 -2.14 0.00
 3 38 19 -2.87 0.00
 5 38 19 -4.19 0.00
 7 38 19 4.64 0.00
 9 38 19 4.49 0.00
 11 38 19 -7.83 0.00
 2 39 19 4.53 0.00
 4 39 19 -1.89 0.00
 6 39 19 -16.03 0.00
 8 39 19 13.47 0.00
 10 39 19 19.52 0.00
 1 40 19 6.99 0.00
 3 40 19 4.73 0.00
 5 40 19 12.25 0.00
 7 40 19 -11.72 0.00
 9 40 19 3.04 0.00
 2 41 19 -5.33 0.00
 4 41 19 -10.25 0.00
 6 41 19 -3.92 0.00
 8 41 19 -5.64 0.00
 1 42 19 -2.59 0.00
 3 42 19 7.09 0.00
 5 42 19 -4.63 0.00
 2 43 19 14.91 0.00
 4 43 19 17.99 0.00
 0 0 20 155.24 0.00
 2 0 20 50.31 0.00
 4 0 20 92.34 0.00
 6 0 20 43.89 0.00
 8 0 20 -14.92 0.00
 10 0 20 -29.46 0.00
 12 0 20 -13.75 0.00
 14 0 20 16.07 0.00
 16 0 20 19.33 0.00
 18 0 20 -12.36 0.00
 20 0 20 -12.37 0.00
 22 0 20 6.60 0.00
 1 1 20 -24.58 0.00
 3 1 20 -13.37 0.00
 5 1 20 10.94 0.00
 7 1 20 1.72 0.00
 9 1 20 10.29 0.00
 11 1 20 -5.17 0.00
 13 1 20 9.29 0.00
 15 1 20 2.24 0.00
 17 1 20 8.06 0.00
 19 1 20 -1.19 0.00
 21 1 20 -2.30 0.00
 0 2 20 -64.20 0.00
 2 2 20 -18.25 0.00
 4 2 20 -51.34 0.00
 6 2 20 -47.63 0.00
 8 2 20 -18.73 0.00
 10 2 20 -3.93 0.00
 12 2 20 -6.04 0.00
 14 2 20 0.24 0.00
 16 2 20 2.05 0.00
 18 2 20 1.34 0.00
 20 2 20 8.75 0.00
 22 2 20 12.76 0.00
 1 3 20 -9.74 0.00
 3 3 20 11.11 0.00
 5 3 20 5.46 0.00
 7 3 20 8.19 0.00
 9 3 20 15.10 0.00
 11 3 20 10.41 0.00
 13 3 20 -9.13 0.00
 15 3 20 -2.17 0.00
 17 3 20 2.32 0.00
 19 3 20 2.37 0.00
 21 3 20 -0.52 0.00
 0 4 20 -3.74 0.00
 2 4 20 -43.86 0.00
 4 4 20 39.07 0.00
 6 4 20 20.13 0.00
 8 4 20 3.71 0.00
 10 4 20 0.69 0.00
 12 4 20 -26.36 0.00
 14 4 20 -9.40 0.00
 16 4 20 6.02 0.00
 18 4 20 -10.36 0.00
 20 4 20 12.07 0.00
 22 4 20 7.15 0.00
 1 5 20 -53.61 0.00
 3 5 20 -37.37 0.00
 5 5 20 -0.59 0.00
 7 5 20 -18.34 0.00
 9 5 20 2.89 0.00
 11 5 20 3.60 0.00
 13 5 20 -0.88 0.00
 15 5 20 16.19 0.00
 17 5 20 2.63 0.00
 19 5 20 14.69 0.00
 21 5 20 9.19 0.00
 0 6 20 8.00 0.00
 2 6 20 35.57 0.00
 4 6 20 -33.31 0.00
 6 6 20 -16.02 0.00
 8 6 20 -14.69 0.00
 10 6 20 -8.81 0.00
 12 6 20 0.15 0.00
 14 6 20 -13.11 0.00
 16 6 20 5.70 0.00
 18 6 20 6.71 0.00
 20 6 20 -0.06 0.00
 22 6 20 -4.84 0.00
 1 7 20 -17.24 0.00
 3 7 20 -13.46 0.00
 5 7 20 6.76 0.00
 7 7 20 -2.84 0.00
 9 7 20 10.35 0.00
 11 7 20 4.85 0.00
 13 7 20 -6.65 0.00
 15 7 20 -6.70 0.00
 17 7 20 -16.98 0.00
 19 7 20 -1.78 0.00
 21 7 20 0.26 0.00
 0 8 20 29.32 0.00
 2 8 20 8.84 0.00
 4 8 20 40.07 0.00
 6 8 20 10.97 0.00
 8 8 20 17.56 0.00
 10 8 20 6.04 0.00
 12 8 20 -6.63 0.00
 14 8 20 -4.79 0.00
 16 8 20 0.68 0.00
 18 8 20 -5.73 0.00
 20 8 20 -9.06 0.00
 22 8 20 -9.96 0.00
 1 9 20 -38.76 0.00
 3 9 20 -18.65 0.00
 5 9 20 8.75 0.00
 7 9 20 1.54 0.00
 9 9 20 8.18 0.00
 11 9 20 16.07 0.00
 13 9 20 3.55 0.00
 15 9 20 1.65 0.00
 17 9 20 2.97 0.00
 19 9 20 6.39 0.00
 21 9 20 -11.63 0.00
 0 10 20 -20.70 0.00
 2 10 20 0.52 0.00
 4 10 20 -24.88 0.00
 6 10 20 -16.07 0.00
 8 10 20 -13.83 0.00
 10 10 20 -12.94 0.00
 12 10 20 -12.91 0.00
 14 10 20 -1.86 0.00
 16 10 20 2.83 0.00
 18 10 20 7.05 0.00
 20 10 20 -2.44 0.00
 22 10 20 9.71 0.00
 1 11 20 -1.08 0.00
 3 11 20 12.83 0.00
 5 11 20 -6.07 0.00
 7 11 20 -2.43 0.00
 9 11 20 -16.20 0.00
 11 11 20 -7.43 0.00
 13 11 20 -7.91 0.00
 15 11 20 -9.20 0.00
 17 11 20 -8.86 0.00
 19 11 20 -1.77 0.00
 21 11 20 -5.71 0.00
 0 12 20 2.74 0.00
 2 12 20 0.02 0.00
 4 12 20 -10.33 0.00
 6 12 20 -1.32 0.00
 8 12 20 -1.39 0.00
 10 12 20 -10.52 0.00
 12 12 20 1.40 0.00
 14 12 20 0.34 0.00
 16 12 20 -7.23 0.00
 18 12 20 -12.60 0.00
 20 12 20 -15.98 0.00
 1 13 20 -14.96 0.00
 3 13 20 -27.76 0.00
 5 13 20 -6.48 0.00
 7 13 20 -0.69 0.00
 9 13 20 17.28 0.00
 11 13 20 11.60 0.00
 13 13 20 -1.60 0.00
 15 13 20 -8.38 0.00
 17 13 20 -3.21 0.00
 19 13 20 -4.92 0.00
 21 13 20 -1.35 0.00
 0 14 20 -15.35 0.00
 2 14 20 -3.61 0.00
 4 14 20 -20.39 0.00
 6 14 20 -12.03 0.00
 8 14 20 -4.29 0.00
 10 14 20 -0.82 0.00
 12 14 20 -1.84 0.00
 14 14 20 -5.51 0.00
 16 14 20 -11.46 0.00
 18 14 20 8.07 0.00
 20 14 20 7.14 0.00
 1 15 20 16.17 0.00
 3 15 20 -1.21 0.00
 5 15 20 3.11 0.00
 7 15 20 -9.44 0.00
 9 15 20 -8.13 0.00
 11 15 20 2.61 0.00
 13 15 20 1.67 0.00
 15 15 20 4.96 0.00
 17 15 20 -4.04 0.00
 19 15 20 -11.29 0.00
 21 15 20 8.44 0.00
 0 16 20 2.58 0.00
 2 16 20 10.60 0.00
 4 16 20 -2.43 0.00
 6 16 20 9.55 0.00
 8 16 20 0.79 0.00
 10 16 20 -11.87 0.00
 12 16 20 -1.79 0.00
 14 16 20 -18.42 0.00
 16 16 20 -1.82 0.00
 18 16 20 9.80 0.00
 20 16 20 0.55 0.00
 1 17 20 -17.62 0.00
 3 17 20 -35.43 0.00
 5 17 20 -11.51 0.00
 7 17 20 1.23 0.00
 9 17 20 11.32 0.00
 11 17 20 0.03 0.00
 13 17 20 -0.39 0.00
 15 17 20 -14.35 0.00
 17 17 20 3.54 0.00
 19 17 20 -13.34 0.00
 21 17 20 -9.97 0.00
 0 18 20 -2.90 0.00
 2 18 20 -4.42 0.00
 4 18 20 8.75 0.00
 6 18 20 -1.33 0.00
 8 18 20 15.75 0.00
 10 18 20 10.15 0.00
 12 18 20 -8.57 0.00
 14 18 20 -7.26 0.00
 16 18 20 -0.24 0.00
 18 18 20 -1.47 0.00
 20 18 20 1.77 0.00
 1 19 20 18.62 0.00
 3 19 20 2.49 0.00
 5 19 20 11.37 0.00
 7 19 20 2.12 0.00
 9 19 20 14.18 0.00
 11 19 20 3.40 0.00
 13 19 20 1.04 0.00
 15 19 20 5.74 0.00
 17 19 20 3.13 0.00
 19 19 20 -0.38 0.00
 0 20 20 -2.64 0.00
 2 20 20 -1.31 0.00
 4 20 20 10.47 0.00
 6 20 20 2.25 0.00
 8 20 20 -3.67 0.00
 10 20 20 -20.34 0.00
 12 20 20 -5.21 0.00
 14 20 20 -0.57 0.00
 16 20 20 -1.48 0.00
 18 20 20 -1.46 0.00
 20 20 20 -5.31 0.00
 1 21 20 -22.83 0.00
 3 21 20 16.26 0.00
 5 21 20 -4.46 0.00
 7 21 20 -0.78 0.00
 9 21 20 -5.05 0.00
 11 21 20 5.44 0.00
 13 21 20 4.72 0.00
 15 21 20 -22.55 0.00
 17 21 20 -2.24 0.00
 19 21 20 -1.38 0.00
 0 22 20 -29.72 0.00
 2 22 20 -12.05 0.00
 4 22 20 14.24 0.00
 6 22 20 -3.51 0.00
 8 22 20 4.21 0.00
 10 22 20 10.51 0.00
 12 22 20 -17.33 0.00
 14 22 20 0.48 0.00
 16 22 20 9.11 0.00
 18 22 20 -2.88 0.00
 1 23 20 13.63 0.00
 3 23 20 4.24 0.00
 5 23 20 13.05 0.00
 7 23 20 -2.88 0.00
 9 23 20 3.48 0.00
 11 23 20 16.92 0.00
 13 23 20 20.92 0.00
 15 23 20 9.55 0.00
 17 23 20 10.62 0.00
 19 23 20 12.77 0.00
 0 24 20 -6.17 0.00
 2 24 20 -4.44 0.00
 4 24 20 5.56 0.00
 6 24 20 -3.66 0.00
 8 24 20 -2.31 0.00
 10 24 20 -4.48 0.00
 12 24 20 -9.27 0.00
 14 24 20 -10.04 0.00
 16 24 20 -18.36 0.00
 18 24 20 -1.04 0.00
 1 25 20 0.78 0.00
 3 25 20 5.45 0.00
 5 25 20 11.99 0.00
 7 25 20 -0.34 0.00
 9 25 20 -8.38 0.00
 11 25 20 -2.01 0.00
 13 25 20 -2.18 0.00
 15 25 20 -4.97 0.00
 17 25 20 -11.86 0.00
 0 26 20 -11.30 0.00
 2 26 20 0.85 0.00
 4 26 20 -0.13 0.00
 6 26 20 -7.36 0.00
 8 26 20 -5.69 0.00
 10 26 20 -22.61 0.00
 12 26 20 11.14 0.00
 14 26 20 -9.24 0.00
 16 26 20 -28.84 0.00
 18 26 20 12.23 0.00
 1 27 20 17.62 0.00
 3 27 20 6.77 0.00
 5 27 20 6.32 0.00
 7 27 20 9.76 0.00
 9 27 20 -2.34 0.00
 11 27 20 -2.27 0.00
 13 27 20 -9.80 0.00
 15 27 20 -5.07 0.00
 17 27 20 12.46 0.00
 0 28 20 0.89 0.00
 2 28 20 32.38 0.00
 4 28 20 13.36 0.00
 6 28 20 8.24 0.00
 8 28 20 -4.51 0.00
 10 28 20 -12.76 0.00
 12 28 20 -7.58 0.00
 14 28 20 -3.83 0.00
 16 28 20 -1.35 0.00
 1 29 20 18.31 0.00
 3 29 20 3.67 0.00
 5 29 20 -17.42 0.00
 7 29 20 16.38 0.00
 9 29 20 0.71 0.00
 11 29 20 1.86 0.00
 13 29 20 -10.47 0.00
 15 29 20 -29.66 0.00
 17 29 20 -5.83 0.00
 0 30 20 -23.52 0.00
 2 30 20 2.75 0.00
 4 30 20 10.92 0.00
 6 30 20 -3.87 0.00
 8 30 20 -3.54 0.00
 10 30 20 -10.86 0.00
 12 30 20 -7.39 0.00
 14 30 20 -15.33 0.00
 16 30 20 5.32 0.00
 1 31 20 23.67 0.00
 3 31 20 -0.80 0.00
 5 31 20 2.17 0.00
 7 31 20 -3.29 0.00
 9 31 20 -11.10 0.00
 11 31 20 -2.53 0.00
 13 31 20 -0.49 0.00
 15 31 20 3.53 0.00
 0 32 20 15.21 0.00
 2 32 20 17.05 0.00
 4 32 20 2.13 0.00
 6 32 20 0.82 0.00
 8 32 20 2.76 0.00
 10 32 20 -9.02 0.00
 12 32 20 -11.34 0.00
 14 32 20 -4.40 0.00
 1 33 20 2.90 0.00
 3 33 20 -9.07 0.00
 5 33 20 5.74 0.00
 7 33 20 -9.66 0.00
 9 33 20 -14.64 0.00
 11 33 20 -2.99 0.00
 13 33 20 9.93 0.00
 0 34 20 28.67 0.00
 2 34 20 11.53 0.00
 4 34 20 -12.25 0.00
 6 34 20 -7.25 0.00
 8 34 20 5.84 0.00
 10 34 20 -20.93 0.00
 12 34 20 -37.73 0.00
 14 34 20 2.45 0.00
 1 35 20 13.12 0.00
 3 35 20 2.82 0.00
 5 35 20 0.20 0.00
 7 35 20 0.02 0.00
 9 35 20 3.26 0.00
 11 35 20 -8.07 0.00
 13 35 20 -5.80 0.00
 0 36 20 21.09 0.00
 2 36 20 0.69 0.00
 4 36 20 -5.33 0.00
 6 36 20 -6.07 0.00
 8 36 20 -2.51 0.00
 10 36 20 3.10 0.00
 12 36 20 -2.76 0.00
 1 37 20 8.58 0.00
 3 37 20 -0.86 0.00
 5 37 20 7.25 0.00
 7 37 20 10.24 0.00
 9 37 20 7.72 0.00
 11 37 20 -18.94 0.00
 0 38 20 6.06 0.00
 2 38 20 -2.61 0.00
 4 38 20 -6.18 0.00
 6 38 20 7.92 0.00
 8 38 20 -8.75 0.00
 10 38 20 -16.49 0.00
 1 39 20 -17.78 0.00
 3 39 20 -13.54 0.00
 5 39 20 -1.02 0.00
 7 39 20 6.69 0.00
 9 39 20 -8.16 0.00
 0 40 20 29.53 0.00
 2 40 20 4.62 0.00
 4 40 20 4.74 0.00
 6 40 20 -11.24 0.00
 8 40 20 -13.86 0.00
 1 41 20 10.86 0.00
 3 41 20 8.76 0.00
 5 41 20 14.58 0.00
 7 41 20 7.98 0.00
 0 42 20 8.12 0.00
 2 42 20 5.39 0.00
 4 42 20 3.60 0.00
 6 42 20 11.73 0.00
 1 43 20 -10.46 0.00
 3 43 20 -10.25 0.00
 2 1 21 -28.33 0.00
 4 1 21 2.62 0.00
 6 1 21 -18.61 0.00
 8 1 21 -17.09 0.00
 10 1 21 23.77 0.00
 12 1 21 11.16 0.00
 14 1 21 8.57 0.00
 16 1 21 1.62 0.00
 18 1 21 -7.95 0.00
 20 1 21 -5.59 0.00
 22 1 21 -10.97 0.00
 1 2 21 6.33 0.00
 3 2 21 21.69 0.00
 5 2 21 12.57 0.00
 7 2 21 -20.26 0.00
 9 2 21 -6.01 0.00
 11 2 21 -2.36 0.00
 13 2 21 13.10 0.00
 15 2 21 6.16 0.00
 17 2 21 -9.62 0.00
 19 2 21 -2.60 0.00
 21 2 21 9.03 0.00
 2 3 21 -14.87 0.00
 4 3 21 -5.18 0.00
 6 3 21 28.11 0.00
 8 3 21 -1.52 0.00
 10 3 21 15.90 0.00
 12 3 21 6.66 0.00
 14 3 21 -7.96 0.00
 16 3 21 21.89 0.00
 18 3 21 17.24 0.00
 20 3 21 17.82 0.00
 22 3 21 9.87 0.00
 1 4 21 -0.22 0.00
 3 4 21 -2.78 0.00
 5 4 21 3.78 0.00
 7 4 21 5.09 0.00
 9 4 21 -12.25 0.00
 11 4 21 -1.81 0.00
 13 4 21 0.36 0.00
 15 4 21 -8.41 0.00
 17 4 21 -7.21 0.00
 19 4 21 9.65 0.00
 21 4 21 6.85 0.00
 2 5 21 45.98 0.00
 4 5 21 33.92 0.00
 6 5 21 21.85 0.00
 8 5 21 5.67 0.00
 10 5 21 -4.59 0.00
 12 5 21 9.04 0.00
 14 5 21 13.15 0.00
 16 5 21 -1.31 0.00
 18 5 21 -9.79 0.00
 20 5 21 8.81 0.00
 22 5 21 12.08 0.00
 1 6 21 -6.45 0.00
 3 6 21 16.20 0.00
 5 6 21 1.00 0.00
 7 6 21 -16.81 0.00
 9 6 21 11.59 0.00
 11 6 21 14.84 0.00
 13 6 21 9.96 0.00
 15 6 21 3.85 0.00
 17 6 21 -19.76 0.00
 19 6 21 -2.87 0.00
 21 6 21 8.47 0.00
 2 7 21 -8.64 0.00
 4 7 21 -28.51 0.00
 6 7 21 7.94 0.00
 8 7 21 3.17 0.00
 10 7 21 -18.20 0.00
 12 7 21 -2.79 0.00
 14 7 21 10.38 0.00
 16 7 21 -14.69 0.00
 18 7 21 -7.86 0.00
 20 7 21 14.32 0.00
 22 7 21 8.61 0.00
 1 8 21 -0.45 0.00
 3 8 21 -20.04 0.00
 5 8 21 5.94 0.00
 7 8 21 17.64 0.00
 9 8 21 -2.68 0.00
 11 8 21 -4.36 0.00
 13 8 21 3.43 0.00
 15 8 21 1.73 0.00
 17 8 21 -2.15 0.00
 19 8 21 7.57 0.00
 21 8 21 11.51 0.00
 2 9 21 -4.62 0.00
 4 9 21 4.25 0.00
 6 9 21 13.82 0.00
 8 9 21 14.64 0.00
 10 9 21 -4.66 0.00
 12 9 21 1.12 0.00
 14 9 21 -0.92 0.00
 16 9 21 10.59 0.00
 18 9 21 0.18 0.00
 20 9 21 -2.96 0.00
 22 9 21 1.72 0.00
 1 10 21 -6.25 0.00
 3 10 21 2.14 0.00
 5 10 21 8.95 0.00
 7 10 21 17.15 0.00
 9 10 21 -12.80 0.00
 11 10 21 2.19 0.00
 13 10 21 17.57 0.00
 15 10 21 5.60 0.00
 17 10 21 -3.85 0.00
 19 10 21 -4.28 0.00
 21 10 21 -6.64 0.00
 2 11 21 14.71 0.00
 4 11 21 5.55 0.00
 6 11 21 -4.74 0.00
 8 11 21 -2.81 0.00
 10 11 21 -3.94 0.00
 12 11 21 3.65 0.00
 14 11 21 -8.84 0.00
 16 11 21 -2.48 0.00
 18 11 21 6.92 0.00
 20 11 21 14.98 0.00
 1 12 21 -0.38 0.00
 3 12 21 -13.65 0.00
 5 12 21 14.20 0.00
 7 12 21 -1.68 0.00
 9 12 21 22.89 0.00
 11 12 21 19.59 0.00
 13 12 21 0.58 0.00
 15 12 21 17.03 0.00
 17 12 21 -2.80 0.00
 19 12 21 -25.82 0.00
 21 12 21 6.94 0.00
 2 13 21 10.03 0.00
 4 13 21 -1.64 0.00
 6 13 21 22.98 0.00
 8 13 21 -7.79 0.00
 10 13 21 14.20 0.00
 12 13 21 6.53 0.00
 14 13 21 -9.30 0.00
 16 13 21 -6.66 0.00
 18 13 21 5.33 0.00
 20 13 21 1.40 0.00
 1 14 21 4.94 0.00
 3 14 21 8.35 0.00
 5 14 21 -4.32 0.00
 7 14 21 -1.57 0.00
 9 14 21 5.00 0.00
 11 14 21 14.59 0.00
 13 14 21 -10.62 0.00
 15 14 21 -1.07 0.00
 17 14 21 -3.85 0.00
 19 14 21 -18.59 0.00
 21 14 21 9.40 0.00
 2 15 21 -6.26 0.00
 4 15 21 -1.97 0.00
 6 15 21 8.34 0.00
 8 15 21 2.46 0.00
 10 15 21 2.80 0.00
 12 15 21 -5.34 0.00
 14 15 21 2.33 0.00
 16 15 21 14.36 0.00
 18 15 21 2.42 0.00
 20 15 21 1.87 0.00
 1 16 21 13.54 0.00
 3 16 21 -9.83 0.00
 5 16 21 -3.46 0.00
 7 16 21 -6.86 0.00
 9 16 21 6.67 0.00
 11 16 21 28.16 0.00
 13 16 21 5.98 0.00
 15 16 21 -1.89 0.00
 17 16 21 -2.14 0.00
 19 16 21 -11.54 0.00
 21 16 21 6.41 0.00
 2 17 21 3.40 0.00
 4 17 21 -14.00 0.00
 6 17 21 -15.60 0.00
 8 17 21 13.56 0.00
 10 17 21 5.68 0.00
 12 17 21 7.38 0.00
 14 17 21 20.04 0.00
 16 17 21 16.43 0.00
 18 17 21 -7.76 0.00
 20 17 21 2.35 0.00
 1 18 21 5.79 0.00
 3 18 21 -13.78 0.00
 5 18 21 0.30 0.00
 7 18 21 3.02 0.00
 9 18 21 -0.64 0.00
 11 18 21 -4.51 0.00
 13 18 21 -5.26 0.00
 15 18 21 -2.26 0.00
 17 18 21 -10.10 0.00
 19 18 21 10.44 0.00
 2 19 21 10.49 0.00
 4 19 21 17.91 0.00
 6 19 21 10.71 0.00
 8 19 21 29.76 0.00
 10 19 21 -9.18 0.00
 12 19 21 4.17 0.00
 14 19 21 7.41 0.00
 16 19 21 -16.11 0.00
 18 19 21 -7.13 0.00
 20 19 21 23.80 0.00
 1 20 21 17.45 0.00
 3 20 21 -6.94 0.00
 5 20 21 -14.40 0.00
 7 20 21 1.88 0.00
 9 20 21 -3.11 0.00
 11 20 21 -16.55 0.00
 13 20 21 -16.96 0.00
 15 20 21 -9.99 0.00
 17 20 21 -1.87 0.00
 19 20 21 -5.52 0.00
 2 21 21 11.82 0.00
 4 21 21 -9.46 0.00
 6 21 21 -14.00 0.00
 8 21 21 2.26 0.00
 10 21 21 2.42 0.00
 12 21 21 11.81 0.00
 14 21 21 10.38 0.00
 16 21 21 -1.54 0.00
 18 21 21 -2.61 0.00
 1 22 21 0.01 0.00
 3 22 21 13.55 0.00
 5 22 21 -9.06 0.00
 7 22 21 -4.92 0.00
 9 22 21 2.46 0.00
 11 22 21 2.53 0.00
 13 22 21 -10.49 0.00
 15 22 21 3.25 0.00
 17 22 21 -7.69 0.00
 19 22 21 -10.19 0.00
 2 23 21 0.76 0.00
 4 23 21 -6.07 0.00
 6 23 21 12.11 0.00
 8 23 21 12.52 0.00
 10 23 21 18.90 0.00
 12 23 21 3.22 0.00
 14 23 21 -4.00 0.00
 16 23 21 18.76 0.00
 18 23 21 -10.25 0.00
 1 24 21 -1.95 0.00
 3 24 21 -8.32 0.00
 5 24 21 -2.12 0.00
 7 24 21 6.23 0.00
 9 24 21 -9.98 0.00
 11 24 21 -18.08 0.00
 13 24 21 16.09 0.00
 15 24 21 7.98 0.00
 17 24 21 -25.38 0.00
 2 25 21 2.23 0.00
 4 25 21 1.96 0.00
 6 25 21 -9.73 0.00
 8 25 21 7.00 0.00
 10 25 21 -6.43 0.00
 12 25 21 1.83 0.00
 14 25 21 1.55 0.00
 16 25 21 -5.67 0.00
 18 25 21 -6.86 0.00
 1 26 21 -6.43 0.00
 3 26 21 19.59 0.00
 5 26 21 9.64 0.00
 7 26 21 2.80 0.00
 9 26 21 -10.81 0.00
 11 26 21 8.26 0.00
 13 26 21 2.76 0.00
 15 26 21 -0.66 0.00
 17 26 21 5.76 0.00
 2 27 21 5.37 0.00
 4 27 21 11.98 0.00
 6 27 21 -13.84 0.00
 8 27 21 12.49 0.00
 10 27 21 -14.47 0.00
 12 27 21 10.45 0.00
 14 27 21 4.27 0.00
 16 27 21 -19.18 0.00
 1 28 21 3.05 0.00
 3 28 21 10.55 0.00
 5 28 21 -7.25 0.00
 7 28 21 -9.00 0.00
 9 28 21 -15.09 0.00
 11 28 21 1.69 0.00
 13 28 21 3.03 0.00
 15 28 21 -5.69 0.00
 17 28 21 -0.63 0.00
 2 29 21 -6.43 0.00
 4 29 21 -6.84 0.00
 6 29 21 -10.62 0.00
 8 29 21 -27.07 0.00
 10 29 21 6.61 0.00
 12 29 21 6.25 0.00
 14 29 21 -4.57 0.00
 16 29 21 7.44 0.00
 1 30 21 -9.07 0.00
 3 30 21 2.94 0.00
 5 30 21 23.37 0.00
 7 30 21 -1.54 0.00
 9 30 21 -3.10 0.00
 11 30 21 -4.52 0.00
 13 30 21 5.34 0.00
 15 30 21 -2.29 0.00
 2 31 21 1.21 0.00
 4 31 21 6.66 0.00
 6 31 21 11.33 0.00
 8 31 21 -8.00 0.00
 10 31 21 2.95 0.00
 12 31 21 -0.99 0.00
 14 31 21 13.38 0.00
 1 32 21 9.79 0.00
 3 32 21 1.24 0.00
 5 32 21 -11.22 0.00
 7 32 21 0.14 0.00
 9 32 21 -7.61 0.00
 11 32 21 1.86 0.00
 13 32 21 -10.78 0.00
 15 32 21 -3.76 0.00
 2 33 21 -1.89 0.00
 4 33 21 -0.23 0.00
 6 33 21 -3.41 0.00
 8 33 21 -2.90 0.00
 10 33 21 -13.83 0.00
 12 33 21 0.39 0.00
 14 33 21 5.92 0.00
 1 34 21 6.64 0.00
 3 34 21 2.72 0.00
 5 34 21 -13.78 0.00
 7 34 21 -5.71 0.00
 9 34 21 -4.63 0.00
 11 34 21 0.42 0.00
 13 34 21 -7.87 0.00
 2 35 21 -11.55 0.00
 4 35 21 5.25 0.00
 6 35 21 21.83 0.00
 8 35 21 -0.26 0.00
 10 35 21 13.53 0.00
 12 35 21 -4.10 0.00
 1 36 21 4.08 0.00
 3 36 21 -9.08 0.00
 5 36 21 -16.65 0.00
 7 36 21 -6.92 0.00
 9 36 21 -4.82 0.00
 11 36 21 -11.51 0.00
 2 37 21 -12.89 0.00
 4 37 21 -4.67 0.00
 6 37 21 -9.22 0.00
 8 37 21 -1.44 0.00
 10 37 21 3.93 0.00
 1 38 21 -8.44 0.00
 3 38 21 -8.62 0.00
 5 38 21 11.90 0.00
 7 38 21 -10.29 0.00
 9 38 21 -5.16 0.00
 2 39 21 -10.79 0.00
 4 39 21 -6.98 0.00
 6 39 21 3.52 0.00
 8 39 21 14.89 0.00
 1 40 21 -8.63 0.00
 3 40 21 -1.23 0.00
 5 40 21 -2.42 0.00
 7 40 21 9.94 0.00
 2 41 21 -3.21 0.00
 4 41 21 2.02 0.00
 6 41 21 -4.34 0.00
 1 42 21 -9.94 0.00
 3 42 21 -3.01 0.00
 5 42 21 -7.13 0.00
 2 43 21 -12.77 0.00
 0 0 22 56.92 0.00
 2 0 22 87.95 0.00
 4 0 22 12.90 0.00
 6 0 22 -28.65 0.00
 8 0 22 -23.01 0.00
 10 0 22 0.61 0.00
 12 0 22 1.12 0.00
 14 0 22 11.42 0.00
 16 0 22 8.34 0.00
 18 0 22 -4.80 0.00
 20 0 22 -7.57 0.00
 22 0 22 6.06 0.00
 1 1 22 3.10 0.00
 3 1 22 -0.59 0.00
 5 1 22 -5.04 0.00
 7 1 22 -1.20 0.00
 9 1 22 -15.52 0.00
 11 1 22 -4.50 0.00
 13 1 22 9.40 0.00
 15 1 22 4.42 0.00
 17 1 22 -11.06 0.00
 19 1 22 5.41 0.00
 21 1 22 8.90 0.00
 0 2 22 3.09 0.00
 2 2 22 -17.57 0.00
 4 2 22 16.51 0.00
 6 2 22 30.91 0.00
 8 2 22 12.03 0.00
 10 2 22 2.71 0.00
 12 2 22 -1.62 0.00
 14 2 22 -2.14 0.00
 16 2 22 -17.03 0.00
 18 2 22 -9.99 0.00
 20 2 22 5.80 0.00
 22 2 22 9.89 0.00
 1 3 22 4.41 0.00
 3 3 22 -15.38 0.00
 5 3 22 -4.61 0.00
 7 3 22 5.37 0.00
 9 3 22 11.07 0.00
 11 3 22 -2.80 0.00
 13 3 22 -7.80 0.00
 15 3 22 -7.62 0.00
 17 3 22 2.63 0.00
 19 3 22 0.92 0.00
 21 3 22 1.48 0.00
 0 4 22 -75.15 0.00
 2 4 22 -26.66 0.00
 4 4 22 -17.16 0.00
 6 4 22 -1.99 0.00
 8 4 22 8.37 0.00
 10 4 22 -16.24 0.00
 12 4 22 7.58 0.00
 14 4 22 -14.69 0.00
 16 4 22 -1.20 0.00
 18 4 22 3.94 0.00
 20 4 22 4.69 0.00
 22 4 22 0.38 0.00
 1 5 22 -31.36 0.00
 3 5 22 2.16 0.00
 5 5 22 -12.88 0.00
 7 5 22 -9.04 0.00
 9 5 22 3.18 0.00
 11 5 22 -5.71 0.00
 13 5 22 -2.37 0.00
 15 5 22 16.36 0.00
 17 5 22 5.43 0.00
 19 5 22 -2.78 0.00
 21 5 22 6.63 0.00
 0 6 22 43.12 0.00
 2 6 22 14.20 0.00
 4 6 22 29.31 0.00
 6 6 22 15.14 0.00
 8 6 22 -9.46 0.00
 10 6 22 -20.31 0.00
 12 6 22 -7.06 0.00
 14 6 22 -9.71 0.00
 16 6 22 0.34 0.00
 18 6 22 2.60 0.00
 20 6 22 6.11 0.00
 22 6 22 -1.54 0.00
 1 7 22 -18.49 0.00
 3 7 22 -15.34 0.00
 5 7 22 -5.02 0.00
 7 7 22 7.34 0.00
 9 7 22 14.47 0.00
 11 7 22 0.15 0.00
 13 7 22 -2.05 0.00
 15 7 22 -6.84 0.00
 17 7 22 -5.32 0.00
 19 7 22 -1.04 0.00
 21 7 22 11.32 0.00
 0 8 22 12.51 0.00
 2 8 22 1.12 0.00
 4 8 22 -18.05 0.00
 6 8 22 -7.08 0.00
 8 8 22 20.35 0.00
 10 8 22 6.01 0.00
 12 8 22 -9.95 0.00
 14 8 22 -4.65 0.00
 16 8 22 0.44 0.00
 18 8 22 16.67 0.00
 20 8 22 13.60 0.00
 22 8 22 -14.77 0.00
 1 9 22 18.01 0.00
 3 9 22 10.85 0.00
 5 9 22 17.27 0.00
 7 9 22 1.95 0.00
 9 9 22 -0.83 0.00
 11 9 22 -8.92 0.00
 13 9 22 1.05 0.00
 15 9 22 -3.51 0.00
 17 9 22 -3.05 0.00
 19 9 22 -3.63 0.00
 21 9 22 -12.81 0.00
 0 10 22 -24.22 0.00
 2 10 22 8.84 0.00
 4 10 22 16.03 0.00
 6 10 22 -2.32 0.00
 8 10 22 -9.89 0.00
 10 10 22 -6.67 0.00
 12 10 22 1.47 0.00
 14 10 22 -5.56 0.00
 16 10 22 3.77 0.00
 18 10 22 5.47 0.00
 20 10 22 -16.03 0.00
 1 11 22 24.65 0.00
 3 11 22 -6.64 0.00
 5 11 22 -13.58 0.00
 7 11 22 -4.46 0.00
 9 11 22 0.42 0.00
 11 11 22 -3.93 0.00
 13 11 22 -3.54 0.00
 15 11 22 -2.39 0.00
 17 11 22 -0.28 0.00
 19 11 22 11.00 0.00
 21 11 22 13.24 0.00
 0 12 22 7.75 0.00
 2 12 22 -2.19 0.00
 4 12 22 -2.32 0.00
 6 12 22 -6.48 0.00
 8 12 22 -1.27 0.00
 10 12 22 9.62 0.00
 12 12 22 6.46 0.00
 14 12 22 -18.58 0.00
 16 12 22 0.54 0.00
 18 12 22 1.19 0.00
 20 12 22 -5.72 0.00
 1 13 22 19.03 0.00
 3 13 22 -5.23 0.00
 5 13 22 -24.63 0.00
 7 13 22 3.37 0.00
 9 13 22 8.14 0.00
 11 13 22 4.89 0.00
 13 13 22 -9.68 0.00
 15 13 22 0.45 0.00
 17 13 22 -8.30 0.00
 19 13 22 -2.69 0.00
 21 13 22 -8.09 0.00
 0 14 22 -21.05 0.00
 2 14 22 -11.29 0.00
 4 14 22 -5.60 0.00
 6 14 22 -7.96 0.00
 8 14 22 6.86 0.00
 10 14 22 -16.21 0.00
 12 14 22 -3.08 0.00
 14 14 22 7.56 0.00
 16 14 22 -4.53 0.00
 18 14 22 -2.46 0.00
 20 14 22 18.44 0.00
 1 15 22 -1.10 0.00
 3 15 22 9.01 0.00
 5 15 22 19.84 0.00
 7 15 22 -31.26 0.00
 9 15 22 0.69 0.00
 11 15 22 -9.98 0.00
 13 15 22 1.40 0.00
 15 15 22 10.32 0.00
 17 15 22 17.72 0.00
 19 15 22 6.58 0.00
 21 15 22 6.86 0.00
 0 16 22 -7.18 0.00
 2 16 22 -30.76 0.00
 4 16 22 -10.25 0.00
 6 16 22 3.92 0.00
 8 16 22 19.00 0.00
 10 16 22 0.13 0.00
 12 16 22 -3.11 0.00
 14 16 22 -4.61 0.00
 16 16 22 -0.03 0.00
 18 16 22 -22.84 0.00
 20 16 22 -1.48 0.00
 1 17 22 0.87 0.00
 3 17 22 -11.01 0.00
 5 17 22 -15.98 0.00
 7 17 22 -12.00 0.00
 9 17 22 2.96 0.00
 11 17 22 -2.54 0.00
 13 17 22 -2.98 0.00
 15 17 22 5.94 0.00
 17 17 22 -5.08 0.00
 19 17 22 -11.07 0.00
 0 18 22 -11.34 0.00
 2 18 22 -4.59 0.00
 4 18 22 -22.84 0.00
 6 18 22 -17.06 0.00
 8 18 22 1.62 0.00
 10 18 22 1.57 0.00
 12 18 22 -12.22 0.00
 14 18 22 -6.47 0.00
 16 18 22 -14.22 0.00
 18 18 22 0.88 0.00
 20 18 22 10.55 0.00
 1 19 22 17.14 0.00
 3 19 22 6.72 0.00
 5 19 22 24.37 0.00
 7 19 22 10.28 0.00
 9 19 22 -4.86 0.00
 11 19 22 -3.03 0.00
 13 19 22 3.85 0.00
 15 19 22 -5.35 0.00
 17 19 22 -13.86 0.00
 19 19 22 1.93 0.00
 0 20 22 13.13 0.00
 2 20 22 -8.22 0.00
 4 20 22 2.17 0.00
 6 20 22 -0.23 0.00
 8 20 22 -0.07 0.00
 10 20 22 0.29 0.00
 12 20 22 -6.53 0.00
 14 20 22 6.01 0.00
 16 20 22 12.61 0.00
 18 20 22 -5.38 0.00
 1 21 22 4.59 0.00
 3 21 22 -5.86 0.00
 5 21 22 -19.72 0.00
 7 21 22 -8.76 0.00
 9 21 22 -14.37 0.00
 11 21 22 20.31 0.00
 13 21 22 13.01 0.00
 15 21 22 -5.50 0.00
 17 21 22 -15.01 0.00
 19 21 22 -20.07 0.00
 0 22 22 11.01 0.00
 2 22 22 -7.22 0.00
 4 22 22 3.93 0.00
 6 22 22 -0.36 0.00
 8 22 22 8.01 0.00
 10 22 22 -21.04 0.00
 12 22 22 -12.05 0.00
 14 22 22 -12.35 0.00
 16 22 22 6.85 0.00
 18 22 22 -13.69 0.00
 1 23 22 5.21 0.00
 3 23 22 -0.79 0.00
 5 23 22 -6.26 0.00
 7 23 22 -13.35 0.00
 9 23 22 0.72 0.00
 11 23 22 4.88 0.00
 13 23 22 -8.68 0.00
 15 23 22 -3.10 0.00
 17 23 22 10.76 0.00
 19 23 22 -8.86 0.00
 0 24 22 1.09 0.00
 2 24 22 -12.34 0.00
 4 24 22 -3.51 0.00
 6 24 22 -0.24 0.00
 8 24 22 3.52 0.00
 10 24 22 1.38 0.00
 12 24 22 -3.09 0.00
 14 24 22 -4.26 0.00
 16 24 22 -6.54 0.00
 18 24 22 7.69 0.00
 1 25 22 -2.57 0.00
 3 25 22 -4.20 0.00
 5 25 22 7.64 0.00
 7 25 22 -9.35 0.00
 9 25 22 -6.38 0.00
 11 25 22 -19.99 0.00
 13 25 22 -2.72 0.00
 15 25 22 7.58 0.00
 17 25 22 -28.97 0.00
 0 26 22 8.24 0.00
 2 26 22 -14.19 0.00
 4 26 22 -14.59 0.00
 6 26 22 -7.88 0.00
 8 26 22 -7.71 0.00
 10 26 22 0.77 0.00
 12 26 22 4.32 0.00
 14 26 22 -4.16 0.00
 16 26 22 -21.93 0.00
 1 27 22 38.86 0.00
 3 27 22 -2.50 0.00
 5 27 22 5.91 0.00
 7 27 22 7.01 0.00
 9 27 22 -36.13 0.00
 11 27 22 -3.44 0.00
 13 27 22 4.23 0.00
 15 27 22 0.50 0.00
 17 27 22 -4.07 0.00
 0 28 22 14.57 0.00
 2 28 22 -4.68 0.00
 4 28 22 -18.14 0.00
 6 28 22 -6.31 0.00
 8 28 22 -4.94 0.00
 10 28 22 6.92 0.00
 12 28 22 -2.61 0.00
 14 28 22 -7.21 0.00
 16 28 22 -8.58 0.00
 1 29 22 16.64 0.00
 3 29 22 -4.99 0.00
 5 29 22 -17.87 0.00
 7 29 22 6.00 0.00
 9 29 22 12.77 0.00
 11 29 22 -0.55 0.00
 13 29 22 -23.53 0.00
 15 29 22 -2.01 0.00
 0 30 22 3.31 0.00
 2 30 22 0.23 0.00
 4 30 22 1.40 0.00
 6 30 22 -2.71 0.00
 8 30 22 -12.14 0.00
 10 30 22 1.65 0.00
 12 30 22 -1.92 0.00
 14 30 22 -0.54 0.00
 16 30 22 -6.74 0.00
 1 31 22 2.09 0.00
 3 31 22 -20.87 0.00
 5 31 22 -23.65 0.00
 7 31 22 -8.87 0.00
 9 31 22 13.57 0.00
 11 31 22 2.47 0.00
 13 31 22 -7.66 0.00
 15 31 22 13.06 0.00
 0 32 22 -14.09 0.00
 2 32 22 -3.97 0.00
 4 32 22 -4.30 0.00
 6 32 22 -20.36 0.00
 8 32 22 1.66 0.00
 10 32 22 5.14 0.00
 12 32 22 -5.81 0.00
 14 32 22 -14.60 0.00
 1 33 22 -5.10 0.00
 3 33 22 -6.69 0.00
 5 33 22 -25.07 0.00
 7 33 22 -6.55 0.00
 9 33 22 -13.81 0.00
 11 33 22 -1.89 0.00
 13 33 22 19.39 0.00
 0 34 22 -3.30 0.00
 2 34 22 3.46 0.00
 4 34 22 -12.39 0.00
 6 34 22 -4.32 0.00
 8 34 22 -1.84 0.00
 10 34 22 -0.90 0.00
 12 34 22 -0.39 0.00
 1 35 22 -21.78 0.00
 3 35 22 -8.38 0.00
 5 35 22 -7.93 0.00
 7 35 22 -16.08 0.00
 9 35 22 -6.23 0.00
 11 35 22 -1.10 0.00
 13 35 22 1.27 0.00
 0 36 22 -24.99 0.00
 2 36 22 -5.81 0.00
 4 36 22 -3.29 0.00
 6 36 22 12.47 0.00
 8 36 22 -2.93 0.00
 10 36 22 -10.51 0.00
 12 36 22 1.36 0.00
 1 37 22 -14.12 0.00
 3 37 22 6.93 0.00
 5 37 22 -2.61 0.00
 7 37 22 2.23 0.00
 9 37 22 11.83 0.00
 11 37 22 -5.60 0.00
 0 38 22 -10.50 0.00
 2 38 22 -16.23 0.00
 4 38 22 -3.94 0.00
 6 38 22 -4.97 0.00
 8 38 22 5.62 0.00
 10 38 22 -7.81 0.00
 1 39 22 -25.76 0.00
 3 39 22 -10.63 0.00
 5 39 22 0.77 0.00
 7 39 22 -4.83 0.00
 9 39 22 -5.85 0.00
 0 40 22 -11.30 0.00
 2 40 22 -5.08 0.00
 4 40 22 5.36 0.00
 6 40 22 4.67 0.00
 8 40 22 -9.14 0.00
 1 41 22 -12.69 0.00
 3 41 22 -1.50 0.00
 5 41 22 -7.21 0.00
 7 41 22 -24.68 0.00
 0 42 22 -9.78 0.00
 2 42 22 3.12 0.00
 4 42 22 2.79 0.00
 1 43 22 -5.22 0.00
 2 1 23 2.07 0.00
 4 1 23 -34.89 0.00
 6 1 23 -14.80 0.00
 8 1 23 7.76 0.00
 10 1 23 11.59 0.00
 12 1 23 14.00 0.00
 14 1 23 -7.91 0.00
 16 1 23 -6.77 0.00
 18 1 23 -4.05 0.00
 20 1 23 -1.95 0.00
 22 1 23 -0.85 0.00
 1 2 23 17.23 0.00
 3 2 23 11.27 0.00
 5 2 23 4.89 0.00
 7 2 23 14.35 0.00
 9 2 23 10.75 0.00
 11 2 23 -5.86 0.00
 13 2 23 4.08 0.00
 15 2 23 2.50 0.00
 17 2 23 4.06 0.00
 19 2 23 -5.72 0.00
 21 2 23 5.35 0.00
 2 3 23 -10.60 0.00
 4 3 23 7.79 0.00
 6 3 23 -26.77 0.00
 8 3 23 0.93 0.00
 10 3 23 -2.21 0.00
 12 3 23 0.46 0.00
 14 3 23 7.18 0.00
 16 3 23 -2.66 0.00
 18 3 23 6.08 0.00
 20 3 23 -1.78 0.00
 22 3 23 4.67 0.00
 1 4 23 7.69 0.00
 3 4 23 19.73 0.00
 5 4 23 16.24 0.00
 7 4 23 -6.69 0.00
 9 4 23 3.05 0.00
 11 4 23 -14.66 0.00
 13 4 23 -5.19 0.00
 15 4 23 -7.50 0.00
 17 4 23 11.38 0.00
 19 4 23 7.21 0.00
 21 4 23 20.01 0.00
 2 5 23 -9.22 0.00
 4 5 23 19.02 0.00
 6 5 23 35.66 0.00
 8 5 23 3.98 0.00
 10 5 23 -3.41 0.00
 12 5 23 -7.26 0.00
 14 5 23 -3.39 0.00
 16 5 23 3.21 0.00
 18 5 23 4.89 0.00
 20 5 23 0.58 0.00
 22 5 23 1.49 0.00
 1 6 23 22.18 0.00
 3 6 23 -7.10 0.00
 5 6 23 -11.81 0.00
 7 6 23 1.37 0.00
 9 6 23 -1.01 0.00
 11 6 23 13.00 0.00
 13 6 23 -5.23 0.00
 15 6 23 -0.97 0.00
 17 6 23 -4.95 0.00
 19 6 23 1.57 0.00
 21 6 23 8.33 0.00
 2 7 23 9.59 0.00
 4 7 23 1.01 0.00
 6 7 23 -16.92 0.00
 8 7 23 1.52 0.00
 10 7 23 -0.03 0.00
 12 7 23 -2.08 0.00
 14 7 23 7.09 0.00
 16 7 23 5.47 0.00
 18 7 23 -3.19 0.00
 20 7 23 8.23 0.00
 22 7 23 0.60 0.00
 1 8 23 -18.95 0.00
 3 8 23 -10.39 0.00
 5 8 23 19.43 0.00
 7 8 23 7.28 0.00
 9 8 23 -14.24 0.00
 11 8 23 -0.95 0.00
 13 8 23 -4.44 0.00
 15 8 23 -12.15 0.00
 17 8 23 3.55 0.00
 19 8 23 1.11 0.00
 21 8 23 4.89 0.00
 2 9 23 -3.34 0.00
 4 9 23 -22.40 0.00
 6 9 23 13.87 0.00
 8 9 23 20.11 0.00
 10 9 23 1.55 0.00
 12 9 23 -9.54 0.00
 14 9 23 -7.23 0.00
 16 9 23 -3.58 0.00
 18 9 23 -7.45 0.00
 20 9 23 -1.45 0.00
 1 10 23 -9.72 0.00
 3 10 23 -17.07 0.00
 5 10 23 9.00 0.00
 7 10 23 7.04 0.00
 9 10 23 -10.15 0.00
 11 10 23 5.95 0.00
 13 10 23 11.29 0.00
 15 10 23 -8.26 0.00
 17 10 23 5.83 0.00
 19 10 23 -14.70 0.00
 21 10 23 -15.83 0.00
 2 11 23 4.46 0.00
 4 11 23 21.06 0.00
 6 11 23 7.70 0.00
 8 11 23 -14.86 0.00
 10 11 23 -6.45 0.00
 12 11 23 14.86 0.00
 14 11 23 3.49 0.00
 16 11 23 28.45 0.00
 18 11 23 8.12 0.00
 20 11 23 12.19 0.00
 1 12 23 15.97 0.00
 3 12 23 17.13 0.00
 5 12 23 0.24 0.00
 7 12 23 -5.04 0.00
 9 12 23 -3.09 0.00
 11 12 23 9.60 0.00
 13 12 23 -4.20 0.00
 15 12 23 7.70 0.00
 17 12 23 21.35 0.00
 19 12 23 -14.26 0.00
 21 12 23 7.06 0.00
 2 13 23 -9.39 0.00
 4 13 23 -4.31 0.00
 6 13 23 15.66 0.00
 8 13 23 -15.05 0.00
 10 13 23 -6.84 0.00
 12 13 23 0.14 0.00
 14 13 23 -22.95 0.00
 16 13 23 -3.18 0.00
 18 13 23 -7.26 0.00
 20 13 23 -2.36 0.00
 1 14 23 4.78 0.00
 3 14 23 -9.63 0.00
 5 14 23 -8.65 0.00
 7 14 23 -0.35 0.00
 9 14 23 4.39 0.00
 11 14 23 -8.34 0.00
 13 14 23 -10.45 0.00
 15 14 23 2.91 0.00
 17 14 23 17.06 0.00
 19 14 23 -0.33 0.00
 21 14 23 -8.60 0.00
 2 15 23 -7.32 0.00
 4 15 23 3.32 0.00
 6 15 23 1.12 0.00
 8 15 23 -0.88 0.00
 10 15 23 4.11 0.00
 12 15 23 -2.64 0.00
 14 15 23 7.31 0.00
 16 15 23 7.17 0.00
 18 15 23 6.61 0.00
 20 15 23 0.93 0.00
 1 16 23 -7.07 0.00
 3 16 23 4.52 0.00
 5 16 23 13.07 0.00
 7 16 23 -7.23 0.00
 9 16 23 -11.70 0.00
 11 16 23 11.32 0.00
 13 16 23 9.03 0.00
 15 16 23 3.06 0.00
 17 16 23 3.53 0.00
 19 16 23 2.70 0.00
 2 17 23 -3.44 0.00
 4 17 23 -1.29 0.00
 6 17 23 -1.74 0.00
 8 17 23 -0.24 0.00
 10 17 23 3.76 0.00
 12 17 23 18.39 0.00
 14 17 23 -0.39 0.00
 16 17 23 2.15 0.00
 18 17 23 -5.34 0.00
 20 17 23 -17.95 0.00
 1 18 23 -24.83 0.00
 3 18 23 4.84 0.00
 5 18 23 39.67 0.00
 7 18 23 4.50 0.00
 9 18 23 -20.76 0.00
 11 18 23 -6.06 0.00
 13 18 23 -6.23 0.00
 15 18 23 4.34 0.00
 17 18 23 1.64 0.00
 19 18 23 3.14 0.00
 2 19 23 -12.03 0.00
 4 19 23 11.37 0.00
 6 19 23 12.19 0.00
 8 19 23 15.14 0.00
 10 19 23 2.85 0.00
 12 19 23 -8.93 0.00
 14 19 23 -5.18 0.00
 16 19 23 1.37 0.00
 18 19 23 -13.60 0.00
 20 19 23 -5.99 0.00
 1 20 23 8.11 0.00
 3 20 23 -2.62 0.00
 5 20 23 9.21 0.00
 7 20 23 4.56 0.00
 9 20 23 4.07 0.00
 11 20 23 -13.53 0.00
 13 20 23 9.68 0.00
 15 20 23 6.50 0.00
 17 20 23 3.25 0.00
 19 20 23 -14.83 0.00
 2 21 23 4.86 0.00
 4 21 23 2.69 0.00
 6 21 23 -3.84 0.00
 8 21 23 -3.25 0.00
 10 21 23 3.23 0.00
 12 21 23 9.78 0.00
 14 21 23 1.50 0.00
 16 21 23 -0.36 0.00
 18 21 23 -0.94 0.00
 1 22 23 -2.33 0.00
 3 22 23 0.26 0.00
 5 22 23 4.16 0.00
 7 22 23 8.73 0.00
 9 22 23 -3.37 0.00
 11 22 23 -15.18 0.00
 13 22 23 7.09 0.00
 15 22 23 10.74 0.00
 17 22 23 1.51 0.00
 19 22 23 14.42 0.00
 2 23 23 -3.61 0.00
 4 23 23 -0.83 0.00
 6 23 23 1.95 0.00
 8 23 23 -0.56 0.00
 10 23 23 14.85 0.00
 12 23 23 -10.47 0.00
 14 23 23 -6.59 0.00
 16 23 23 12.43 0.00
 18 23 23 -13.79 0.00
 1 24 23 -10.48 0.00
 3 24 23 -12.31 0.00
 5 24 23 9.51 0.00
 7 24 23 10.10 0.00
 9 24 23 -8.75 0.00
 11 24 23 16.16 0.00
 13 24 23 0.57 0.00
 15 24 23 5.03 0.00
 17 24 23 10.65 0.00
 2 25 23 14.91 0.00
 4 25 23 -4.10 0.00
 6 25 23 6.42 0.00
 8 25 23 12.92 0.00
 10 25 23 -10.16 0.00
 12 25 23 -14.37 0.00
 14 25 23 -5.43 0.00
 16 25 23 21.74 0.00
 18 25 23 7.73 0.00
 1 26 23 -1.08 0.00
 3 26 23 6.07 0.00
 5 26 23 -13.04 0.00
 7 26 23 -12.29 0.00
 9 26 23 -2.36 0.00
 11 26 23 -0.01 0.00
 13 26 23 10.16 0.00
 15 26 23 2.22 0.00
 17 26 23 -4.88 0.00
 2 27 23 11.43 0.00
 4 27 23 11.16 0.00
 6 27 23 0.92 0.00
 8 27 23 -3.29 0.00
 10 27 23 16.00 0.00
 12 27 23 1.51 0.00
 14 27 23 -14.47 0.00
 16 27 23 -3.13 0.00
 1 28 23 -4.35 0.00
 3 28 23 -0.44 0.00
 5 28 23 15.38 0.00
 7 28 23 3.37 0.00
 9 28 23 -14.11 0.00
 11 28 23 -12.43 0.00
 13 28 23 -3.40 0.00
 15 28 23 -9.17 0.00
 2 29 23 -13.56 0.00
 4 29 23 3.80 0.00
 6 29 23 -5.60 0.00
 8 29 23 -6.44 0.00
 10 29 23 17.29 0.00
 12 29 23 11.84 0.00
 14 29 23 -10.76 0.00
 16 29 23 -1.03 0.00
 1 30 23 -11.65 0.00
 3 30 23 6.10 0.00
 5 30 23 9.17 0.00
 7 30 23 3.06 0.00
 9 30 23 -2.91 0.00
 11 30 23 -8.34 0.00
 13 30 23 -1.38 0.00
 15 30 23 5.53 0.00
 2 31 23 -3.49 0.00
 4 31 23 -0.18 0.00
 6 31 23 -0.61 0.00
 8 31 23 7.81 0.00
 10 31 23 -2.57 0.00
 12 31 23 0.07 0.00
 14 31 23 10.85 0.00
 1 32 23 0.89 0.00
 3 32 23 3.79 0.00
 5 32 23 -11.94 0.00
 7 32 23 -6.90 0.00
 9 32 23 3.33 0.00
 11 32 23 -17.39 0.00
 13 32 23 -6.56 0.00
 2 33 23 -8.38 0.00
 4 33 23 0.21 0.00
 6 33 23 6.91 0.00
 8 33 23 -8.04 0.00
 10 33 23 -9.04 0.00
 12 33 23 -23.41 0.00
 14 33 23 10.93 0.00
 1 34 23 -7.61 0.00
 3 34 23 0.11 0.00
 5 34 23 -2.31 0.00
 7 34 23 3.30 0.00
 9 34 23 -1.24 0.00
 11 34 23 -8.87 0.00
 13 34 23 20.03 0.00
 2 35 23 -8.49 0.00
 4 35 23 -20.60 0.00
 6 35 23 -6.17 0.00
 8 35 23 -4.23 0.00
 10 35 23 -10.22 0.00
 12 35 23 13.22 0.00
 1 36 23 15.34 0.00
 3 36 23 10.14 0.00
 5 36 23 6.53 0.00
 7 36 23 -3.63 0.00
 9 36 23 -6.16 0.00
 11 36 23 -3.08 0.00
 2 37 23 2.87 0.00
 4 37 23 -0.15 0.00
 6 37 23 3.39 0.00
 8 37 23 -12.33 0.00
 10 37 23 -7.37 0.00
 1 38 23 -7.13 0.00
 3 38 23 -3.04 0.00
 5 38 23 -15.61 0.00
 7 38 23 -8.81 0.00
 9 38 23 -16.32 0.00
 2 39 23 6.27 0.00
 4 39 23 5.09 0.00
 6 39 23 5.89 0.00
 8 39 23 -3.38 0.00
 1 40 23 3.33 0.00
 3 40 23 3.37 0.00
 5 40 23 -4.53 0.00
 7 40 23 -20.57 0.00
 2 41 23 18.15 0.00
 4 41 23 4.28 0.00
 6 41 23 0.12 0.00
 1 42 23 8.97 0.00
 3 42 23 16.05 0.00
 0 0 24 107.90 0.00
 2 0 24 72.96 0.00
 4 0 24 63.45 0.00
 6 0 24 34.69 0.00
 8 0 24 3.46 0.00
 10 0 24 3.03 0.00
 12 0 24 12.18 0.00
 14 0 24 12.10 0.00
 16 0 24 -2.82 0.00
 18 0 24 8.87 0.00
 20 0 24 -14.33 0.00
 22 0 24 -11.86 0.00
 1 1 24 7.72 0.00
 3 1 24 -16.11 0.00
 5 1 24 4.67 0.00
 7 1 24 -12.02 0.00
 9 1 24 -11.50 0.00
 11 1 24 -6.73 0.00
 13 1 24 -4.45 0.00
 15 1 24 -15.12 0.00
 17 1 24 -14.08 0.00
 19 1 24 -14.20 0.00
 21 1 24 4.10 0.00
 0 2 24 -74.76 0.00
 2 2 24 -21.39 0.00
 4 2 24 -34.91 0.00
 6 2 24 -3.35 0.00
 8 2 24 6.84 0.00
 10 2 24 14.52 0.00
 12 2 24 11.90 0.00
 14 2 24 -1.02 0.00
 16 2 24 -4.79 0.00
 18 2 24 9.45 0.00
 20 2 24 -6.45 0.00
 22 2 24 5.99 0.00
 1 3 24 39.16 0.00
 3 3 24 14.52 0.00
 5 3 24 -3.91 0.00
 7 3 24 -9.10 0.00
 9 3 24 -10.51 0.00
 11 3 24 -14.12 0.00
 13 3 24 -27.31 0.00
 15 3 24 -10.16 0.00
 17 3 24 11.73 0.00
 19 3 24 10.44 0.00
 21 3 24 11.04 0.00
 0 4 24 38.13 0.00
 2 4 24 -9.48 0.00
 4 4 24 21.04 0.00
 6 4 24 32.43 0.00
 8 4 24 5.87 0.00
 10 4 24 -4.65 0.00
 12 4 24 -13.30 0.00
 14 4 24 -2.39 0.00
 16 4 24 0.29 0.00
 18 4 24 0.04 0.00
 20 4 24 0.03 0.00
 22 4 24 -1.80 0.00
 1 5 24 -23.44 0.00
 3 5 24 -40.60 0.00
 5 5 24 -7.24 0.00
 7 5 24 -4.90 0.00
 9 5 24 -11.18 0.00
 11 5 24 2.35 0.00
 13 5 24 0.64 0.00
 15 5 24 -9.19 0.00
 17 5 24 15.62 0.00
 19 5 24 5.87 0.00
 21 5 24 -0.14 0.00
 0 6 24 3.87 0.00
 2 6 24 27.09 0.00
 4 6 24 -6.07 0.00
 6 6 24 8.63 0.00
 8 6 24 9.32 0.00
 10 6 24 -5.17 0.00
 12 6 24 7.05 0.00
 14 6 24 12.11 0.00
 16 6 24 -4.40 0.00
 18 6 24 14.32 0.00
 20 6 24 -4.58 0.00
 22 6 24 -19.15 0.00
 1 7 24 -2.81 0.00
 3 7 24 18.38 0.00
 5 7 24 5.44 0.00
 7 7 24 -10.32 0.00
 9 7 24 -5.82 0.00
 11 7 24 -8.04 0.00
 13 7 24 -10.12 0.00
 15 7 24 2.52 0.00
 17 7 24 9.27 0.00
 19 7 24 2.03 0.00
 21 7 24 19.10 0.00
 0 8 24 30.44 0.00
 2 8 24 20.31 0.00
 4 8 24 36.03 0.00
 6 8 24 7.33 0.00
 8 8 24 1.83 0.00
 10 8 24 1.04 0.00
 12 8 24 -7.14 0.00
 14 8 24 6.03 0.00
 16 8 24 -10.77 0.00
 18 8 24 14.17 0.00
 20 8 24 6.65 0.00
 1 9 24 -16.67 0.00
 3 9 24 -6.86 0.00
 5 9 24 -7.07 0.00
 7 9 24 10.97 0.00
 9 9 24 1.80 0.00
 11 9 24 -9.81 0.00
 13 9 24 -1.30 0.00
 15 9 24 0.97 0.00
 17 9 24 14.01 0.00
 19 9 24 4.27 0.00
 21 9 24 -3.64 0.00
 0 10 24 2.49 0.00
 2 10 24 -3.59 0.00
 4 10 24 8.15 0.00
 6 10 24 13.01 0.00
 8 10 24 0.82 0.00
 10 10 24 6.48 0.00
 12 10 24 -13.00 0.00
 14 10 24 -6.18 0.00
 16 10 24 9.76 0.00
 18 10 24 11.15 0.00
 20 10 24 12.68 0.00
 1 11 24 25.40 0.00
 3 11 24 -0.09 0.00
 5 11 24 -11.49 0.00
 7 11 24 10.49 0.00
 9 11 24 -26.38 0.00
 11 11 24 -19.18 0.00
 13 11 24 -9.71 0.00
 15 11 24 -9.74 0.00
 17 11 24 -0.47 0.00
 19 11 24 7.63 0.00
 21 11 24 -1.35 0.00
 0 12 24 26.72 0.00
 2 12 24 6.49 0.00
 4 12 24 -0.46 0.00
 6 12 24 5.68 0.00
 8 12 24 2.82 0.00
 10 12 24 0.50 0.00
 12 12 24 -7.63 0.00
 14 12 24 -4.48 0.00
 16 12 24 5.21 0.00
 18 12 24 -6.00 0.00
 20 12 24 18.81 0.00
 1 13 24 -3.75 0.00
 3 13 24 -20.06 0.00
 5 13 24 -6.02 0.00
 7 13 24 -7.31 0.00
 9 13 24 0.37 0.00
 11 13 24 8.41 0.00
 13 13 24 -8.86 0.00
 15 13 24 -3.04 0.00
 17 13 24 -12.53 0.00
 19 13 24 -0.78 0.00
 21 13 24 -9.60 0.00
 0 14 24 14.75 0.00
 2 14 24 4.22 0.00
 4 14 24 -0.83 0.00
 6 14 24 16.26 0.00
 8 14 24 -5.02 0.00
 10 14 24 3.45 0.00
 12 14 24 -7.57 0.00
 14 14 24 4.03 0.00
 16 14 24 4.22 0.00
 18 14 24 9.44 0.00
 20 14 24 17.31 0.00
 1 15 24 -4.90 0.00
 3 15 24 8.77 0.00
 5 15 24 -4.26 0.00
 7 15 24 -6.19 0.00
 9 15 24 -8.91 0.00
 11 15 24 -5.10 0.00
 13 15 24 2.68 0.00
 15 15 24 11.69 0.00
 17 15 24 -1.85 0.00
 19 15 24 13.25 0.00
 0 16 24 6.71 0.00
 2 16 24 9.16 0.00
 4 16 24 0.37 0.00
 6 16 24 38.45 0.00
 8 16 24 -6.36 0.00
 10 16 24 0.42 0.00
 12 16 24 3.61 0.00
 14 16 24 -3.91 0.00
 16 16 24 2.97 0.00
 18 16 24 13.81 0.00
 20 16 24 -9.02 0.00
 1 17 24 -8.85 0.00
 3 17 24 -3.28 0.00
 5 17 24 -5.58 0.00
 7 17 24 1.65 0.00
 9 17 24 -1.59 0.00
 11 17 24 0.72 0.00
 13 17 24 7.70 0.00
 15 17 24 -17.08 0.00
 17 17 24 5.36 0.00
 19 17 24 13.32 0.00
 0 18 24 7.39 0.00
 2 18 24 9.19 0.00
 4 18 24 0.53 0.00
 6 18 24 -6.65 0.00
 8 18 24 5.63 0.00
 10 18 24 9.71 0.00
 12 18 24 8.16 0.00
 14 18 24 7.03 0.00
 16 18 24 -9.57 0.00
 18 18 24 1.29 0.00
 20 18 24 -21.97 0.00
 1 19 24 -4.89 0.00
 3 19 24 12.71 0.00
 5 19 24 8.42 0.00
 7 19 24 -4.26 0.00
 9 19 24 -8.56 0.00
 11 19 24 8.52 0.00
 13 19 24 -4.05 0.00
 15 19 24 -6.34 0.00
 17 19 24 7.57 0.00
 19 19 24 -1.83 0.00
 0 20 24 -4.23 0.00
 2 20 24 -0.21 0.00
 4 20 24 8.22 0.00
 6 20 24 -1.57 0.00
 8 20 24 -7.61 0.00
 10 20 24 -12.47 0.00
 12 20 24 4.06 0.00
 14 20 24 7.01 0.00
 16 20 24 -1.99 0.00
 18 20 24 6.82 0.00
 1 21 24 -21.03 0.00
 3 21 24 11.75 0.00
 5 21 24 -5.70 0.00
 7 21 24 -7.93 0.00
 9 21 24 -16.66 0.00
 11 21 24 -6.14 0.00
 13 21 24 -3.81 0.00
 15 21 24 -8.63 0.00
 17 21 24 -3.69 0.00
 19 21 24 -6.14 0.00
 0 22 24 -2.27 0.00
 2 22 24 -4.28 0.00
 4 22 24 0.76 0.00
 6 22 24 8.49 0.00
 8 22 24 1.80 0.00
 10 22 24 5.77 0.00
 12 22 24 4.61 0.00
 14 22 24 -9.13 0.00
 16 22 24 -11.77 0.00
 18 22 24 -1.43 0.00
 1 23 24 -0.86 0.00
 3 23 24 -7.55 0.00
 5 23 24 -11.29 0.00
 7 23 24 -6.33 0.00
 9 23 24 5.03 0.00
 11 23 24 -0.13 0.00
 13 23 24 9.45 0.00
 15 23 24 6.98 0.00
 17 23 24 -19.82 0.00
 0 24 24 10.34 0.00
 2 24 24 -2.83 0.00
 4 24 24 -12.55 0.00
 6 24 24 1.88 0.00
 8 24 24 -9.70 0.00
 10 24 24 -8.89 0.00
 12 24 24 10.02 0.00
 14 24 24 1.57 0.00
 16 24 24 -1.82 0.00
 18 24 24 -5.10 0.00
 1 25 24 1.67 0.00
 3 25 24 -5.22 0.00
 5 25 24 0.54 0.00
 7 25 24 13.46 0.00
 9 25 24 0.98 0.00
 11 25 24 -10.08 0.00
 13 25 24 5.84 0.00
 15 25 24 0.63 0.00
 17 25 24 10.24 0.00
 0 26 24 5.81 0.00
 2 26 24 -6.34 0.00
 4 26 24 -8.08 0.00
 6 26 24 -2.12 0.00
 8 26 24 -7.65 0.00
 10 26 24 -1.78 0.00
 12 26 24 6.02 0.00
 14 26 24 8.91 0.00
 16 26 24 -6.87 0.00
 1 27 24 11.64 0.00
 3 27 24 -4.84 0.00
 5 27 24 8.92 0.00
 7 27 24 -0.35 0.00
 9 27 24 3.96 0.00
 11 27 24 0.29 0.00
 13 27 24 7.11 0.00
 15 27 24 9.03 0.00
 17 27 24 0.74 0.00
 0 28 24 -6.16 0.00
 2 28 24 -11.09 0.00
 4 28 24 3.17 0.00
 6 28 24 8.93 0.00
 8 28 24 3.46 0.00
 10 28 24 10.45 0.00
 12 28 24 3.35 0.00
 14 28 24 7.56 0.00
 16 28 24 6.86 0.00
 1 29 24 18.73 0.00
 3 29 24 14.30 0.00
 5 29 24 -6.35 0.00
 7 29 24 0.27 0.00
 9 29 24 17.05 0.00
 11 29 24 -5.22 0.00
 13 29 24 -2.32 0.00
 15 29 24 10.09 0.00
 0 30 24 -14.17 0.00
 2 30 24 -8.40 0.00
 4 30 24 3.46 0.00
 6 30 24 -13.37 0.00
 8 30 24 -7.12 0.00
 10 30 24 3.78 0.00
 12 30 24 13.60 0.00
 14 30 24 -1.66 0.00
 1 31 24 8.07 0.00
 3 31 24 7.45 0.00
 5 31 24 18.46 0.00
 7 31 24 16.62 0.00
 9 31 24 8.54 0.00
 11 31 24 7.00 0.00
 13 31 24 4.39 0.00
 15 31 24 17.21 0.00
 0 32 24 21.17 0.00
 2 32 24 4.00 0.00
 4 32 24 -3.07 0.00
 6 32 24 20.75 0.00
 8 32 24 6.15 0.00
 10 32 24 4.02 0.00
 12 32 24 8.13 0.00
 14 32 24 0.83 0.00
 1 33 24 -20.33 0.00
 3 33 24 6.94 0.00
 5 33 24 -0.91 0.00
 7 33 24 -6.05 0.00
 9 33 24 -10.22 0.00
 11 33 24 2.77 0.00
 13 33 24 10.78 0.00
 0 34 24 -0.10 0.00
 2 34 24 -4.29 0.00
 4 34 24 9.25 0.00
 6 34 24 17.13 0.00
 8 34 24 6.88 0.00
 10 34 24 -24.13 0.00
 12 34 24 -6.98 0.00
 1 35 24 -8.81 0.00
 3 35 24 9.15 0.00
 5 35 24 -4.22 0.00
 7 35 24 13.39 0.00
 9 35 24 13.32 0.00
 11 35 24 0.99 0.00
 0 36 24 -9.48 0.00
 2 36 24 -1.04 0.00
 4 36 24 18.70 0.00
 6 36 24 -1.43 0.00
 8 36 24 9.04 0.00
 10 36 24 6.16 0.00
 1 37 24 -23.18 0.00
 3 37 24 -33.30 0.00
 5 37 24 -10.76 0.00
 7 37 24 15.38 0.00
 9 37 24 1.74 0.00
 0 38 24 7.10 0.00
 2 38 24 1.00 0.00
 4 38 24 -1.32 0.00
 6 38 24 10.97 0.00
 8 38 24 -0.78 0.00
 1 39 24 -9.13 0.00
 3 39 24 -7.82 0.00
 5 39 24 4.18 0.00
 7 39 24 -7.63 0.00
 0 40 24 -4.25 0.00
 2 40 24 -6.57 0.00
 4 40 24 -0.36 0.00
 6 40 24 2.34 0.00
 1 41 24 -0.20 0.00
 3 41 24 -1.76 0.00
 5 41 24 -8.85 0.00
 0 42 24 10.43 0.00
 2 42 24 -1.26 0.00
 2 1 25 -14.76 0.00
 4 1 25 30.36 0.00
 6 1 25 4.69 0.00
 8 1 25 1.06 0.00
 10 1 25 27.45 0.00
 12 1 25 0.55 0.00
 14 1 25 9.12 0.00
 16 1 25 7.73 0.00
 18 1 25 -3.86 0.00
 20 1 25 -1.32 0.00
 22 1 25 -7.98 0.00
 1 2 25 1.21 0.00
 3 2 25 16.03 0.00
 5 2 25 14.96 0.00
 7 2 25 -4.04 0.00
 9 2 25 6.57 0.00
 11 2 25 -4.02 0.00
 13 2 25 -0.77 0.00
 15 2 25 14.96 0.00
 17 2 25 4.31 0.00
 19 2 25 4.27 0.00
 21 2 25 -2.30 0.00
 2 3 25 -18.86 0.00
 4 3 25 -14.47 0.00
 6 3 25 4.13 0.00
 8 3 25 0.78 0.00
 10 3 25 -6.53 0.00
 12 3 25 -12.97 0.00
 14 3 25 -3.04 0.00
 16 3 25 7.46 0.00
 18 3 25 6.84 0.00
 20 3 25 17.98 0.00
 22 3 25 -10.63 0.00
 1 4 25 1.28 0.00
 3 4 25 -5.55 0.00
 5 4 25 2.39 0.00
 7 4 25 -1.14 0.00
 9 4 25 -5.70 0.00
 11 4 25 -2.79 0.00
 13 4 25 -11.55 0.00
 15 4 25 6.56 0.00
 17 4 25 -0.27 0.00
 19 4 25 9.41 0.00
 21 4 25 6.05 0.00
 2 5 25 19.47 0.00
 4 5 25 32.62 0.00
 6 5 25 4.61 0.00
 8 5 25 10.66 0.00
 10 5 25 -4.41 0.00
 12 5 25 7.17 0.00
 14 5 25 10.37 0.00
 16 5 25 -7.97 0.00
 18 5 25 -5.98 0.00
 20 5 25 3.66 0.00
 1 6 25 -19.14 0.00
 3 6 25 -10.74 0.00
 5 6 25 4.90 0.00
 7 6 25 -1.38 0.00
 9 6 25 6.86 0.00
 11 6 25 5.39 0.00
 13 6 25 5.35 0.00
 15 6 25 10.30 0.00
 17 6 25 -4.39 0.00
 19 6 25 -6.09 0.00
 21 6 25 12.64 0.00
 2 7 25 -24.54 0.00
 4 7 25 -10.13 0.00
 6 7 25 -5.15 0.00
 8 7 25 -12.67 0.00
 10 7 25 -14.92 0.00
 12 7 25 -5.86 0.00
 14 7 25 -12.97 0.00
 16 7 25 -13.28 0.00
 18 7 25 -9.38 0.00
 20 7 25 10.16 0.00
 1 8 25 7.31 0.00
 3 8 25 -17.74 0.00
 5 8 25 -10.09 0.00
 7 8 25 15.98 0.00
 9 8 25 -4.99 0.00
 11 8 25 -6.80 0.00
 13 8 25 -0.72 0.00
 15 8 25 -12.06 0.00
 17 8 25 5.86 0.00
 19 8 25 -0.86 0.00
 21 8 25 11.56 0.00
 2 9 25 -16.84 0.00
 4 9 25 1.03 0.00
 6 9 25 -16.55 0.00
 8 9 25 2.33 0.00
 10 9 25 -6.42 0.00
 12 9 25 -3.12 0.00
 14 9 25 12.97 0.00
 16 9 25 15.71 0.00
 18 9 25 -6.34 0.00
 20 9 25 0.24 0.00
 1 10 25 -2.14 0.00
 3 10 25 4.60 0.00
 5 10 25 -10.65 0.00
 7 10 25 6.99 0.00
 9 10 25 -6.88 0.00
 11 10 25 -5.34 0.00
 13 10 25 2.71 0.00
 15 10 25 -9.60 0.00
 17 10 25 2.27 0.00
 19 10 25 -4.96 0.00
 21 10 25 -21.80 0.00
 2 11 25 6.85 0.00
 4 11 25 4.41 0.00
 6 11 25 -2.86 0.00
 8 11 25 1.26 0.00
 10 11 25 -6.99 0.00
 12 11 25 -3.60 0.00
 14 11 25 7.79 0.00
 16 11 25 2.91 0.00
 18 11 25 -1.94 0.00
 20 11 25 18.91 0.00
 1 12 25 -5.76 0.00
 3 12 25 -3.09 0.00
 5 12 25 1.22 0.00
 7 12 25 -1.11 0.00
 9 12 25 -1.71 0.00
 11 12 25 -12.84 0.00
 13 12 25 -3.83 0.00
 15 12 25 13.07 0.00
 17 12 25 -6.32 0.00
 19 12 25 3.89 0.00
 21 12 25 -8.81 0.00
 2 13 25 -5.15 0.00
 4 13 25 5.43 0.00
 6 13 25 5.61 0.00
 8 13 25 -4.01 0.00
 10 13 25 7.71 0.00
 12 13 25 -11.78 0.00
 14 13 25 -5.91 0.00
 16 13 25 -5.33 0.00
 18 13 25 -1.38 0.00
 20 13 25 8.52 0.00
 1 14 25 -1.39 0.00
 3 14 25 19.94 0.00
 5 14 25 -8.19 0.00
 7 14 25 18.74 0.00
 9 14 25 -12.46 0.00
 11 14 25 -6.10 0.00
 13 14 25 -6.05 0.00
 15 14 25 6.36 0.00
 17 14 25 2.76 0.00
 19 14 25 16.22 0.00
 2 15 25 -8.38 0.00
 4 15 25 6.98 0.00
 6 15 25 -4.68 0.00
 8 15 25 -4.21 0.00
 10 15 25 -1.85 0.00
 12 15 25 -10.96 0.00
 14 15 25 3.08 0.00
 16 15 25 5.21 0.00
 18 15 25 4.31 0.00
 20 15 25 4.11 0.00
 1 16 25 7.69 0.00
 3 16 25 0.00 0.00
 5 16 25 -9.93 0.00
 7 16 25 -8.00 0.00
 9 16 25 10.29 0.00
 11 16 25 1.44 0.00
 13 16 25 15.06 0.00
 15 16 25 15.17 0.00
 17 16 25 3.67 0.00
 19 16 25 10.71 0.00
 2 17 25 19.88 0.00
 4 17 25 -7.04 0.00
 6 17 25 -6.54 0.00
 8 17 25 -6.84 0.00
 10 17 25 -10.42 0.00
 12 17 25 -7.48 0.00
 14 17 25 4.37 0.00
 16 17 25 1.82 0.00
 18 17 25 6.72 0.00
 20 17 25 -33.44 0.00
 1 18 25 7.11 0.00
 3 18 25 -14.22 0.00
 5 18 25 4.41 0.00
 7 18 25 -3.97 0.00
 9 18 25 11.32 0.00
 11 18 25 -14.10 0.00
 13 18 25 10.19 0.00
 15 18 25 3.36 0.00
 17 18 25 1.45 0.00
 19 18 25 5.48 0.00
 2 19 25 7.03 0.00
 4 19 25 -2.86 0.00
 6 19 25 0.14 0.00
 8 19 25 -2.23 0.00
 10 19 25 -5.83 0.00
 12 19 25 -18.30 0.00
 14 19 25 -17.14 0.00
 16 19 25 -11.31 0.00
 18 19 25 14.81 0.00
 1 20 25 11.51 0.00
 3 20 25 3.90 0.00
 5 20 25 -6.58 0.00
 7 20 25 6.66 0.00
 9 20 25 3.81 0.00
 11 20 25 -2.11 0.00
 13 20 25 -0.20 0.00
 15 20 25 -2.26 0.00
 17 20 25 0.82 0.00
 19 20 25 -12.06 0.00
 2 21 25 11.71 0.00
 4 21 25 -5.37 0.00
 6 21 25 -6.89 0.00
 8 21 25 2.77 0.00
 10 21 25 4.22 0.00
 12 21 25 -16.34 0.00
 14 21 25 3.32 0.00
 16 21 25 11.59 0.00
 18 21 25 -8.55 0.00
 1 22 25 2.16 0.00
 3 22 25 6.57 0.00
 5 22 25 -10.33 0.00
 7 22 25 -4.27 0.00
 9 22 25 10.98 0.00
 11 22 25 3.46 0.00
 13 22 25 -0.44 0.00
 15 22 25 6.62 0.00
 17 22 25 14.74 0.00
 2 23 25 9.92 0.00
 4 23 25 0.62 0.00
 6 23 25 4.38 0.00
 8 23 25 -4.44 0.00
 10 23 25 15.76 0.00
 12 23 25 -6.50 0.00
 14 23 25 4.49 0.00
 16 23 25 13.05 0.00
 18 23 25 9.09 0.00
 1 24 25 -4.25 0.00
 3 24 25 -19.79 0.00
 5 24 25 14.07 0.00
 7 24 25 21.83 0.00
 9 24 25 4.32 0.00
 11 24 25 0.02 0.00
 13 24 25 -4.07 0.00
 15 24 25 4.28 0.00
 17 24 25 15.17 0.00
 2 25 25 4.86 0.00
 4 25 25 -3.15 0.00
 6 25 25 6.67 0.00
 8 25 25 -7.36 0.00
 10 25 25 -10.32 0.00
 12 25 25 -15.13 0.00
 14 25 25 -9.86 0.00
 16 25 25 2.93 0.00
 1 26 25 -6.18 0.00
 3 26 25 -4.83 0.00
 5 26 25 15.25 0.00
 7 26 25 -0.23 0.00
 9 26 25 -3.64 0.00
 11 26 25 11.36 0.00
 13 26 25 -8.58 0.00
 15 26 25 8.46 0.00
 17 26 25 8.85 0.00
 2 27 25 1.47 0.00
 4 27 25 3.77 0.00
 6 27 25 7.13 0.00
 8 27 25 6.67 0.00
 10 27 25 -19.50 0.00
 12 27 25 -11.11 0.00
 14 27 25 1.36 0.00
 16 27 25 16.29 0.00
 1 28 25 2.82 0.00
 3 28 25 -0.81 0.00
 5 28 25 13.47 0.00
 7 28 25 -2.02 0.00
 9 28 25 5.51 0.00
 11 28 25 -5.21 0.00
 13 28 25 2.53 0.00
 15 28 25 8.01 0.00
 2 29 25 -22.63 0.00
 4 29 25 -5.39 0.00
 6 29 25 5.73 0.00
 8 29 25 2.83 0.00
 10 29 25 3.26 0.00
 12 29 25 -12.36 0.00
 14 29 25 -8.12 0.00
 16 29 25 12.52 0.00
 1 30 25 -5.02 0.00
 3 30 25 11.46 0.00
 5 30 25 28.12 0.00
 7 30 25 10.96 0.00
 9 30 25 5.80 0.00
 11 30 25 -7.21 0.00
 13 30 25 -3.41 0.00
 15 30 25 6.08 0.00
 2 31 25 -12.31 0.00
 4 31 25 8.44 0.00
 6 31 25 -11.47 0.00
 8 31 25 3.45 0.00
 10 31 25 -6.02 0.00
 12 31 25 9.70 0.00
 14 31 25 20.96 0.00
 1 32 25 -0.47 0.00
 3 32 25 -14.08 0.00
 5 32 25 8.66 0.00
 7 32 25 23.91 0.00
 9 32 25 9.79 0.00
 11 32 25 -18.82 0.00
 13 32 25 -19.11 0.00
 2 33 25 23.69 0.00
 4 33 25 -1.87 0.00
 6 33 25 -15.65 0.00
 8 33 25 6.88 0.00
 10 33 25 -15.49 0.00
 12 33 25 -7.41 0.00
 1 34 25 -1.56 0.00
 3 34 25 9.73 0.00
 5 34 25 16.49 0.00
 7 34 25 -7.05 0.00
 9 34 25 -0.39 0.00
 11 34 25 3.34 0.00
 13 34 25 -10.32 0.00
 2 35 25 11.07 0.00
 4 35 25 -19.18 0.00
 6 35 25 -15.74 0.00
 8 35 25 -3.77 0.00
 10 35 25 -8.87 0.00
 12 35 25 -30.11 0.00
 1 36 25 9.71 0.00
 3 36 25 13.69 0.00
 5 36 25 -11.11 0.00
 7 36 25 -3.73 0.00
 9 36 25 -7.10 0.00
 11 36 25 -0.48 0.00
 2 37 25 13.67 0.00
 4 37 25 2.16 0.00
 6 37 25 0.06 0.00
 8 37 25 -17.97 0.00
 10 37 25 -10.18 0.00
 1 38 25 -6.20 0.00
 3 38 25 7.01 0.00
 5 38 25 10.52 0.00
 7 38 25 -4.84 0.00
 9 38 25 -10.04 0.00
 2 39 25 2.33 0.00
 4 39 25 4.75 0.00
 6 39 25 4.46 0.00
 8 39 25 -10.61 0.00
 1 40 25 -8.87 0.00
 3 40 25 -6.67 0.00
 5 40 25 3.99 0.00
 7 40 25 0.81 0.00
 2 41 25 -2.01 0.00
 4 41 25 -3.04 0.00
 1 42 25 -0.29 0.00
 0 0 26 79.36 0.00
 2 0 26 56.98 0.00
 4 0 26 22.18 0.00
 6 0 26 -18.00 0.00
 8 0 26 -11.73 0.00
 10 0 26 19.17 0.00
 12 0 26 4.47 0.00
 14 0 26 -7.03 0.00
 16 0 26 1.56 0.00
 18 0 26 -14.26 0.00
 20 0 26 1.22 0.00
 1 1 26 -8.48 0.00
 3 1 26 -2.39 0.00
 5 1 26 4.21 0.00
 7 1 26 0.62 0.00
 9 1 26 -7.63 0.00
 11 1 26 -0.45 0.00
 13 1 26 -0.88 0.00
 15 1 26 -5.87 0.00
 17 1 26 -8.76 0.00
 19 1 26 -8.49 0.00
 21 1 26 9.12 0.00
 0 2 26 -16.08 0.00
 2 2 26 -31.23 0.00
 4 2 26 -8.26 0.00
 6 2 26 3.77 0.00
 8 2 26 -7.53 0.00
 10 2 26 4.09 0.00
 12 2 26 -4.99 0.00
 14 2 26 -6.91 0.00
 16 2 26 -3.88 0.00
 18 2 26 -2.29 0.00
 20 2 26 15.07 0.00
 1 3 26 -1.68 0.00
 3 3 26 20.71 0.00
 5 3 26 12.43 0.00
 7 3 26 -21.24 0.00
 9 3 26 4.31 0.00
 11 3 26 3.25 0.00
 13 3 26 -3.36 0.00
 15 3 26 8.52 0.00
 17 3 26 7.34 0.00
 19 3 26 -3.72 0.00
 21 3 26 2.94 0.00
 0 4 26 -23.65 0.00
 2 4 26 11.66 0.00
 4 4 26 8.59 0.00
 6 4 26 3.49 0.00
 8 4 26 5.76 0.00
 10 4 26 -11.22 0.00
 12 4 26 0.17 0.00
 14 4 26 -2.39 0.00
 16 4 26 2.85 0.00
 18 4 26 -0.81 0.00
 20 4 26 -14.60 0.00
 1 5 26 -49.89 0.00
 3 5 26 -17.35 0.00
 5 5 26 -0.23 0.00
 7 5 26 -4.83 0.00
 9 5 26 -5.50 0.00
 11 5 26 12.20 0.00
 13 5 26 2.47 0.00
 15 5 26 -1.91 0.00
 17 5 26 8.47 0.00
 19 5 26 4.35 0.00
 21 5 26 0.93 0.00
 0 6 26 11.07 0.00
 2 6 26 11.17 0.00
 4 6 26 29.16 0.00
 6 6 26 1.48 0.00
 8 6 26 -24.16 0.00
 10 6 26 -2.29 0.00
 12 6 26 -9.38 0.00
 14 6 26 8.60 0.00
 16 6 26 -4.27 0.00
 18 6 26 -4.34 0.00
 20 6 26 7.18 0.00
 1 7 26 -7.59 0.00
 3 7 26 -18.96 0.00
 5 7 26 -6.60 0.00
 7 7 26 7.13 0.00
 9 7 26 -5.41 0.00
 11 7 26 6.22 0.00
 13 7 26 10.94 0.00
 15 7 26 2.37 0.00
 17 7 26 -0.21 0.00
 19 7 26 1.30 0.00
 21 7 26 -0.71 0.00
 0 8 26 20.02 0.00
 2 8 26 18.18 0.00
 4 8 26 19.84 0.00
 6 8 26 1.02 0.00
 8 8 26 21.52 0.00
 10 8 26 11.42 0.00
 12 8 26 -2.39 0.00
 14 8 26 8.83 0.00
 16 8 26 0.14 0.00
 18 8 26 -3.25 0.00
 20 8 26 19.59 0.00
 1 9 26 -4.15 0.00
 3 9 26 11.87 0.00
 5 9 26 6.34 0.00
 7 9 26 -8.38 0.00
 9 9 26 3.68 0.00
 11 9 26 2.78 0.00
 13 9 26 -4.93 0.00
 15 9 26 11.91 0.00
 17 9 26 -0.21 0.00
 19 9 26 -3.62 0.00
 21 9 26 -19.64 0.00
 0 10 26 7.14 0.00
 2 10 26 11.23 0.00
 4 10 26 -18.43 0.00
 6 10 26 -0.01 0.00
 8 10 26 7.00 0.00
 10 10 26 -7.06 0.00
 12 10 26 -2.85 0.00
 14 10 26 6.77 0.00
 16 10 26 6.60 0.00
 18 10 26 -1.05 0.00
 20 10 26 23.46 0.00
 1 11 26 8.89 0.00
 3 11 26 8.15 0.00
 5 11 26 -13.45 0.00
 7 11 26 -6.72 0.00
 9 11 26 4.78 0.00
 11 11 26 -5.25 0.00
 13 11 26 5.02 0.00
 15 11 26 0.73 0.00
 17 11 26 3.44 0.00
 19 11 26 7.22 0.00
 21 11 26 6.45 0.00
 0 12 26 20.96 0.00
 2 12 26 6.64 0.00
 4 12 26 -6.72 0.00
 6 12 26 5.25 0.00
 8 12 26 23.48 0.00
 10 12 26 4.72 0.00
 12 12 26 -7.14 0.00
 14 12 26 -4.90 0.00
 16 12 26 0.93 0.00
 18 12 26 -5.05 0.00
 20 12 26 5.96 0.00
 1 13 26 -6.04 0.00
 3 13 26 -1.42 0.00
 5 13 26 -4.90 0.00
 7 13 26 17.80 0.00
 9 13 26 -2.39 0.00
 11 13 26 -6.29 0.00
 13 13 26 -5.68 0.00
 15 13 26 -11.33 0.00
 17 13 26 -1.30 0.00
 19 13 26 11.85 0.00
 0 14 26 -4.51 0.00
 2 14 26 6.13 0.00
 4 14 26 -1.35 0.00
 6 14 26 -15.73 0.00
 8 14 26 -6.50 0.00
 10 14 26 -6.83 0.00
 12 14 26 2.95 0.00
 14 14 26 18.38 0.00
 16 14 26 9.80 0.00
 18 14 26 20.85 0.00
 20 14 26 19.17 0.00
 1 15 26 -3.33 0.00
 3 15 26 19.71 0.00
 5 15 26 8.00 0.00
 7 15 26 6.20 0.00
 9 15 26 -1.96 0.00
 11 15 26 -1.58 0.00
 13 15 26 10.85 0.00
 15 15 26 3.62 0.00
 17 15 26 14.47 0.00
 19 15 26 16.77 0.00
 0 16 26 -1.73 0.00
 2 16 26 2.06 0.00
 4 16 26 -2.94 0.00
 6 16 26 7.11 0.00
 8 16 26 -13.14 0.00
 10 16 26 9.40 0.00
 12 16 26 -4.83 0.00
 14 16 26 8.60 0.00
 16 16 26 3.93 0.00
 18 16 26 3.07 0.00
 20 16 26 -24.84 0.00
 1 17 26 -4.24 0.00
 3 17 26 14.13 0.00
 5 17 26 -7.41 0.00
 7 17 26 8.51 0.00
 9 17 26 -6.84 0.00
 11 17 26 -4.24 0.00
 13 17 26 -17.28 0.00
 15 17 26 -2.14 0.00
 17 17 26 5.61 0.00
 19 17 26 6.41 0.00
 0 18 26 -0.17 0.00
 2 18 26 7.09 0.00
 4 18 26 -7.30 0.00
 6 18 26 4.99 0.00
 8 18 26 -9.73 0.00
 10 18 26 0.66 0.00
 12 18 26 18.53 0.00
 14 18 26 7.70 0.00
 16 18 26 -4.19 0.00
 18 18 26 25.08 0.00
 1 19 26 2.96 0.00
 3 19 26 6.92 0.00
 5 19 26 12.53 0.00
 7 19 26 6.12 0.00
 9 19 26 -0.02 0.00
 11 19 26 -6.93 0.00
 13 19 26 -6.69 0.00
 15 19 26 -9.80 0.00
 17 19 26 -8.00 0.00
 19 19 26 -23.08 0.00
 0 20 26 16.02 0.00
 2 20 26 6.75 0.00
 4 20 26 11.24 0.00
 6 20 26 3.69 0.00
 8 20 26 -6.19 0.00
 10 20 26 -0.43 0.00
 12 20 26 4.90 0.00
 14 20 26 6.79 0.00
 16 20 26 20.85 0.00
 18 20 26 -4.74 0.00
 1 21 26 -17.43 0.00
 3 21 26 -7.42 0.00
 5 21 26 -5.50 0.00
 7 21 26 -8.56 0.00
 9 21 26 4.27 0.00
 11 21 26 2.81 0.00
 13 21 26 -0.16 0.00
 15 21 26 4.45 0.00
 17 21 26 12.94 0.00
 0 22 26 7.59 0.00
 2 22 26 20.40 0.00
 4 22 26 3.73 0.00
 6 22 26 4.69 0.00
 8 22 26 15.67 0.00
 10 22 26 -9.73 0.00
 12 22 26 -0.41 0.00
 14 22 26 0.01 0.00
 16 22 26 2.59 0.00
 18 22 26 2.60 0.00
 1 23 26 -2.57 0.00
 3 23 26 8.49 0.00
 5 23 26 -3.42 0.00
 7 23 26 -3.29 0.00
 9 23 26 -2.51 0.00
 11 23 26 2.15 0.00
 13 23 26 -5.78 0.00
 15 23 26 -20.42 0.00
 17 23 26 6.77 0.00
 0 24 26 -0.57 0.00
 2 24 26 -1.29 0.00
 4 24 26 -13.81 0.00
 6 24 26 -4.42 0.00
 8 24 26 10.22 0.00
 10 24 26 1.35 0.00
 12 24 26 3.28 0.00
 14 24 26 -14.28 0.00
 16 24 26 -1.60 0.00
 1 25 26 1.20 0.00
 3 25 26 8.30 0.00
 5 25 26 -1.65 0.00
 7 25 26 -7.51 0.00
 9 25 26 11.32 0.00
 11 25 26 -9.01 0.00
 13 25 26 5.49 0.00
 15 25 26 2.86 0.00
 17 25 26 29.53 0.00
 0 26 26 -28.55 0.00
 2 26 26 -24.03 0.00
 4 26 26 -8.35 0.00
 6 26 26 3.07 0.00
 8 26 26 -25.21 0.00
 10 26 26 -11.75 0.00
 12 26 26 -3.78 0.00
 14 26 26 3.92 0.00
 16 26 26 6.57 0.00
 1 27 26 52.34 0.00
 3 27 26 7.67 0.00
 5 27 26 1.51 0.00
 7 27 26 7.73 0.00
 9 27 26 11.73 0.00
 11 27 26 10.98 0.00
 13 27 26 3.21 0.00
 15 27 26 -2.08 0.00
 0 28 26 -3.07 0.00
 2 28 26 -4.60 0.00
 4 28 26 4.80 0.00
 6 28 26 4.45 0.00
 8 28 26 -15.14 0.00
 10 28 26 -3.44 0.00
 12 28 26 5.07 0.00
 14 28 26 0.55 0.00
 16 28 26 2.66 0.00
 1 29 26 19.44 0.00
 3 29 26 -2.44 0.00
 5 29 26 4.44 0.00
 7 29 26 -0.57 0.00
 9 29 26 8.73 0.00
 11 29 26 7.43 0.00
 13 29 26 1.52 0.00
 15 29 26 2.97 0.00
 0 30 26 -7.58 0.00
 2 30 26 -10.46 0.00
 4 30 26 -3.71 0.00
 6 30 26 6.10 0.00
 8 30 26 -0.59 0.00
 10 30 26 -11.93 0.00
 12 30 26 -6.36 0.00
 14 30 26 8.89 0.00
 1 31 26 -1.75 0.00
 3 31 26 19.79 0.00
 5 31 26 19.54 0.00
 7 31 26 3.29 0.00
 9 31 26 2.51 0.00
 11 31 26 21.01 0.00
 13 31 26 13.65 0.00
 0 32 26 18.55 0.00
 2 32 26 0.46 0.00
 4 32 26 7.55 0.00
 6 32 26 7.92 0.00
 8 32 26 18.03 0.00
 10 32 26 3.67 0.00
 12 32 26 1.27 0.00
 14 32 26 -2.20 0.00
 1 33 26 0.97 0.00
 3 33 26 21.27 0.00
 5 33 26 -8.90 0.00
 7 33 26 18.57 0.00
 9 33 26 -3.81 0.00
 11 33 26 14.49 0.00
 13 33 26 12.55 0.00
 0 34 26 4.44 0.00
 2 34 26 19.03 0.00
 4 34 26 29.26 0.00
 6 34 26 3.89 0.00
 8 34 26 1.40 0.00
 10 34 26 -16.19 0.00
 12 34 26 21.72 0.00
 1 35 26 3.11 0.00
 3 35 26 4.64 0.00
 5 35 26 10.41 0.00
 7 35 26 23.01 0.00
 9 35 26 -2.46 0.00
 11 35 26 -2.95 0.00
 0 36 26 1.24 0.00
 2 36 26 1.05 0.00
 4 36 26 12.82 0.00
 6 36 26 16.79 0.00
 8 36 26 7.75 0.00
 10 36 26 -7.36 0.00
 1 37 26 10.62 0.00
 3 37 26 0.14 0.00
 5 37 26 3.71 0.00
 7 37 26 31.64 0.00
 9 37 26 5.66 0.00
 0 38 26 18.29 0.00
 2 38 26 2.44 0.00
 4 38 26 -0.55 0.00
 6 38 26 13.40 0.00
 8 38 26 17.10 0.00
 1 39 26 20.88 0.00
 3 39 26 -1.94 0.00
 5 39 26 5.28 0.00
 7 39 26 -1.18 0.00
 0 40 26 9.05 0.00
 2 40 26 9.81 0.00
 4 40 26 -2.68 0.00
 6 40 26 4.67 0.00
 1 41 26 6.85 0.00
 3 41 26 2.40 0.00
 2 1 27 -8.32 0.00
 4 1 27 -25.90 0.00
 6 1 27 -7.69 0.00
 8 1 27 -1.49 0.00
 10 1 27 0.90 0.00
 12 1 27 1.74 0.00
 14 1 27 -13.24 0.00
 16 1 27 2.10 0.00
 18 1 27 -11.02 0.00
 20 1 27 -4.52 0.00
 1 2 27 -9.61 0.00
 3 2 27 8.37 0.00
 5 2 27 7.14 0.00
 7 2 27 5.38 0.00
 9 2 27 16.67 0.00
 11 2 27 0.63 0.00
 13 2 27 -4.45 0.00
 15 2 27 11.22 0.00
 17 2 27 -0.40 0.00
 19 2 27 6.17 0.00
 21 2 27 -0.19 0.00
 2 3 27 -4.57 0.00
 4 3 27 -6.92 0.00
 6 3 27 -16.70 0.00
 8 3 27 -0.52 0.00
 10 3 27 -8.66 0.00
 12 3 27 -2.80 0.00
 14 3 27 8.23 0.00
 16 3 27 -6.53 0.00
 18 3 27 1.75 0.00
 20 3 27 -4.34 0.00
 1 4 27 0.30 0.00
 3 4 27 10.20 0.00
 5 4 27 4.79 0.00
 7 4 27 1.56 0.00
 9 4 27 3.12 0.00
 11 4 27 -3.19 0.00
 13 4 27 6.30 0.00
 15 4 27 14.79 0.00
 17 4 27 -3.76 0.00
 19 4 27 -4.87 0.00
 21 4 27 -4.02 0.00
 2 5 27 14.68 0.00
 4 5 27 -2.27 0.00
 6 5 27 5.68 0.00
 8 5 27 -10.50 0.00
 10 5 27 -11.01 0.00
 12 5 27 -18.37 0.00
 14 5 27 -3.14 0.00
 16 5 27 -2.44 0.00
 18 5 27 4.78 0.00
 20 5 27 4.45 0.00
 1 6 27 9.06 0.00
 3 6 27 -5.26 0.00
 5 6 27 -9.58 0.00
 7 6 27 10.24 0.00
 9 6 27 10.01 0.00
 11 6 27 15.85 0.00
 13 6 27 5.61 0.00
 15 6 27 10.04 0.00
 17 6 27 5.98 0.00
 19 6 27 -11.70 0.00
 21 6 27 -14.68 0.00
 2 7 27 -2.15 0.00
 4 7 27 -4.68 0.00
 6 7 27 -12.39 0.00
 8 7 27 -18.33 0.00
 10 7 27 -11.16 0.00
 12 7 27 -6.32 0.00
 14 7 27 -5.48 0.00
 16 7 27 2.80 0.00
 18 7 27 0.74 0.00
 20 7 27 3.15 0.00
 1 8 27 -1.43 0.00
 3 8 27 14.39 0.00
 5 8 27 13.52 0.00
 7 8 27 5.26 0.00
 9 8 27 19.07 0.00
 11 8 27 -7.68 0.00
 13 8 27 11.12 0.00
 15 8 27 11.20 0.00
 17 8 27 4.22 0.00
 19 8 27 -0.25 0.00
 21 8 27 12.65 0.00
 2 9 27 -19.92 0.00
 4 9 27 -22.36 0.00
 6 9 27 8.75 0.00
 8 9 27 0.44 0.00
 10 9 27 9.41 0.00
 12 9 27 -11.30 0.00
 14 9 27 -1.79 0.00
 16 9 27 -11.32 0.00
 18 9 27 1.26 0.00
 20 9 27 -9.49 0.00
 1 10 27 -3.65 0.00
 3 10 27 -4.56 0.00
 5 10 27 -9.26 0.00
 7 10 27 -4.45 0.00
 9 10 27 2.43 0.00
 11 10 27 3.64 0.00
 13 10 27 12.00 0.00
 15 10 27 6.21 0.00
 17 10 27 -19.77 0.00
 19 10 27 -4.67 0.00
 21 10 27 1.81 0.00
 2 11 27 -9.61 0.00
 4 11 27 1.53 0.00
 6 11 27 -9.10 0.00
 8 11 27 3.06 0.00
 10 11 27 6.37 0.00
 12 11 27 -7.05 0.00
 14 11 27 2.69 0.00
 16 11 27 3.28 0.00
 18 11 27 -0.31 0.00
 20 11 27 -8.50 0.00
 1 12 27 11.22 0.00
 3 12 27 10.57 0.00
 5 12 27 11.16 0.00
 7 12 27 -4.54 0.00
 9 12 27 -0.63 0.00
 11 12 27 3.15 0.00
 13 12 27 2.39 0.00
 15 12 27 7.57 0.00
 17 12 27 4.14 0.00
 19 12 27 9.14 0.00
 2 13 27 6.66 0.00
 4 13 27 -0.14 0.00
 6 13 27 -9.29 0.00
 8 13 27 9.05 0.00
 10 13 27 -2.70 0.00
 12 13 27 15.99 0.00
 14 13 27 -9.27 0.00
 16 13 27 -5.67 0.00
 18 13 27 -2.57 0.00
 20 13 27 2.78 0.00
 1 14 27 16.09 0.00
 3 14 27 -9.26 0.00
 5 14 27 -12.05 0.00
 7 14 27 -5.94 0.00
 9 14 27 -8.33 0.00
 11 14 27 -12.84 0.00
 13 14 27 -20.45 0.00
 15 14 27 -0.18 0.00
 17 14 27 -0.83 0.00
 19 14 27 6.82 0.00
 2 15 27 2.46 0.00
 4 15 27 -1.54 0.00
 6 15 27 -5.54 0.00
 8 15 27 2.93 0.00
 10 15 27 7.75 0.00
 12 15 27 -2.48 0.00
 14 15 27 -11.86 0.00
 16 15 27 -2.41 0.00
 18 15 27 1.82 0.00
 20 15 27 -5.54 0.00
 1 16 27 -6.34 0.00
 3 16 27 -10.57 0.00
 5 16 27 -20.27 0.00
 7 16 27 -0.18 0.00
 9 16 27 -1.80 0.00
 11 16 27 11.62 0.00
 13 16 27 3.81 0.00
 15 16 27 -7.07 0.00
 17 16 27 -10.39 0.00
 19 16 27 6.83 0.00
 2 17 27 -5.80 0.00
 4 17 27 0.64 0.00
 6 17 27 8.18 0.00
 8 17 27 -6.86 0.00
 10 17 27 12.63 0.00
 12 17 27 5.41 0.00
 14 17 27 -3.66 0.00
 16 17 27 15.66 0.00
 18 17 27 -10.34 0.00
 1 18 27 -2.23 0.00
 3 18 27 11.14 0.00
 5 18 27 9.87 0.00
 7 18 27 -11.92 0.00
 9 18 27 -11.51 0.00
 11 18 27 5.30 0.00
 13 18 27 -2.68 0.00
 15 18 27 -13.21 0.00
 17 18 27 -3.06 0.00
 19 18 27 -16.47 0.00
 2 19 27 -2.74 0.00
 4 19 27 -1.47 0.00
 6 19 27 6.70 0.00
 8 19 27 -9.07 0.00
 10 19 27 10.79 0.00
 12 19 27 -12.22 0.00
 14 19 27 -1.78 0.00
 16 19 27 -6.66 0.00
 18 19 27 -20.51 0.00
 1 20 27 0.72 0.00
 3 20 27 1.56 0.00
 5 20 27 -4.97 0.00
 7 20 27 -15.13 0.00
 9 20 27 10.56 0.00
 11 20 27 -6.60 0.00
 13 20 27 -9.73 0.00
 15 20 27 11.96 0.00
 17 20 27 1.81 0.00
 19 20 27 -11.86 0.00
 2 21 27 1.31 0.00
 4 21 27 -4.14 0.00
 6 21 27 9.48 0.00
 8 21 27 -1.98 0.00
 10 21 27 -2.66 0.00
 12 21 27 25.12 0.00
 14 21 27 12.36 0.00
 16 21 27 -10.58 0.00
 18 21 27 -1.89 0.00
 1 22 27 -7.44 0.00
 3 22 27 -5.67 0.00
 5 22 27 -1.87 0.00
 7 22 27 3.91 0.00
 9 22 27 5.80 0.00
 11 22 27 -5.63 0.00
 13 22 27 2.33 0.00
 15 22 27 3.19 0.00
 17 22 27 -16.45 0.00
 2 23 27 -7.68 0.00
 4 23 27 6.43 0.00
 6 23 27 -3.84 0.00
 8 23 27 -3.68 0.00
 10 23 27 -15.63 0.00
 12 23 27 -4.63 0.00
 14 23 27 6.09 0.00
 16 23 27 -11.20 0.00
 18 23 27 0.76 0.00
 1 24 27 -4.88 0.00
 3 24 27 -18.16 0.00
 5 24 27 -8.29 0.00
 7 24 27 5.39 0.00
 9 24 27 -1.24 0.00
 11 24 27 10.79 0.00
 13 24 27 -7.66 0.00
 15 24 27 -12.20 0.00
 17 24 27 23.11 0.00
 2 25 27 2.53 0.00
 4 25 27 -1.21 0.00
 6 25 27 -0.22 0.00
 8 25 27 -5.04 0.00
 10 25 27 -8.03 0.00
 12 25 27 -2.67 0.00
 14 25 27 4.39 0.00
 16 25 27 3.32 0.00
 1 26 27 8.28 0.00
 3 26 27 -2.78 0.00
 5 26 27 -4.25 0.00
 7 26 27 7.71 0.00
 9 26 27 -1.83 0.00
 11 26 27 0.44 0.00
 13 26 27 4.55 0.00
 15 26 27 1.59 0.00
 2 27 27 -6.06 0.00
 4 27 27 -9.19 0.00
 6 27 27 -8.68 0.00
 8 27 27 6.39 0.00
 10 27 27 -2.37 0.00
 12 27 27 -11.83 0.00
 14 27 27 -14.81 0.00
 16 27 27 -5.97 0.00
 1 28 27 4.62 0.00
 3 28 27 2.72 0.00
 5 28 27 9.28 0.00
 7 28 27 4.47 0.00
 9 28 27 2.18 0.00
 11 28 27 3.80 0.00
 13 28 27 5.28 0.00
 15 28 27 1.93 0.00
 2 29 27 -9.92 0.00
 4 29 27 -5.82 0.00
 6 29 27 5.74 0.00
 8 29 27 10.38 0.00
 10 29 27 -15.89 0.00
 12 29 27 10.89 0.00
 14 29 27 5.52 0.00
 1 30 27 -0.97 0.00
 3 30 27 -13.99 0.00
 5 30 27 -6.33 0.00
 7 30 27 2.92 0.00
 9 30 27 14.74 0.00
 11 30 27 11.52 0.00
 13 30 27 -2.33 0.00
 15 30 27 1.48 0.00
 2 31 27 10.10 0.00
 4 31 27 3.93 0.00
 6 31 27 -6.89 0.00
 8 31 27 1.55 0.00
 10 31 27 -3.84 0.00
 12 31 27 6.72 0.00
 14 31 27 -1.38 0.00
 1 32 27 11.64 0.00
 3 32 27 6.86 0.00
 5 32 27 14.06 0.00
 7 32 27 -10.70 0.00
 9 32 27 -4.95 0.00
 11 32 27 -0.32 0.00
 13 32 27 16.65 0.00
 2 33 27 0.94 0.00
 4 33 27 -7.75 0.00
 6 33 27 1.63 0.00
 8 33 27 -5.28 0.00
 10 33 27 2.04 0.00
 12 33 27 -32.20 0.00
 1 34 27 -2.78 0.00
 3 34 27 -2.40 0.00
 5 34 27 -0.92 0.00
 7 34 27 14.52 0.00
 9 34 27 4.46 0.00
 11 34 27 8.98 0.00
 2 35 27 -0.29 0.00
 4 35 27 -6.17 0.00
 6 35 27 16.56 0.00
 8 35 27 -2.07 0.00
 10 35 27 -14.16 0.00
 1 36 27 10.35 0.00
 3 36 27 5.95 0.00
 5 36 27 4.00 0.00
 7 36 27 3.22 0.00
 9 36 27 7.68 0.00
 2 37 27 -3.74 0.00
 4 37 27 8.90 0.00
 6 37 27 13.51 0.00
 8 37 27 -17.17 0.00
 1 38 27 -26.23 0.00
 3 38 27 0.98 0.00
 5 38 27 13.35 0.00
 7 38 27 7.22 0.00
 2 39 27 -15.32 0.00
 4 39 27 -1.15 0.00
 6 39 27 16.80 0.00
 1 40 27 -6.06 0.00
 3 40 27 -5.23 0.00
 5 40 27 15.94 0.00
 2 41 27 -22.42 0.00
 0 0 28 78.30 0.00
 2 0 28 36.06 0.00
 4 0 28 18.43 0.00
 6 0 28 10.35 0.00
 8 0 28 -7.54 0.00
 10 0 28 -3.17 0.00
 12 0 28 13.01 0.00
 14 0 28 -14.13 0.00
 16 0 28 -11.92 0.00
 18 0 28 -15.04 0.00
 20 0 28 4.01 0.00
 1 1 28 -7.43 0.00
 3 1 28 1.72 0.00
 5 1 28 -9.82 0.00
 7 1 28 0.83 0.00
 9 1 28 -6.09 0.00
 11 1 28 4.05 0.00
 13 1 28 4.69 0.00
 15 1 28 2.72 0.00
 17 1 28 -15.87 0.00
 19 1 28 -1.85 0.00
 21 1 28 -17.47 0.00
 0 2 28 -39.40 0.00
 2 2 28 1.45 0.00
 4 2 28 -2.38 0.00
 6 2 28 -5.62 0.00
 8 2 28 8.97 0.00
 10 2 28 12.19 0.00
 12 2 28 1.48 0.00
 14 2 28 -11.58 0.00
 16 2 28 22.63 0.00
 18 2 28 4.01 0.00
 20 2 28 -1.05 0.00
 1 3 28 -9.39 0.00
 3 3 28 10.76 0.00
 5 3 28 -8.72 0.00
 7 3 28 1.24 0.00
 9 3 28 -7.21 0.00
 11 3 28 -0.07 0.00
 13 3 28 -21.31 0.00
 15 3 28 -1.49 0.00
 17 3 28 -10.05 0.00
 19 3 28 8.71 0.00
 21 3 28 10.17 0.00
 0 4 28 -10.91 0.00
 2 4 28 -31.30 0.00
 4 4 28 0.53 0.00
 6 4 28 -4.16 0.00
 8 4 28 3.43 0.00
 10 4 28 -1.43 0.00
 12 4 28 -17.04 0.00
 14 4 28 -9.85 0.00
 16 4 28 -0.39 0.00
 18 4 28 10.07 0.00
 20 4 28 8.81 0.00
 1 5 28 5.42 0.00
 3 5 28 -20.29 0.00
 5 5 28 -6.97 0.00
 7 5 28 3.55 0.00
 9 5 28 3.56 0.00
 11 5 28 9.21 0.00
 13 5 28 9.50 0.00
 15 5 28 -1.01 0.00
 17 5 28 8.79 0.00
 19 5 28 2.93 0.00
 21 5 28 -9.50 0.00
 0 6 28 -3.78 0.00
 2 6 28 8.57 0.00
 4 6 28 1.46 0.00
 6 6 28 16.21 0.00
 8 6 28 4.49 0.00
 10 6 28 11.83 0.00
 12 6 28 4.00 0.00
 14 6 28 -5.48 0.00
 16 6 28 -0.64 0.00
 18 6 28 -1.09 0.00
 20 6 28 -10.59 0.00
 1 7 28 -9.80 0.00
 3 7 28 -1.15 0.00
 5 7 28 -0.36 0.00
 7 7 28 -9.43 0.00
 9 7 28 6.33 0.00
 11 7 28 15.08 0.00
 13 7 28 11.96 0.00
 15 7 28 6.30 0.00
 17 7 28 -6.57 0.00
 19 7 28 -20.80 0.00
 21 7 28 -5.90 0.00
 0 8 28 -0.13 0.00
 2 8 28 8.39 0.00
 4 8 28 3.47 0.00
 6 8 28 3.63 0.00
 8 8 28 -3.92 0.00
 10 8 28 9.90 0.00
 12 8 28 -5.86 0.00
 14 8 28 -11.54 0.00
 16 8 28 6.61 0.00
 18 8 28 -14.11 0.00
 20 8 28 -14.76 0.00
 1 9 28 12.95 0.00
 3 9 28 4.81 0.00
 5 9 28 -6.85 0.00
 7 9 28 -10.95 0.00
 9 9 28 12.06 0.00
 11 9 28 22.42 0.00
 13 9 28 8.47 0.00
 15 9 28 14.46 0.00
 17 9 28 12.19 0.00
 19 9 28 6.25 0.00
 0 10 28 5.34 0.00
 2 10 28 -2.82 0.00
 4 10 28 1.06 0.00
 6 10 28 -3.37 0.00
 8 10 28 7.60 0.00
 10 10 28 6.19 0.00
 12 10 28 6.12 0.00
 14 10 28 -1.88 0.00
 16 10 28 9.65 0.00
 18 10 28 -12.66 0.00
 20 10 28 -12.87 0.00
 1 11 28 -3.94 0.00
 3 11 28 -13.87 0.00
 5 11 28 -0.62 0.00
 7 11 28 -3.29 0.00
 9 11 28 5.02 0.00
 11 11 28 -9.04 0.00
 13 11 28 4.14 0.00
 15 11 28 -1.13 0.00
 17 11 28 13.09 0.00
 19 11 28 -8.34 0.00
 0 12 28 -4.35 0.00
 2 12 28 10.90 0.00
 4 12 28 -6.18 0.00
 6 12 28 -1.99 0.00
 8 12 28 19.27 0.00
 10 12 28 12.50 0.00
 12 12 28 10.77 0.00
 14 12 28 -13.19 0.00
 16 12 28 -2.23 0.00
 18 12 28 -13.44 0.00
 20 12 28 -6.15 0.00
 1 13 28 -8.47 0.00
 3 13 28 1.37 0.00
 5 13 28 5.28 0.00
 7 13 28 -2.89 0.00
 9 13 28 10.27 0.00
 11 13 28 12.09 0.00
 13 13 28 -1.55 0.00
 15 13 28 0.44 0.00
 17 13 28 5.80 0.00
 19 13 28 -18.24 0.00
 0 14 28 11.11 0.00
 2 14 28 1.40 0.00
 4 14 28 0.56 0.00
 6 14 28 -14.44 0.00
 8 14 28 3.40 0.00
 10 14 28 1.61 0.00
 12 14 28 12.01 0.00
 14 14 28 6.26 0.00
 16 14 28 10.10 0.00
 18 14 28 -3.68 0.00
 20 14 28 -9.90 0.00
 1 15 28 2.17 0.00
 3 15 28 -0.48 0.00
 5 15 28 -24.24 0.00
 7 15 28 7.74 0.00
 9 15 28 3.82 0.00
 11 15 28 16.75 0.00
 13 15 28 -9.47 0.00
 15 15 28 -5.38 0.00
 17 15 28 6.58 0.00
 19 15 28 -6.34 0.00
 0 16 28 0.18 0.00
 2 16 28 -6.02 0.00
 4 16 28 11.31 0.00
 6 16 28 16.60 0.00
 8 16 28 13.08 0.00
 10 16 28 0.56 0.00
 12 16 28 21.82 0.00
 14 16 28 8.51 0.00
 16 16 28 2.56 0.00
 18 16 28 7.13 0.00
 1 17 28 9.16 0.00
 3 17 28 0.30 0.00
 5 17 28 9.11 0.00
 7 17 28 12.31 0.00
 9 17 28 -8.98 0.00
 11 17 28 -1.83 0.00
 13 17 28 -0.93 0.00
 15 17 28 4.34 0.00
 17 17 28 16.84 0.00
 19 17 28 -6.74 0.00
 0 18 28 -1.35 0.00
 2 18 28 -6.00 0.00
 4 18 28 2.35 0.00
 6 18 28 -6.68 0.00
 8 18 28 3.80 0.00
 10 18 28 7.68 0.00
 12 18 28 3.08 0.00
 14 18 28 -3.90 0.00
 16 18 28 10.86 0.00
 18 18 28 2.63 0.00
 1 19 28 -2.84 0.00
 3 19 28 16.08 0.00
 5 19 28 14.22 0.00
 7 19 28 3.27 0.00
 9 19 28 -5.80 0.00
 11 19 28 -4.78 0.00
 13 19 28 -2.90 0.00
 15 19 28 1.65 0.00
 17 19 28 -6.54 0.00
 19 19 28 3.25 0.00
 0 20 28 11.18 0.00
 2 20 28 -4.17 0.00
 4 20 28 -8.00 0.00
 6 20 28 4.16 0.00
 8 20 28 4.90 0.00
 10 20 28 -3.41 0.00
 12 20 28 2.83 0.00
 14 20 28 -4.13 0.00
 16 20 28 8.09 0.00
 18 20 28 -2.85 0.00
 1 21 28 0.86 0.00
 3 21 28 -3.56 0.00
 5 21 28 -4.90 0.00
 7 21 28 -10.70 0.00
 9 21 28 3.11 0.00
 11 21 28 0.01 0.00
 13 21 28 0.15 0.00
 15 21 28 0.18 0.00
 17 21 28 -13.64 0.00
 0 22 28 -9.10 0.00
 2 22 28 -5.90 0.00
 4 22 28 6.47 0.00
 6 22 28 6.95 0.00
 8 22 28 -1.30 0.00
 10 22 28 0.78 0.00
 12 22 28 -3.80 0.00
 14 22 28 -3.28 0.00
 16 22 28 -11.41 0.00
 18 22 28 2.24 0.00
 1 23 28 1.11 0.00
 3 23 28 -16.55 0.00
 5 23 28 4.18 0.00
 7 23 28 -0.55 0.00
 9 23 28 3.32 0.00
 11 23 28 10.44 0.00
 13 23 28 0.92 0.00
 15 23 28 16.18 0.00
 17 23 28 -13.60 0.00
 0 24 28 -9.21 0.00
 2 24 28 6.82 0.00
 4 24 28 -3.34 0.00
 6 24 28 -6.56 0.00
 8 24 28 -0.89 0.00
 10 24 28 -3.13 0.00
 12 24 28 7.03 0.00
 14 24 28 7.92 0.00
 16 24 28 5.72 0.00
 1 25 28 -3.28 0.00
 3 25 28 -11.46 0.00
 5 25 28 -11.17 0.00
 7 25 28 -12.20 0.00
 9 25 28 -16.00 0.00
 11 25 28 4.19 0.00
 13 25 28 -4.52 0.00
 15 25 28 -6.62 0.00
 17 25 28 14.37 0.00
 0 26 28 -3.02 0.00
 2 26 28 15.85 0.00
 4 26 28 -0.42 0.00
 6 26 28 -1.99 0.00
 8 26 28 10.41 0.00
 10 26 28 -12.54 0.00
 12 26 28 -5.79 0.00
 14 26 28 7.46 0.00
 16 26 28 11.30 0.00
 1 27 28 -51.06 0.00
 3 27 28 1.05 0.00
 5 27 28 -3.18 0.00
 7 27 28 -5.96 0.00
 9 27 28 0.55 0.00
 11 27 28 -10.01 0.00
 13 27 28 -2.67 0.00
 15 27 28 0.28 0.00
 0 28 28 4.61 0.00
 2 28 28 8.62 0.00
 4 28 28 8.53 0.00
 6 28 28 -13.78 0.00
 8 28 28 -5.41 0.00
 10 28 28 5.24 0.00
 12 28 28 -9.26 0.00
 14 28 28 5.12 0.00
 1 29 28 -46.10 0.00
 3 29 28 9.61 0.00
 5 29 28 -11.08 0.00
 7 29 28 2.93 0.00
 9 29 28 -8.13 0.00
 11 29 28 -17.01 0.00
 13 29 28 -1.80 0.00
 15 29 28 1.03 0.00
 0 30 28 -12.59 0.00
 2 30 28 8.83 0.00
 4 30 28 7.11 0.00
 6 30 28 3.35 0.00
 8 30 28 2.46 0.00
 10 30 28 -0.09 0.00
 12 30 28 -3.45 0.00
 14 30 28 -0.46 0.00
 1 31 28 -6.71 0.00
 3 31 28 -13.42 0.00
 5 31 28 -15.00 0.00
 7 31 28 -1.48 0.00
 9 31 28 -20.36 0.00
 11 31 28 12.65 0.00
 13 31 28 -9.43 0.00
 0 32 28 -13.07 0.00
 2 32 28 -5.21 0.00
 4 32 28 2.70 0.00
 6 32 28 4.24 0.00
 8 32 28 -4.77 0.00
 10 32 28 3.22 0.00
 12 32 28 -2.74 0.00
 1 33 28 -18.64 0.00
 3 33 28 3.61 0.00
 5 33 28 -1.27 0.00
 7 33 28 -9.23 0.00
 9 33 28 -8.46 0.00
 11 33 28 -12.28 0.00
 0 34 28 0.90 0.00
 2 34 28 2.39 0.00
 4 34 28 0.92 0.00
 6 34 28 -17.81 0.00
 8 34 28 -0.73 0.00
 10 34 28 4.90 0.00
 12 34 28 3.48 0.00
 1 35 28 -5.06 0.00
 3 35 28 1.42 0.00
 5 35 28 -9.30 0.00
 7 35 28 -17.11 0.00
 9 35 28 -2.23 0.00
 11 35 28 -18.70 0.00
 0 36 28 -1.43 0.00
 2 36 28 -9.67 0.00
 4 36 28 -2.78 0.00
 6 36 28 7.57 0.00
 8 36 28 13.35 0.00
 10 36 28 23.40 0.00
 1 37 28 6.58 0.00
 3 37 28 5.40 0.00
 5 37 28 0.45 0.00
 7 37 28 -10.65 0.00
 9 37 28 -7.59 0.00
 0 38 28 -16.55 0.00
 2 38 28 -2.25 0.00
 4 38 28 -2.45 0.00
 6 38 28 -6.00 0.00
 8 38 28 9.84 0.00
 1 39 28 21.81 0.00
 3 39 28 9.21 0.00
 5 39 28 2.47 0.00
 0 40 28 -9.54 0.00
 2 40 28 2.49 0.00
 4 40 28 -5.58 0.00
 1 41 28 -15.24 0.00
 2 1 29 -17.58 0.00
 4 1 29 -1.43 0.00
 6 1 29 -15.10 0.00
 8 1 29 -5.14 0.00
 10 1 29 10.20 0.00
 12 1 29 -18.80 0.00
 14 1 29 11.93 0.00
 16 1 29 2.44 0.00
 18 1 29 -7.22 0.00
 20 1 29 -10.14 0.00
 1 2 29 -12.47 0.00
 3 2 29 -4.01 0.00
 5 2 29 13.52 0.00
 7 2 29 -14.27 0.00
 9 2 29 -2.92 0.00
 11 2 29 -5.40 0.00
 13 2 29 -11.60 0.00
 15 2 29 12.89 0.00
 17 2 29 4.99 0.00
 19 2 29 19.74 0.00
 21 2 29 0.95 0.00
 2 3 29 17.34 0.00
 4 3 29 6.66 0.00
 6 3 29 11.57 0.00
 8 3 29 -3.04 0.00
 10 3 29 6.82 0.00
 12 3 29 -5.91 0.00
 14 3 29 6.34 0.00
 16 3 29 -2.64 0.00
 18 3 29 -7.31 0.00
 20 3 29 -6.81 0.00
 1 4 29 10.63 0.00
 3 4 29 0.25 0.00
 5 4 29 -3.31 0.00
 7 4 29 4.75 0.00
 9 4 29 7.12 0.00
 11 4 29 1.06 0.00
 13 4 29 -3.58 0.00
 15 4 29 8.94 0.00
 17 4 29 -4.63 0.00
 19 4 29 2.77 0.00
 21 4 29 -4.81 0.00
 2 5 29 9.52 0.00
 4 5 29 24.37 0.00
 6 5 29 13.13 0.00
 8 5 29 -6.37 0.00
 10 5 29 -2.62 0.00
 12 5 29 -11.50 0.00
 14 5 29 -1.55 0.00
 16 5 29 -10.92 0.00
 18 5 29 19.41 0.00
 20 5 29 8.47 0.00
 1 6 29 -8.77 0.00
 3 6 29 -1.71 0.00
 5 6 29 -7.00 0.00
 7 6 29 2.12 0.00
 9 6 29 -9.61 0.00
 11 6 29 -0.98 0.00
 13 6 29 -2.37 0.00
 15 6 29 -1.36 0.00
 17 6 29 16.29 0.00
 19 6 29 5.81 0.00
 21 6 29 -5.34 0.00
 2 7 29 -8.88 0.00
 4 7 29 -12.68 0.00
 6 7 29 10.90 0.00
 8 7 29 -9.48 0.00
 10 7 29 -10.78 0.00
 12 7 29 11.34 0.00
 14 7 29 -18.29 0.00
 16 7 29 -7.83 0.00
 18 7 29 -3.45 0.00
 20 7 29 -4.80 0.00
 1 8 29 7.14 0.00
 3 8 29 8.96 0.00
 5 8 29 24.15 0.00
 7 8 29 7.45 0.00
 9 8 29 -0.89 0.00
 11 8 29 -3.20 0.00
 13 8 29 0.99 0.00
 15 8 29 1.66 0.00
 17 8 29 9.13 0.00
 19 8 29 1.12 0.00
 2 9 29 -2.36 0.00
 4 9 29 -10.06 0.00
 6 9 29 -11.36 0.00
 8 9 29 6.60 0.00
 10 9 29 2.87 0.00
 12 9 29 -8.57 0.00
 14 9 29 -11.02 0.00
 16 9 29 3.95 0.00
 18 9 29 -0.41 0.00
 20 9 29 -0.12 0.00
 1 10 29 0.79 0.00
 3 10 29 0.29 0.00
 5 10 29 -0.13 0.00
 7 10 29 -17.42 0.00
 9 10 29 -6.42 0.00
 11 10 29 -3.25 0.00
 13 10 29 13.84 0.00
 15 10 29 8.73 0.00
 17 10 29 13.73 0.00
 19 10 29 9.87 0.00
 2 11 29 6.28 0.00
 4 11 29 2.42 0.00
 6 11 29 8.25 0.00
 8 11 29 10.02 0.00
 10 11 29 8.84 0.00
 12 11 29 5.69 0.00
 14 11 29 1.18 0.00
 16 11 29 -4.40 0.00
 18 11 29 4.50 0.00
 20 11 29 -15.09 0.00
 1 12 29 16.90 0.00
 3 12 29 14.63 0.00
 5 12 29 9.31 0.00
 7 12 29 2.72 0.00
 9 12 29 10.95 0.00
 11 12 29 -12.61 0.00
 13 12 29 -3.44 0.00
 15 12 29 -7.28 0.00
 17 12 29 -10.26 0.00
 19 12 29 -3.63 0.00
 2 13 29 11.03 0.00
 4 13 29 16.79 0.00
 6 13 29 -2.69 0.00
 8 13 29 4.04 0.00
 10 13 29 3.45 0.00
 12 13 29 16.01 0.00
 14 13 29 -13.01 0.00
 16 13 29 -12.51 0.00
 18 13 29 -2.21 0.00
 20 13 29 7.43 0.00
 1 14 29 15.68 0.00
 3 14 29 14.32 0.00
 5 14 29 4.56 0.00
 7 14 29 9.85 0.00
 9 14 29 1.62 0.00
 11 14 29 -1.86 0.00
 13 14 29 -2.17 0.00
 15 14 29 2.61 0.00
 17 14 29 11.63 0.00
 19 14 29 6.71 0.00
 2 15 29 2.79 0.00
 4 15 29 -8.57 0.00
 6 15 29 1.13 0.00
 8 15 29 7.10 0.00
 10 15 29 6.19 0.00
 12 15 29 13.20 0.00
 14 15 29 -1.58 0.00
 16 15 29 5.65 0.00
 18 15 29 -8.76 0.00
 1 16 29 8.38 0.00
 3 16 29 -3.62 0.00
 5 16 29 3.96 0.00
 7 16 29 7.26 0.00
 9 16 29 10.23 0.00
 11 16 29 10.95 0.00
 13 16 29 -15.25 0.00
 15 16 29 -16.66 0.00
 17 16 29 -5.96 0.00
 19 16 29 -7.34 0.00
 2 17 29 9.99 0.00
 4 17 29 -11.23 0.00
 6 17 29 -3.05 0.00
 8 17 29 -4.29 0.00
 10 17 29 6.90 0.00
 12 17 29 3.40 0.00
 14 17 29 -3.94 0.00
 16 17 29 5.94 0.00
 18 17 29 -10.98 0.00
 1 18 29 3.20 0.00
 3 18 29 -2.62 0.00
 5 18 29 -0.02 0.00
 7 18 29 3.39 0.00
 9 18 29 -5.03 0.00
 11 18 29 6.06 0.00
 13 18 29 10.31 0.00
 15 18 29 -5.81 0.00
 17 18 29 2.24 0.00
 19 18 29 1.38 0.00
 2 19 29 -3.06 0.00
 4 19 29 -1.17 0.00
 6 19 29 -4.39 0.00
 8 19 29 -17.00 0.00
 10 19 29 -1.63 0.00
 12 19 29 0.92 0.00
 14 19 29 -7.95 0.00
 16 19 29 -6.45 0.00
 18 19 29 -18.24 0.00
 1 20 29 3.58 0.00
 3 20 29 12.99 0.00
 5 20 29 -4.46 0.00
 7 20 29 -4.49 0.00
 9 20 29 -23.73 0.00
 11 20 29 -13.18 0.00
 13 20 29 2.68 0.00
 15 20 29 11.34 0.00
 17 20 29 -14.32 0.00
 2 21 29 -2.87 0.00
 4 21 29 -4.83 0.00
 6 21 29 -1.68 0.00
 8 21 29 -4.75 0.00
 10 21 29 12.08 0.00
 12 21 29 14.47 0.00
 14 21 29 6.57 0.00
 16 21 29 25.76 0.00
 18 21 29 2.71 0.00
 1 22 29 -15.01 0.00
 3 22 29 -10.36 0.00
 5 22 29 6.63 0.00
 7 22 29 -9.82 0.00
 9 22 29 -20.97 0.00
 11 22 29 -13.03 0.00
 13 22 29 -11.71 0.00
 15 22 29 -0.59 0.00
 17 22 29 3.15 0.00
 2 23 29 0.76 0.00
 4 23 29 4.16 0.00
 6 23 29 1.33 0.00
 8 23 29 -16.96 0.00
 10 23 29 0.60 0.00
 12 23 29 6.91 0.00
 14 23 29 8.15 0.00
 16 23 29 -0.53 0.00
 1 24 29 -12.99 0.00
 3 24 29 1.34 0.00
 5 24 29 -1.85 0.00
 7 24 29 -6.91 0.00
 9 24 29 3.17 0.00
 11 24 29 -6.34 0.00
 13 24 29 -6.57 0.00
 15 24 29 -8.60 0.00
 17 24 29 -2.12 0.00
 2 25 29 -19.62 0.00
 4 25 29 4.67 0.00
 6 25 29 6.38 0.00
 8 25 29 -5.15 0.00
 10 25 29 -4.32 0.00
 12 25 29 4.93 0.00
 14 25 29 5.78 0.00
 16 25 29 -8.90 0.00
 1 26 29 13.51 0.00
 3 26 29 8.58 0.00
 5 26 29 -20.92 0.00
 7 26 29 -19.05 0.00
 9 26 29 -11.33 0.00
 11 26 29 11.46 0.00
 13 26 29 -2.66 0.00
 15 26 29 -3.38 0.00
 2 27 29 -30.86 0.00
 4 27 29 -8.64 0.00
 6 27 29 -3.36 0.00
 8 27 29 10.84 0.00
 10 27 29 -3.23 0.00
 12 27 29 -11.73 0.00
 14 27 29 0.94 0.00
 1 28 29 8.48 0.00
 3 28 29 -11.66 0.00
 5 28 29 -9.83 0.00
 7 28 29 -1.55 0.00
 9 28 29 -9.47 0.00
 11 28 29 3.07 0.00
 13 28 29 16.93 0.00
 15 28 29 13.17 0.00
 2 29 29 20.37 0.00
 4 29 29 9.82 0.00
 6 29 29 -1.42 0.00
 8 29 29 -13.54 0.00
 10 29 29 14.20 0.00
 12 29 29 4.95 0.00
 14 29 29 -8.91 0.00
 1 30 29 -13.48 0.00
 3 30 29 -9.68 0.00
 5 30 29 -3.40 0.00
 7 30 29 2.27 0.00
 9 30 29 -13.86 0.00
 11 30 29 -2.17 0.00
 13 30 29 0.14 0.00
 2 31 29 -1.78 0.00
 4 31 29 11.42 0.00
 6 31 29 10.43 0.00
 8 31 29 -9.35 0.00
 10 31 29 18.29 0.00
 12 31 29 17.85 0.00
 1 32 29 4.75 0.00
 3 32 29 1.25 0.00
 5 32 29 -2.94 0.00
 7 32 29 0.52 0.00
 9 32 29 -11.31 0.00
 11 32 29 -4.08 0.00
 13 32 29 4.77 0.00
 2 33 29 13.15 0.00
 4 33 29 -4.07 0.00
 6 33 29 27.55 0.00
 8 33 29 2.65 0.00
 10 33 29 4.87 0.00
 12 33 29 -0.95 0.00
 1 34 29 20.33 0.00
 3 34 29 20.14 0.00
 5 34 29 -22.28 0.00
 7 34 29 -15.26 0.00
 9 34 29 12.57 0.00
 11 34 29 24.85 0.00
 2 35 29 -1.55 0.00
 4 35 29 6.36 0.00
 6 35 29 13.28 0.00
 8 35 29 -0.12 0.00
 10 35 29 -13.17 0.00
 1 36 29 4.87 0.00
 3 36 29 -1.14 0.00
 5 36 29 0.22 0.00
 7 36 29 4.08 0.00
 9 36 29 15.42 0.00
 2 37 29 1.18 0.00
 4 37 29 9.89 0.00
 6 37 29 18.11 0.00
 8 37 29 -6.80 0.00
 1 38 29 -2.89 0.00
 3 38 29 2.93 0.00
 5 38 29 7.44 0.00
 7 38 29 -6.68 0.00
 2 39 29 -2.20 0.00
 4 39 29 8.86 0.00
 6 39 29 2.64 0.00
 1 40 29 10.24 0.00
 3 40 29 6.73 0.00
 0 0 30 62.92 0.00
 2 0 30 55.97 0.00
 4 0 30 26.19 0.00
 6 0 30 -1.62 0.00
 8 0 30 8.30 0.00
 10 0 30 14.15 0.00
 12 0 30 12.87 0.00
 14 0 30 -4.63 0.00
 16 0 30 -2.16 0.00
 18 0 30 -8.28 0.00
 20 0 30 4.31 0.00
 1 1 30 13.19 0.00
 3 1 30 -1.82 0.00
 5 1 30 2.60 0.00
 7 1 30 1.40 0.00
 9 1 30 -6.37 0.00
 11 1 30 6.82 0.00
 13 1 30 -5.04 0.00
 15 1 30 -3.33 0.00
 17 1 30 -0.64 0.00
 19 1 30 -20.21 0.00
 21 1 30 -13.67 0.00
 0 2 30 -45.24 0.00
 2 2 30 -36.26 0.00
 4 2 30 -23.88 0.00
 6 2 30 -0.81 0.00
 8 2 30 -7.71 0.00
 10 2 30 19.02 0.00
 12 2 30 10.92 0.00
 14 2 30 -0.43 0.00
 16 2 30 11.46 0.00
 18 2 30 12.62 0.00
 20 2 30 -3.63 0.00
 1 3 30 10.69 0.00
 3 3 30 2.81 0.00
 5 3 30 -1.36 0.00
 7 3 30 -7.88 0.00
 9 3 30 6.14 0.00
 11 3 30 4.21 0.00
 13 3 30 -0.28 0.00
 15 3 30 -7.01 0.00
 17 3 30 5.87 0.00
 19 3 30 -5.48 0.00
 21 3 30 3.03 0.00
 0 4 30 -24.94 0.00
 2 4 30 8.38 0.00
 4 4 30 24.24 0.00
 6 4 30 5.65 0.00
 8 4 30 12.02 0.00
 10 4 30 -2.20 0.00
 12 4 30 10.44 0.00
 14 4 30 -3.28 0.00
 16 4 30 7.37 0.00
 18 4 30 1.24 0.00
 20 4 30 -32.85 0.00
 1 5 30 -11.67 0.00
 3 5 30 -6.25 0.00
 5 5 30 -16.27 0.00
 7 5 30 -15.63 0.00
 9 5 30 -1.52 0.00
 11 5 30 4.47 0.00
 13 5 30 0.13 0.00
 15 5 30 -18.42 0.00
 17 5 30 12.25 0.00
 19 5 30 11.85 0.00
 0 6 30 -6.74 0.00
 2 6 30 -0.38 0.00
 4 6 30 10.81 0.00
 6 6 30 17.67 0.00
 8 6 30 -2.84 0.00
 10 6 30 7.94 0.00
 12 6 30 5.18 0.00
 14 6 30 11.74 0.00
 16 6 30 11.65 0.00
 18 6 30 5.38 0.00
 20 6 30 -8.62 0.00
 1 7 30 -2.09 0.00
 3 7 30 -8.83 0.00
 5 7 30 -10.62 0.00
 7 7 30 0.11 0.00
 9 7 30 -6.27 0.00
 11 7 30 -7.47 0.00
 13 7 30 17.09 0.00
 15 7 30 -6.87 0.00
 17 7 30 0.38 0.00
 19 7 30 -10.27 0.00
 0 8 30 11.92 0.00
 2 8 30 10.85 0.00
 4 8 30 14.13 0.00
 6 8 30 9.11 0.00
 8 8 30 16.51 0.00
 10 8 30 11.86 0.00
 12 8 30 -0.66 0.00
 14 8 30 -4.52 0.00
 16 8 30 -1.82 0.00
 18 8 30 10.41 0.00
 20 8 30 -9.95 0.00
 1 9 30 24.54 0.00
 3 9 30 0.82 0.00
 5 9 30 -0.18 0.00
 7 9 30 -1.25 0.00
 9 9 30 -5.33 0.00
 11 9 30 -0.30 0.00
 13 9 30 -2.52 0.00
 15 9 30 16.76 0.00
 17 9 30 -6.39 0.00
 19 9 30 -6.19 0.00
 0 10 30 -11.24 0.00
 2 10 30 11.72 0.00
 4 10 30 -19.51 0.00
 6 10 30 -13.57 0.00
 8 10 30 8.74 0.00
 10 10 30 16.30 0.00
 12 10 30 3.33 0.00
 14 10 30 6.44 0.00
 16 10 30 -10.17 0.00
 18 10 30 0.06 0.00
 20 10 30 -5.56 0.00
 1 11 30 13.01 0.00
 3 11 30 -1.47 0.00
 5 11 30 -7.23 0.00
 7 11 30 5.52 0.00
 9 11 30 4.25 0.00
 11 11 30 -14.89 0.00
 13 11 30 2.56 0.00
 15 11 30 1.78 0.00
 17 11 30 -3.79 0.00
 19 11 30 -1.96 0.00
 0 12 30 8.44 0.00
 2 12 30 -2.73 0.00
 4 12 30 1.30 0.00
 6 12 30 3.62 0.00
 8 12 30 12.56 0.00
 10 12 30 12.54 0.00
 12 12 30 -4.21 0.00
 14 12 30 5.08 0.00
 16 12 30 -3.44 0.00
 18 12 30 -9.35 0.00
 20 12 30 -22.51 0.00
 1 13 30 -0.30 0.00
 3 13 30 -0.54 0.00
 5 13 30 -10.95 0.00
 7 13 30 -2.61 0.00
 9 13 30 -0.48 0.00
 11 13 30 -9.07 0.00
 13 13 30 -9.36 0.00
 15 13 30 0.03 0.00
 17 13 30 2.28 0.00
 19 13 30 -4.19 0.00
 0 14 30 -1.34 0.00
 2 14 30 0.38 0.00
 4 14 30 -8.01 0.00
 6 14 30 -18.20 0.00
 8 14 30 -2.09 0.00
 10 14 30 -7.42 0.00
 12 14 30 6.43 0.00
 14 14 30 -0.83 0.00
 16 14 30 0.90 0.00
 18 14 30 3.71 0.00
 1 15 30 9.15 0.00
 3 15 30 -2.93 0.00
 5 15 30 -12.51 0.00
 7 15 30 -6.46 0.00
 9 15 30 -8.05 0.00
 11 15 30 4.62 0.00
 13 15 30 7.24 0.00
 15 15 30 9.48 0.00
 17 15 30 1.79 0.00
 19 15 30 -2.74 0.00
 0 16 30 -7.28 0.00
 2 16 30 0.31 0.00
 4 16 30 2.03 0.00
 6 16 30 -5.93 0.00
 8 16 30 2.51 0.00
 10 16 30 7.90 0.00
 12 16 30 -9.52 0.00
 14 16 30 -3.88 0.00
 16 16 30 10.16 0.00
 18 16 30 -3.54 0.00
 1 17 30 -7.92 0.00
 3 17 30 -1.43 0.00
 5 17 30 -2.95 0.00
 7 17 30 -17.56 0.00
 9 17 30 -6.12 0.00
 11 17 30 7.21 0.00
 13 17 30 -17.23 0.00
 15 17 30 5.60 0.00
 17 17 30 2.06 0.00
 19 17 30 -4.63 0.00
 0 18 30 -6.67 0.00
 2 18 30 -5.08 0.00
 4 18 30 12.40 0.00
 6 18 30 3.96 0.00
 8 18 30 -10.77 0.00
 10 18 30 -8.39 0.00
 12 18 30 -8.89 0.00
 14 18 30 0.50 0.00
 16 18 30 2.67 0.00
 18 18 30 4.53 0.00
 1 19 30 -2.74 0.00
 3 19 30 -2.24 0.00
 5 19 30 1.00 0.00
 7 19 30 14.08 0.00
 9 19 30 2.24 0.00
 11 19 30 0.00 0.00
 13 19 30 -4.84 0.00
 15 19 30 -12.17 0.00
 17 19 30 -4.80 0.00
 0 20 30 -6.32 0.00
 2 20 30 2.35 0.00
 4 20 30 3.73 0.00
 6 20 30 -1.79 0.00
 8 20 30 -10.00 0.00
 10 20 30 -0.73 0.00
 12 20 30 -4.69 0.00
 14 20 30 -14.40 0.00
 16 20 30 0.54 0.00
 18 20 30 -10.50 0.00
 1 21 30 -4.37 0.00
 3 21 30 -8.55 0.00
 5 21 30 2.30 0.00
 7 21 30 -2.69 0.00
 9 21 30 9.57 0.00
 11 21 30 19.67 0.00
 13 21 30 8.21 0.00
 15 21 30 6.67 0.00
 17 21 30 -0.34 0.00
 0 22 30 8.58 0.00
 2 22 30 8.08 0.00
 4 22 30 3.05 0.00
 6 22 30 -0.07 0.00
 8 22 30 1.90 0.00
 10 22 30 3.62 0.00
 12 22 30 6.57 0.00
 14 22 30 -6.10 0.00
 16 22 30 -14.16 0.00
 1 23 30 -11.16 0.00
 3 23 30 4.98 0.00
 5 23 30 -4.84 0.00
 7 23 30 -0.92 0.00
 9 23 30 11.55 0.00
 11 23 30 3.40 0.00
 13 23 30 -1.60 0.00
 15 23 30 -0.99 0.00
 17 23 30 -10.26 0.00
 0 24 30 -21.22 0.00
 2 24 30 -7.05 0.00
 4 24 30 9.08 0.00
 6 24 30 -29.98 0.00
 8 24 30 -6.27 0.00
 10 24 30 4.77 0.00
 12 24 30 3.93 0.00
 14 24 30 -6.89 0.00
 16 24 30 2.00 0.00
 1 25 30 1.93 0.00
 3 25 30 1.86 0.00
 5 25 30 -2.51 0.00
 7 25 30 -6.43 0.00
 9 25 30 14.15 0.00
 11 25 30 -6.20 0.00
 13 25 30 5.51 0.00
 15 25 30 7.09 0.00
 0 26 30 -24.78 0.00
 2 26 30 3.53 0.00
 4 26 30 -5.50 0.00
 6 26 30 -14.31 0.00
 8 26 30 -1.08 0.00
 10 26 30 2.09 0.00
 12 26 30 5.27 0.00
 14 26 30 5.39 0.00
 16 26 30 0.02 0.00
 1 27 30 0.35 0.00
 3 27 30 -0.15 0.00
 5 27 30 -3.59 0.00
 7 27 30 0.49 0.00
 9 27 30 -6.43 0.00
 11 27 30 -8.74 0.00
 13 27 30 -10.26 0.00
 15 27 30 7.17 0.00
 0 28 30 15.02 0.00
 2 28 30 1.65 0.00
 4 28 30 -12.45 0.00
 6 28 30 7.40 0.00
 8 28 30 5.10 0.00
 10 28 30 10.02 0.00
 12 28 30 13.21 0.00
 14 28 30 -2.08 0.00
 1 29 30 -12.72 0.00
 3 29 30 -9.32 0.00
 5 29 30 -1.83 0.00
 7 29 30 0.53 0.00
 9 29 30 -3.34 0.00
 11 29 30 -3.29 0.00
 13 29 30 -14.68 0.00
 0 30 30 -0.84 0.00
 2 30 30 -15.42 0.00
 4 30 30 -11.29 0.00
 6 30 30 -3.87 0.00
 8 30 30 7.67 0.00
 10 30 30 -0.03 0.00
 12 30 30 -2.64 0.00
 14 30 30 3.87 0.00
 1 31 30 -16.83 0.00
 3 31 30 -13.34 0.00
 5 31 30 -11.04 0.00
 7 31 30 -12.53 0.00
 9 31 30 -3.60 0.00
 11 31 30 -6.26 0.00
 13 31 30 2.38 0.00
 0 32 30 -0.58 0.00
 2 32 30 -5.67 0.00
 4 32 30 1.99 0.00
 6 32 30 -9.06 0.00
 8 32 30 -5.09 0.00
 10 32 30 24.33 0.00
 12 32 30 11.43 0.00
 1 33 30 -12.38 0.00
 3 33 30 -3.64 0.00
 5 33 30 -5.82 0.00
 7 33 30 -5.81 0.00
 9 33 30 -3.63 0.00
 11 33 30 -16.56 0.00
 0 34 30 -11.84 0.00
 2 34 30 16.12 0.00
 4 34 30 -9.27 0.00
 6 34 30 -3.36 0.00
 8 34 30 -16.99 0.00
 10 34 30 -0.06 0.00
 1 35 30 -4.84 0.00
 3 35 30 -7.06 0.00
 5 35 30 3.39 0.00
 7 35 30 -11.86 0.00
 9 35 30 0.30 0.00
 0 36 30 6.54 0.00
 2 36 30 -2.71 0.00
 4 36 30 -15.26 0.00
 6 36 30 -2.19 0.00
 8 36 30 1.34 0.00
 1 37 30 2.50 0.00
 3 37 30 3.55 0.00
 5 37 30 2.90 0.00
 7 37 30 -0.80 0.00
 0 38 30 -5.46 0.00
 2 38 30 -7.03 0.00
 4 38 30 5.65 0.00
 6 38 30 -8.14 0.00
 1 39 30 16.87 0.00
 3 39 30 -5.63 0.00
 5 39 30 -2.66 0.00
 0 40 30 25.74 0.00
 2 40 30 2.93 0.00
 2 1 31 -9.10 0.00
 4 1 31 -24.74 0.00
 6 1 31 -31.17 0.00
 8 1 31 -13.21 0.00
 10 1 31 -3.15 0.00
 12 1 31 -3.19 0.00
 14 1 31 -1.64 0.00
 16 1 31 1.89 0.00
 18 1 31 -14.68 0.00
 20 1 31 6.61 0.00
 1 2 31 4.72 0.00
 3 2 31 -0.09 0.00
 5 2 31 -5.16 0.00
 7 2 31 -4.33 0.00
 9 2 31 0.61 0.00
 11 2 31 9.68 0.00
 13 2 31 9.35 0.00
 15 2 31 -16.56 0.00
 17 2 31 -0.75 0.00
 19 2 31 9.29 0.00
 2 3 31 -3.35 0.00
 4 3 31 27.53 0.00
 6 3 31 17.40 0.00
 8 3 31 11.93 0.00
 10 3 31 0.12 0.00
 12 3 31 0.68 0.00
 14 3 31 -6.79 0.00
 16 3 31 -18.70 0.00
 18 3 31 -19.63 0.00
 20 3 31 -11.80 0.00
 1 4 31 -6.25 0.00
 3 4 31 4.31 0.00
 5 4 31 18.06 0.00
 7 4 31 6.24 0.00
 9 4 31 -0.93 0.00
 11 4 31 -1.39 0.00
 13 4 31 -4.79 0.00
 15 4 31 -9.01 0.00
 17 4 31 -7.51 0.00
 19 4 31 -3.20 0.00
 2 5 31 4.97 0.00
 4 5 31 5.63 0.00
 6 5 31 -2.35 0.00
 8 5 31 -16.93 0.00
 10 5 31 -4.23 0.00
 12 5 31 1.06 0.00
 14 5 31 -9.01 0.00
 16 5 31 8.80 0.00
 18 5 31 7.97 0.00
 20 5 31 11.48 0.00
 1 6 31 -12.51 0.00
 3 6 31 -11.92 0.00
 5 6 31 -5.07 0.00
 7 6 31 0.70 0.00
 9 6 31 -12.30 0.00
 11 6 31 0.81 0.00
 13 6 31 -12.93 0.00
 15 6 31 -7.06 0.00
 17 6 31 -3.58 0.00
 19 6 31 -1.19 0.00
 2 7 31 -6.45 0.00
 4 7 31 -3.34 0.00
 6 7 31 -3.81 0.00
 8 7 31 4.32 0.00
 10 7 31 -11.14 0.00
 12 7 31 2.94 0.00
 14 7 31 -13.20 0.00
 16 7 31 0.73 0.00
 18 7 31 -5.80 0.00
 20 7 31 -4.56 0.00
 1 8 31 -4.73 0.00
 3 8 31 12.62 0.00
 5 8 31 30.45 0.00
 7 8 31 10.22 0.00
 9 8 31 3.47 0.00
 11 8 31 -2.19 0.00
 13 8 31 10.46 0.00
 15 8 31 13.05 0.00
 17 8 31 -1.50 0.00
 19 8 31 -3.86 0.00
 2 9 31 -8.13 0.00
 4 9 31 -9.67 0.00
 6 9 31 -0.49 0.00
 8 9 31 3.18 0.00
 10 9 31 0.02 0.00
 12 9 31 12.02 0.00
 14 9 31 17.70 0.00
 16 9 31 5.82 0.00
 18 9 31 4.96 0.00
 20 9 31 12.04 0.00
 1 10 31 1.08 0.00
 3 10 31 0.40 0.00
 5 10 31 -5.09 0.00
 7 10 31 14.58 0.00
 9 10 31 -5.32 0.00
 11 10 31 -7.06 0.00
 13 10 31 -8.61 0.00
 15 10 31 4.73 0.00
 17 10 31 -4.34 0.00
 19 10 31 -2.30 0.00
 2 11 31 -13.46 0.00
 4 11 31 13.75 0.00
 6 11 31 -6.93 0.00
 8 11 31 -12.48 0.00
 10 11 31 -1.25 0.00
 12 11 31 -2.06 0.00
 14 11 31 4.73 0.00
 16 11 31 -4.76 0.00
 18 11 31 -8.75 0.00
 20 11 31 -12.48 0.00
 1 12 31 1.88 0.00
 3 12 31 6.63 0.00
 5 12 31 10.52 0.00
 7 12 31 0.67 0.00
 9 12 31 -0.16 0.00
 11 12 31 -9.23 0.00
 13 12 31 4.09 0.00
 15 12 31 -0.52 0.00
 17 12 31 13.38 0.00
 19 12 31 13.53 0.00
 2 13 31 21.83 0.00
 4 13 31 6.82 0.00
 6 13 31 0.64 0.00
 8 13 31 8.00 0.00
 10 13 31 -8.30 0.00
 12 13 31 4.87 0.00
 14 13 31 3.49 0.00
 16 13 31 3.63 0.00
 18 13 31 11.06 0.00
 1 14 31 6.54 0.00
 3 14 31 -2.99 0.00
 5 14 31 -9.95 0.00
 7 14 31 -7.12 0.00
 9 14 31 12.15 0.00
 11 14 31 2.21 0.00
 13 14 31 -5.04 0.00
 15 14 31 -5.00 0.00
 17 14 31 12.91 0.00
 19 14 31 1.89 0.00
 2 15 31 -1.87 0.00
 4 15 31 -13.25 0.00
 6 15 31 -0.26 0.00
 8 15 31 -8.16 0.00
 10 15 31 -5.39 0.00
 12 15 31 3.32 0.00
 14 15 31 4.45 0.00
 16 15 31 -9.95 0.00
 18 15 31 15.89 0.00
 1 16 31 -10.18 0.00
 3 16 31 -17.17 0.00
 5 16 31 -14.29 0.00
 7 16 31 6.62 0.00
 9 16 31 1.29 0.00
 11 16 31 -5.36 0.00
 13 16 31 -8.79 0.00
 15 16 31 -3.41 0.00
 17 16 31 -1.75 0.00
 19 16 31 0.62 0.00
 2 17 31 -5.39 0.00
 4 17 31 13.05 0.00
 6 17 31 -3.82 0.00
 8 17 31 -2.43 0.00
 10 17 31 8.61 0.00
 12 17 31 16.48 0.00
 14 17 31 12.96 0.00
 16 17 31 1.63 0.00
 18 17 31 6.79 0.00
 1 18 31 -0.74 0.00
 3 18 31 12.04 0.00
 5 18 31 16.16 0.00
 7 18 31 0.44 0.00
 9 18 31 -5.40 0.00
 11 18 31 15.50 0.00
 13 18 31 13.63 0.00
 15 18 31 -4.09 0.00
 17 18 31 -5.63 0.00
 2 19 31 14.83 0.00
 4 19 31 -0.40 0.00
 6 19 31 -7.69 0.00
 8 19 31 1.99 0.00
 10 19 31 5.04 0.00
 12 19 31 -6.34 0.00
 14 19 31 16.73 0.00
 16 19 31 7.67 0.00
 18 19 31 6.66 0.00
 1 20 31 1.22 0.00
 3 20 31 8.00 0.00
 5 20 31 8.61 0.00
 7 20 31 -15.04 0.00
 9 20 31 -11.18 0.00
 11 20 31 -6.32 0.00
 13 20 31 10.60 0.00
 15 20 31 5.39 0.00
 17 20 31 -5.82 0.00
 2 21 31 -8.84 0.00
 4 21 31 -2.12 0.00
 6 21 31 15.14 0.00
 8 21 31 -24.34 0.00
 10 21 31 -4.39 0.00
 12 21 31 13.56 0.00
 14 21 31 -0.27 0.00
 16 21 31 6.17 0.00
 1 22 31 1.74 0.00
 3 22 31 -4.36 0.00
 5 22 31 18.41 0.00
 7 22 31 9.17 0.00
 9 22 31 -1.92 0.00
 11 22 31 5.01 0.00
 13 22 31 2.68 0.00
 15 22 31 -2.88 0.00
 17 22 31 1.35 0.00
 2 23 31 -19.49 0.00
 4 23 31 6.95 0.00
 6 23 31 3.40 0.00
 8 23 31 -6.46 0.00
 10 23 31 -4.25 0.00
 12 23 31 -6.21 0.00
 14 23 31 -0.15 0.00
 16 23 31 5.02 0.00
 1 24 31 -11.76 0.00
 3 24 31 0.67 0.00
 5 24 31 7.31 0.00
 7 24 31 -16.45 0.00
 9 24 31 -6.73 0.00
 11 24 31 6.10 0.00
 13 24 31 2.94 0.00
 15 24 31 -5.05 0.00
 2 25 31 -0.72 0.00
 4 25 31 -8.29 0.00
 6 25 31 3.59 0.00
 8 25 31 -6.42 0.00
 10 25 31 -9.74 0.00
 12 25 31 -12.98 0.00
 14 25 31 -13.84 0.00
 16 25 31 -1.95 0.00
 1 26 31 10.75 0.00
 3 26 31 14.06 0.00
 5 26 31 -9.22 0.00
 7 26 31 8.88 0.00
 9 26 31 2.61 0.00
 11 26 31 2.13 0.00
 13 26 31 10.41 0.00
 15 26 31 4.22 0.00
 2 27 31 2.35 0.00
 4 27 31 7.61 0.00
 6 27 31 -1.20 0.00
 8 27 31 0.39 0.00
 10 27 31 3.14 0.00
 12 27 31 -0.20 0.00
 14 27 31 -23.03 0.00
 1 28 31 -0.98 0.00
 3 28 31 -3.59 0.00
 5 28 31 3.84 0.00
 7 28 31 1.79 0.00
 9 28 31 1.54 0.00
 11 28 31 2.25 0.00
 13 28 31 -5.39 0.00
 2 29 31 -0.87 0.00
 4 29 31 -10.23 0.00
 6 29 31 1.83 0.00
 8 29 31 -6.55 0.00
 10 29 31 -7.75 0.00
 12 29 31 3.36 0.00
 14 29 31 2.61 0.00
 1 30 31 -4.50 0.00
 3 30 31 -8.42 0.00
 5 30 31 5.66 0.00
 7 30 31 -4.61 0.00
 9 30 31 -7.68 0.00
 11 30 31 9.16 0.00
 13 30 31 -20.56 0.00
 2 31 31 25.05 0.00
 4 31 31 9.29 0.00
 6 31 31 3.17 0.00
 8 31 31 -4.69 0.00
 10 31 31 -3.13 0.00
 12 31 31 -5.58 0.00
 1 32 31 -2.66 0.00
 3 32 31 0.50 0.00
 5 32 31 -4.95 0.00
 7 32 31 2.28 0.00
 9 32 31 -8.37 0.00
 11 32 31 5.77 0.00
 2 33 31 8.27 0.00
 4 33 31 2.21 0.00
 6 33 31 -4.50 0.00
 8 33 31 -9.24 0.00
 10 33 31 1.86 0.00
 1 34 31 -2.33 0.00
 3 34 31 -1.58 0.00
 5 34 31 -2.38 0.00
 7 34 31 4.18 0.00
 9 34 31 3.65 0.00
 2 35 31 9.15 0.00
 4 35 31 21.21 0.00
 6 35 31 21.28 0.00
 8 35 31 16.32 0.00
 10 35 31 -12.46 0.00
 1 36 31 11.95 0.00
 3 36 31 -6.48 0.00
 5 36 31 16.96 0.00
 7 36 31 -0.78 0.00
 9 36 31 15.11 0.00
 2 37 31 1.54 0.00
 4 37 31 11.05 0.00
 6 37 31 -5.92 0.00
 1 38 31 -15.24 0.00
 3 38 31 -4.72 0.00
 5 38 31 -6.09 0.00
 2 39 31 15.67 0.00
 4 39 31 21.18 0.00
 0 0 32 60.51 0.00
 2 0 32 53.27 0.00
 4 0 32 21.94 0.00
 6 0 32 -7.03 0.00
 8 0 32 -9.92 0.00
 10 0 32 -17.77 0.00
 12 0 32 24.26 0.00
 14 0 32 67.17 0.00
 16 0 32 -17.63 0.00
 18 0 32 -22.37 0.00
 20 0 32 -10.48 0.00
 1 1 32 -13.47 0.00
 3 1 32 -3.55 0.00
 5 1 32 4.74 0.00
 7 1 32 2.36 0.00
 9 1 32 2.49 0.00
 11 1 32 5.15 0.00
 13 1 32 23.52 0.00
 15 1 32 18.86 0.00
 17 1 32 -0.32 0.00
 19 1 32 -10.13 0.00
 0 2 32 -19.52 0.00
 2 2 32 -13.21 0.00
 4 2 32 -19.33 0.00
 6 2 32 -13.18 0.00
 8 2 32 2.83 0.00
 10 2 32 7.53 0.00
 12 2 32 5.52 0.00
 14 2 32 9.21 0.00
 16 2 32 12.34 0.00
 18 2 32 -9.02 0.00
 20 2 32 -0.76 0.00
 1 3 32 -12.48 0.00
 3 3 32 2.22 0.00
 5 3 32 -2.90 0.00
 7 3 32 4.97 0.00
 9 3 32 -3.70 0.00
 11 3 32 -1.16 0.00
 13 3 32 14.74 0.00
 15 3 32 4.19 0.00
 17 3 32 6.46 0.00
 19 3 32 1.56 0.00
 0 4 32 20.00 0.00
 2 4 32 -21.19 0.00
 4 4 32 -2.55 0.00
 6 4 32 1.56 0.00
 8 4 32 -0.36 0.00
 10 4 32 2.90 0.00
 12 4 32 -6.56 0.00
 14 4 32 -7.42 0.00
 16 4 32 12.58 0.00
 18 4 32 6.83 0.00
 20 4 32 13.18 0.00
 1 5 32 7.78 0.00
 3 5 32 -1.27 0.00
 5 5 32 7.59 0.00
 7 5 32 -3.24 0.00
 9 5 32 3.67 0.00
 11 5 32 -4.20 0.00
 13 5 32 1.08 0.00
 15 5 32 13.11 0.00
 17 5 32 9.76 0.00
 19 5 32 4.18 0.00
 0 6 32 -6.93 0.00
 2 6 32 -7.71 0.00
 4 6 32 -7.34 0.00
 6 6 32 -2.71 0.00
 8 6 32 -14.01 0.00
 10 6 32 -5.67 0.00
 12 6 32 3.55 0.00
 14 6 32 -0.20 0.00
 16 6 32 9.07 0.00
 18 6 32 8.38 0.00
 20 6 32 -0.35 0.00
 1 7 32 -11.88 0.00
 3 7 32 -2.02 0.00
 5 7 32 13.12 0.00
 7 7 32 3.79 0.00
 9 7 32 5.14 0.00
 11 7 32 -0.58 0.00
 13 7 32 -5.85 0.00
 15 7 32 12.74 0.00
 17 7 32 -10.36 0.00
 19 7 32 -33.22 0.00
 0 8 32 -21.46 0.00
 2 8 32 4.54 0.00
 4 8 32 -9.33 0.00
 6 8 32 -10.33 0.00
 8 8 32 -3.71 0.00
 10 8 32 10.35 0.00
 12 8 32 4.35 0.00
 14 8 32 4.94 0.00
 16 8 32 5.72 0.00
 18 8 32 1.01 0.00
 20 8 32 -0.78 0.00
 1 9 32 26.35 0.00
 3 9 32 10.38 0.00
 5 9 32 5.16 0.00
 7 9 32 9.38 0.00
 9 9 32 -1.76 0.00
 11 9 32 0.74 0.00
 13 9 32 -13.85 0.00
 15 9 32 -2.53 0.00
 17 9 32 -0.57 0.00
 19 9 32 7.69 0.00
 0 10 32 4.50 0.00
 2 10 32 -16.87 0.00
 4 10 32 -4.06 0.00
 6 10 32 -9.93 0.00
 8 10 32 -6.72 0.00
 10 10 32 -7.31 0.00
 12 10 32 -13.40 0.00
 14 10 32 -7.19 0.00
 16 10 32 1.10 0.00
 18 10 32 -4.50 0.00
 1 11 32 1.17 0.00
 3 11 32 -1.73 0.00
 5 11 32 2.65 0.00
 7 11 32 13.52 0.00
 9 11 32 -0.94 0.00
 11 11 32 -4.93 0.00
 13 11 32 -9.22 0.00
 15 11 32 -6.06 0.00
 17 11 32 1.04 0.00
 19 11 32 8.21 0.00
 0 12 32 5.84 0.00
 2 12 32 4.91 0.00
 4 12 32 -24.23 0.00
 6 12 32 -8.34 0.00
 8 12 32 -9.88 0.00
 10 12 32 -3.91 0.00
 12 12 32 0.29 0.00
 14 12 32 -1.31 0.00
 16 12 32 -6.28 0.00
 18 12 32 -0.23 0.00
 1 13 32 -6.00 0.00
 3 13 32 10.37 0.00
 5 13 32 -1.03 0.00
 7 13 32 2.72 0.00
 9 13 32 7.37 0.00
 11 13 32 -0.73 0.00
 13 13 32 -9.54 0.00
 15 13 32 5.31 0.00
 17 13 32 -10.20 0.00
 19 13 32 6.16 0.00
 0 14 32 9.45 0.00
 2 14 32 9.36 0.00
 4 14 32 -8.73 0.00
 6 14 32 -17.72 0.00
 8 14 32 -10.24 0.00
 10 14 32 0.55 0.00
 12 14 32 -20.87 0.00
 14 14 32 -7.81 0.00
 16 14 32 3.34 0.00
 18 14 32 12.14 0.00
 1 15 32 6.29 0.00
 3 15 32 -6.55 0.00
 5 15 32 -6.10 0.00
 7 15 32 12.84 0.00
 9 15 32 7.00 0.00
 11 15 32 -10.22 0.00
 13 15 32 8.03 0.00
 15 15 32 1.08 0.00
 17 15 32 -6.04 0.00
 19 15 32 6.95 0.00
 0 16 32 -11.37 0.00
 2 16 32 -14.69 0.00
 4 16 32 -1.01 0.00
 6 16 32 6.99 0.00
 8 16 32 1.44 0.00
 10 16 32 -9.50 0.00
 12 16 32 5.41 0.00
 14 16 32 5.11 0.00
 16 16 32 0.20 0.00
 18 16 32 0.41 0.00
 1 17 32 -14.32 0.00
 3 17 32 -5.22 0.00
 5 17 32 5.99 0.00
 7 17 32 -5.03 0.00
 9 17 32 2.28 0.00
 11 17 32 -0.38 0.00
 13 17 32 -5.44 0.00
 15 17 32 -6.53 0.00
 17 17 32 25.53 0.00
 0 18 32 4.18 0.00
 2 18 32 10.20 0.00
 4 18 32 5.51 0.00
 6 18 32 -3.75 0.00
 8 18 32 -10.91 0.00
 10 18 32 -5.31 0.00
 12 18 32 -6.53 0.00
 14 18 32 7.01 0.00
 16 18 32 4.59 0.00
 18 18 32 10.42 0.00
 1 19 32 -2.95 0.00
 3 19 32 13.94 0.00
 5 19 32 7.95 0.00
 7 19 32 13.96 0.00
 9 19 32 -6.86 0.00
 11 19 32 -5.58 0.00
 13 19 32 -9.11 0.00
 15 19 32 -17.31 0.00
 17 19 32 10.12 0.00
 0 20 32 -5.63 0.00
 2 20 32 -1.99 0.00
 4 20 32 -7.88 0.00
 6 20 32 -3.71 0.00
 8 20 32 -3.13 0.00
 10 20 32 -5.80 0.00
 12 20 32 -3.75 0.00
 14 20 32 -10.37 0.00
 16 20 32 -6.75 0.00
 1 21 32 23.71 0.00
 3 21 32 -18.58 0.00
 5 21 32 -16.65 0.00
 7 21 32 6.28 0.00
 9 21 32 2.55 0.00
 11 21 32 12.08 0.00
 13 21 32 13.14 0.00
 15 21 32 -11.65 0.00
 17 21 32 8.30 0.00
 0 22 32 -7.19 0.00
 2 22 32 -14.04 0.00
 4 22 32 1.29 0.00
 6 22 32 7.30 0.00
 8 22 32 -10.39 0.00
 10 22 32 -2.09 0.00
 12 22 32 -19.90 0.00
 14 22 32 -14.29 0.00
 16 22 32 2.24 0.00
 1 23 32 -0.13 0.00
 3 23 32 -6.00 0.00
 5 23 32 2.18 0.00
 7 23 32 2.40 0.00
 9 23 32 2.89 0.00
 11 23 32 4.44 0.00
 13 23 32 2.58 0.00
 15 23 32 6.28 0.00
 0 24 32 21.09 0.00
 2 24 32 7.65 0.00
 4 24 32 -14.39 0.00
 6 24 32 -8.80 0.00
 8 24 32 -2.84 0.00
 10 24 32 4.68 0.00
 12 24 32 -6.48 0.00
 14 24 32 -3.95 0.00
 16 24 32 12.84 0.00
 1 25 32 -1.32 0.00
 3 25 32 5.47 0.00
 5 25 32 14.25 0.00
 7 25 32 8.80 0.00
 9 25 32 -3.80 0.00
 11 25 32 3.77 0.00
 13 25 32 1.53 0.00
 15 25 32 -6.47 0.00
 0 26 32 -1.69 0.00
 2 26 32 14.08 0.00
 4 26 32 -0.09 0.00
 6 26 32 -0.22 0.00
 8 26 32 7.69 0.00
 10 26 32 -13.36 0.00
 12 26 32 3.32 0.00
 14 26 32 -14.69 0.00
 1 27 32 -8.11 0.00
 3 27 32 3.70 0.00
 5 27 32 -4.64 0.00
 7 27 32 1.09 0.00
 9 27 32 11.27 0.00
 11 27 32 1.32 0.00
 13 27 32 0.34 0.00
 15 27 32 -2.40 0.00
 0 28 32 5.35 0.00
 2 28 32 12.76 0.00
 4 28 32 25.94 0.00
 6 28 32 0.69 0.00
 8 28 32 1.98 0.00
 10 28 32 2.88 0.00
 12 28 32 -6.46 0.00
 14 28 32 -17.47 0.00
 1 29 32 1.02 0.00
 3 29 32 21.07 0.00
 5 29 32 -3.98 0.00
 7 29 32 0.62 0.00
 9 29 32 25.34 0.00
 11 29 32 7.10 0.00
 13 29 32 -7.99 0.00
 0 30 32 -12.73 0.00
 2 30 32 11.01 0.00
 4 30 32 10.50 0.00
 6 30 32 -2.41 0.00
 8 30 32 9.26 0.00
 10 30 32 2.08 0.00
 12 30 32 -2.85 0.00
 1 31 32 10.31 0.00
 3 31 32 -1.93 0.00
 5 31 32 4.85 0.00
 7 31 32 -1.59 0.00
 9 31 32 1.27 0.00
 11 31 32 12.82 0.00
 0 32 32 -12.71 0.00
 2 32 32 -1.88 0.00
 4 32 32 4.43 0.00
 6 32 32 2.80 0.00
 8 32 32 -2.33 0.00
 10 32 32 14.66 0.00
 12 32 32 -12.31 0.00
 1 33 32 11.10 0.00
 3 33 32 3.12 0.00
 5 33 32 6.46 0.00
 7 33 32 -18.07 0.00
 9 33 32 4.44 0.00
 11 33 32 0.88 0.00
 0 34 32 -28.75 0.00
 2 34 32 -1.75 0.00
 4 34 32 7.09 0.00
 6 34 32 -10.35 0.00
 8 34 32 3.69 0.00
 10 34 32 15.32 0.00
 1 35 32 5.63 0.00
 3 35 32 -2.02 0.00
 5 35 32 -11.61 0.00
 7 35 32 -18.33 0.00
 9 35 32 10.44 0.00
 0 36 32 0.31 0.00
 2 36 32 -2.48 0.00
 4 36 32 6.70 0.00
 6 36 32 -15.60 0.00
 8 36 32 -8.05 0.00
 1 37 32 16.16 0.00
 3 37 32 12.42 0.00
 5 37 32 5.71 0.00
 7 37 32 4.60 0.00
 0 38 32 0.03 0.00
 2 38 32 -2.19 0.00
 4 38 32 8.40 0.00
 1 39 32 12.13 0.00
 3 39 32 0.26 0.00
 2 1 33 0.96 0.00
 4 1 33 4.45 0.00
 6 1 33 -10.81 0.00
 8 1 33 1.13 0.00
 10 1 33 0.46 0.00
 12 1 33 -28.18 0.00
 14 1 33 22.60 0.00
 16 1 33 -5.67 0.00
 18 1 33 -0.07 0.00
 20 1 33 5.06 0.00
 1 2 33 -10.24 0.00
 3 2 33 -3.81 0.00
 5 2 33 2.16 0.00
 7 2 33 6.17 0.00
 9 2 33 0.24 0.00
 11 2 33 15.67 0.00
 13 2 33 19.64 0.00
 15 2 33 -17.51 0.00
 17 2 33 -11.56 0.00
 19 2 33 -4.17 0.00
 2 3 33 12.77 0.00
 4 3 33 -1.30 0.00
 6 3 33 2.42 0.00
 8 3 33 -2.11 0.00
 10 3 33 10.06 0.00
 12 3 33 4.36 0.00
 14 3 33 1.98 0.00
 16 3 33 5.60 0.00
 18 3 33 -2.52 0.00
 20 3 33 1.91 0.00
 1 4 33 0.53 0.00
 3 4 33 5.87 0.00
 5 4 33 7.01 0.00
 7 4 33 2.95 0.00
 9 4 33 6.32 0.00
 11 4 33 -9.17 0.00
 13 4 33 10.21 0.00
 15 4 33 -0.99 0.00
 17 4 33 -18.71 0.00
 19 4 33 -3.90 0.00
 2 5 33 -9.07 0.00
 4 5 33 12.74 0.00
 6 5 33 17.67 0.00
 8 5 33 -1.55 0.00
 10 5 33 9.34 0.00
 12 5 33 -1.71 0.00
 14 5 33 -15.63 0.00
 16 5 33 -5.77 0.00
 18 5 33 4.37 0.00
 20 5 33 -4.53 0.00
 1 6 33 -17.70 0.00
 3 6 33 -5.78 0.00
 5 6 33 -8.24 0.00
 7 6 33 -6.88 0.00
 9 6 33 -9.51 0.00
 11 6 33 1.01 0.00
 13 6 33 -7.99 0.00
 15 6 33 2.05 0.00
 17 6 33 -9.54 0.00
 19 6 33 -5.55 0.00
 2 7 33 -2.67 0.00
 4 7 33 -14.67 0.00
 6 7 33 -10.19 0.00
 8 7 33 -13.35 0.00
 10 7 33 -5.25 0.00
 12 7 33 9.23 0.00
 14 7 33 4.83 0.00
 16 7 33 -11.12 0.00
 18 7 33 -5.62 0.00
 20 7 33 1.18 0.00
 1 8 33 -0.53 0.00
 3 8 33 8.18 0.00
 5 8 33 11.05 0.00
 7 8 33 6.34 0.00
 9 8 33 11.66 0.00
 11 8 33 7.79 0.00
 13 8 33 -11.58 0.00
 15 8 33 -3.86 0.00
 17 8 33 -3.77 0.00
 19 8 33 -17.55 0.00
 2 9 33 -1.45 0.00
 4 9 33 -5.15 0.00
 6 9 33 -14.39 0.00
 8 9 33 6.38 0.00
 10 9 33 -2.20 0.00
 12 9 33 -12.21 0.00
 14 9 33 0.91 0.00
 16 9 33 -5.40 0.00
 18 9 33 -24.19 0.00
 1 10 33 6.82 0.00
 3 10 33 0.44 0.00
 5 10 33 -6.58 0.00
 7 10 33 -17.78 0.00
 9 10 33 -10.69 0.00
 11 10 33 -5.27 0.00
 13 10 33 0.02 0.00
 15 10 33 -3.22 0.00
 17 10 33 -10.97 0.00
 19 10 33 -1.80 0.00
 2 11 33 5.81 0.00
 4 11 33 -5.38 0.00
 6 11 33 -1.19 0.00
 8 11 33 -8.84 0.00
 10 11 33 -6.09 0.00
 12 11 33 -9.86 0.00
 14 11 33 12.47 0.00
 16 11 33 14.67 0.00
 18 11 33 5.82 0.00
 1 12 33 4.10 0.00
 3 12 33 21.87 0.00
 5 12 33 0.49 0.00
 7 12 33 -2.96 0.00
 9 12 33 -1.57 0.00
 11 12 33 3.56 0.00
 13 12 33 -9.40 0.00
 15 12 33 5.76 0.00
 17 12 33 -18.23 0.00
 19 12 33 -0.22 0.00
 2 13 33 -1.14 0.00
 4 13 33 -2.18 0.00
 6 13 33 -7.27 0.00
 8 13 33 -6.45 0.00
 10 13 33 7.84 0.00
 12 13 33 -12.54 0.00
 14 13 33 1.51 0.00
 16 13 33 -8.45 0.00
 18 13 33 7.41 0.00
 1 14 33 -3.48 0.00
 3 14 33 -9.16 0.00
 5 14 33 -4.05 0.00
 7 14 33 4.00 0.00
 9 14 33 -2.82 0.00
 11 14 33 4.89 0.00
 13 14 33 -6.48 0.00
 15 14 33 0.00 0.00
 17 14 33 0.78 0.00
 19 14 33 -0.87 0.00
 2 15 33 -2.14 0.00
 4 15 33 -9.67 0.00
 6 15 33 1.02 0.00
 8 15 33 -0.32 0.00
 10 15 33 2.08 0.00
 12 15 33 1.73 0.00
 14 15 33 8.38 0.00
 16 15 33 -5.53 0.00
 18 15 33 8.93 0.00
 1 16 33 1.95 0.00
 3 16 33 -7.28 0.00
 5 16 33 -0.45 0.00
 7 16 33 -4.60 0.00
 9 16 33 9.64 0.00
 11 16 33 5.66 0.00
 13 16 33 -9.59 0.00
 15 16 33 7.95 0.00
 17 16 33 4.89 0.00
 2 17 33 7.07 0.00
 4 17 33 -6.76 0.00
 6 17 33 -10.45 0.00
 8 17 33 -4.61 0.00
 10 17 33 -6.71 0.00
 12 17 33 9.61 0.00
 14 17 33 -3.42 0.00
 16 17 33 -6.82 0.00
 18 17 33 9.10 0.00
 1 18 33 -9.65 0.00
 3 18 33 1.05 0.00
 5 18 33 -3.40 0.00
 7 18 33 -9.62 0.00
 9 18 33 11.12 0.00
 11 18 33 25.17 0.00
 13 18 33 1.98 0.00
 15 18 33 -6.71 0.00
 17 18 33 0.52 0.00
 2 19 33 10.10 0.00
 4 19 33 9.02 0.00
 6 19 33 6.64 0.00
 8 19 33 15.73 0.00
 10 19 33 -4.11 0.00
 12 19 33 -6.19 0.00
 14 19 33 0.22 0.00
 16 19 33 -5.52 0.00
 1 20 33 -5.38 0.00
 3 20 33 -0.96 0.00
 5 20 33 -20.53 0.00
 7 20 33 -20.56 0.00
 9 20 33 -2.89 0.00
 11 20 33 -2.05 0.00
 13 20 33 -1.35 0.00
 15 20 33 9.42 0.00
 17 20 33 11.31 0.00
 2 21 33 -3.44 0.00
 4 21 33 2.59 0.00
 6 21 33 -2.45 0.00
 8 21 33 13.14 0.00
 10 21 33 1.62 0.00
 12 21 33 3.67 0.00
 14 21 33 6.79 0.00
 16 21 33 5.90 0.00
 1 22 33 -5.89 0.00
 3 22 33 0.49 0.00
 5 22 33 8.34 0.00
 7 22 33 6.54 0.00
 9 22 33 -1.38 0.00
 11 22 33 0.52 0.00
 13 22 33 -2.81 0.00
 15 22 33 -1.60 0.00
 2 23 33 -5.41 0.00
 4 23 33 3.46 0.00
 6 23 33 11.87 0.00
 8 23 33 7.70 0.00
 10 23 33 -5.75 0.00
 12 23 33 -3.26 0.00
 14 23 33 5.27 0.00
 16 23 33 -0.68 0.00
 1 24 33 -11.57 0.00
 3 24 33 8.79 0.00
 5 24 33 1.41 0.00
 7 24 33 17.06 0.00
 9 24 33 31.63 0.00
 11 24 33 -17.56 0.00
 13 24 33 16.86 0.00
 15 24 33 6.73 0.00
 2 25 33 22.11 0.00
 4 25 33 14.18 0.00
 6 25 33 5.12 0.00
 8 25 33 0.09 0.00
 10 25 33 -13.87 0.00
 12 25 33 9.01 0.00
 14 25 33 12.78 0.00
 1 26 33 -3.50 0.00
 3 26 33 -15.82 0.00
 5 26 33 -7.26 0.00
 7 26 33 2.48 0.00
 9 26 33 11.74 0.00
 11 26 33 1.87 0.00
 13 26 33 3.95 0.00
 15 26 33 2.20 0.00
 2 27 33 3.59 0.00
 4 27 33 -6.78 0.00
 6 27 33 -8.49 0.00
 8 27 33 5.85 0.00
 10 27 33 -12.61 0.00
 12 27 33 -16.93 0.00
 14 27 33 5.66 0.00
 1 28 33 -0.10 0.00
 3 28 33 -1.15 0.00
 5 28 33 10.98 0.00
 7 28 33 -4.66 0.00
 9 28 33 7.24 0.00
 11 28 33 5.93 0.00
 13 28 33 0.81 0.00
 2 29 33 13.34 0.00
 4 29 33 7.44 0.00
 6 29 33 -3.37 0.00
 8 29 33 -2.08 0.00
 10 29 33 10.90 0.00
 12 29 33 -9.59 0.00
 1 30 33 -11.62 0.00
 3 30 33 -3.69 0.00
 5 30 33 -10.87 0.00
 7 30 33 -1.84 0.00
 9 30 33 -3.33 0.00
 11 30 33 -8.30 0.00
 13 30 33 -20.73 0.00
 2 31 33 -4.23 0.00
 4 31 33 2.46 0.00
 6 31 33 1.50 0.00
 8 31 33 2.31 0.00
 10 31 33 -0.41 0.00
 12 31 33 -0.39 0.00
 1 32 33 -0.89 0.00
 3 32 33 -0.83 0.00
 5 32 33 6.91 0.00
 7 32 33 -0.97 0.00
 9 32 33 0.93 0.00
 11 32 33 -4.26 0.00
 2 33 33 12.19 0.00
 4 33 33 -9.25 0.00
 6 33 33 2.43 0.00
 8 33 33 -0.05 0.00
 10 33 33 -7.60 0.00
 1 34 33 7.66 0.00
 3 34 33 3.17 0.00
 5 34 33 2.79 0.00
 7 34 33 -8.53 0.00
 9 34 33 5.91 0.00
 2 35 33 -11.53 0.00
 4 35 33 5.03 0.00
 6 35 33 -13.98 0.00
 8 35 33 10.07 0.00
 1 36 33 6.38 0.00
 3 36 33 3.45 0.00
 5 36 33 19.97 0.00
 7 36 33 10.69 0.00
 2 37 33 -9.64 0.00
 4 37 33 -8.11 0.00
 6 37 33 0.76 0.00
 1 38 33 -4.16 0.00
 3 38 33 -2.54 0.00
 0 0 34 52.73 0.00
 2 0 34 16.05 0.00
 4 0 34 6.70 0.00
 6 0 34 -21.35 0.00
 8 0 34 16.32 0.00
 10 0 34 -19.28 0.00
 12 0 34 -9.10 0.00
 14 0 34 17.68 0.00
 16 0 34 0.39 0.00
 18 0 34 0.45 0.00
 20 0 34 9.07 0.00
 1 1 34 -14.27 0.00
 3 1 34 2.97 0.00
 5 1 34 -0.69 0.00
 7 1 34 6.91 0.00
 9 1 34 -1.88 0.00
 11 1 34 6.13 0.00
 13 1 34 -12.49 0.00
 15 1 34 10.46 0.00
 17 1 34 -16.11 0.00
 19 1 34 -5.08 0.00
 0 2 34 -21.42 0.00
 2 2 34 -24.03 0.00
 4 2 34 -17.82 0.00
 6 2 34 6.51 0.00
 8 2 34 -12.57 0.00
 10 2 34 1.32 0.00
 12 2 34 -15.89 0.00
 14 2 34 -2.99 0.00
 16 2 34 12.46 0.00
 18 2 34 11.97 0.00
 20 2 34 -3.54 0.00
 1 3 34 4.59 0.00
 3 3 34 6.35 0.00
 5 3 34 -14.84 0.00
 7 3 34 1.63 0.00
 9 3 34 6.35 0.00
 11 3 34 7.61 0.00
 13 3 34 2.51 0.00
 15 3 34 -1.83 0.00
 17 3 34 6.37 0.00
 19 3 34 1.06 0.00
 0 4 34 -12.79 0.00
 2 4 34 -0.39 0.00
 4 4 34 9.48 0.00
 6 4 34 4.71 0.00
 8 4 34 -1.12 0.00
 10 4 34 -11.32 0.00
 12 4 34 -2.06 0.00
 14 4 34 -24.14 0.00
 16 4 34 4.36 0.00
 18 4 34 -13.12 0.00
 20 4 34 -26.43 0.00
 1 5 34 -35.55 0.00
 3 5 34 0.18 0.00
 5 5 34 1.33 0.00
 7 5 34 -0.27 0.00
 9 5 34 -1.51 0.00
 11 5 34 9.21 0.00
 13 5 34 -10.81 0.00
 15 5 34 14.82 0.00
 17 5 34 8.54 0.00
 19 5 34 1.53 0.00
 0 6 34 1.84 0.00
 2 6 34 3.70 0.00
 4 6 34 -6.65 0.00
 6 6 34 -1.22 0.00
 8 6 34 -0.34 0.00
 10 6 34 0.07 0.00
 12 6 34 13.72 0.00
 14 6 34 -4.95 0.00
 16 6 34 -0.74 0.00
 18 6 34 -0.99 0.00
 1 7 34 -17.96 0.00
 3 7 34 2.64 0.00
 5 7 34 2.22 0.00
 7 7 34 0.46 0.00
 9 7 34 0.32 0.00
 11 7 34 -8.36 0.00
 13 7 34 7.79 0.00
 15 7 34 0.83 0.00
 17 7 34 1.48 0.00
 19 7 34 -2.66 0.00
 0 8 34 13.23 0.00
 2 8 34 -4.82 0.00
 4 8 34 0.66 0.00
 6 8 34 6.75 0.00
 8 8 34 7.50 0.00
 10 8 34 -9.95 0.00
 12 8 34 -3.30 0.00
 14 8 34 -13.87 0.00
 16 8 34 -3.53 0.00
 18 8 34 10.44 0.00
 1 9 34 12.79 0.00
 3 9 34 -0.36 0.00
 5 9 34 -5.53 0.00
 7 9 34 7.32 0.00
 9 9 34 13.84 0.00
 11 9 34 -1.25 0.00
 13 9 34 -9.02 0.00
 15 9 34 2.07 0.00
 17 9 34 -1.18 0.00
 19 9 34 -4.33 0.00
 0 10 34 -5.07 0.00
 2 10 34 3.32 0.00
 4 10 34 -21.63 0.00
 6 10 34 -4.59 0.00
 8 10 34 3.33 0.00
 10 10 34 -6.55 0.00
 12 10 34 -2.81 0.00
 14 10 34 -14.12 0.00
 16 10 34 0.51 0.00
 18 10 34 -9.39 0.00
 1 11 34 1.25 0.00
 3 11 34 10.90 0.00
 5 11 34 0.79 0.00
 7 11 34 3.33 0.00
 9 11 34 0.25 0.00
 11 11 34 -6.50 0.00
 13 11 34 -12.21 0.00
 15 11 34 -11.73 0.00
 17 11 34 -14.07 0.00
 19 11 34 13.25 0.00
 0 12 34 19.89 0.00
 2 12 34 -12.63 0.00
 4 12 34 -0.23 0.00
 6 12 34 -8.77 0.00
 8 12 34 -2.72 0.00
 10 12 34 -7.12 0.00
 12 12 34 -3.04 0.00
 14 12 34 3.91 0.00
 16 12 34 4.79 0.00
 18 12 34 -1.85 0.00
 1 13 34 -17.91 0.00
 3 13 34 -9.00 0.00
 5 13 34 14.45 0.00
 7 13 34 0.30 0.00
 9 13 34 9.68 0.00
 11 13 34 0.43 0.00
 13 13 34 0.18 0.00
 15 13 34 1.68 0.00
 17 13 34 -0.13 0.00
 0 14 34 -0.82 0.00
 2 14 34 2.85 0.00
 4 14 34 -3.78 0.00
 6 14 34 -5.56 0.00
 8 14 34 -8.90 0.00
 10 14 34 -16.64 0.00
 12 14 34 -5.66 0.00
 14 14 34 6.68 0.00
 16 14 34 -5.56 0.00
 18 14 34 1.13 0.00
 1 15 34 -6.86 0.00
 3 15 34 8.21 0.00
 5 15 34 1.21 0.00
 7 15 34 -7.06 0.00
 9 15 34 2.43 0.00
 11 15 34 -14.00 0.00
 13 15 34 11.52 0.00
 15 15 34 1.86 0.00
 17 15 34 -3.17 0.00
 0 16 34 -3.49 0.00
 2 16 34 3.05 0.00
 4 16 34 8.40 0.00
 6 16 34 -5.64 0.00
 8 16 34 -13.94 0.00
 10 16 34 18.58 0.00
 12 16 34 4.36 0.00
 14 16 34 5.13 0.00
 16 16 34 7.27 0.00
 18 16 34 4.13 0.00
 1 17 34 -13.52 0.00
 3 17 34 -0.62 0.00
 5 17 34 -0.06 0.00
 7 17 34 -11.22 0.00
 9 17 34 14.93 0.00
 11 17 34 8.47 0.00
 13 17 34 0.78 0.00
 15 17 34 5.37 0.00
 17 17 34 -4.94 0.00
 0 18 34 9.34 0.00
 2 18 34 0.62 0.00
 4 18 34 20.01 0.00
 6 18 34 -4.43 0.00
 8 18 34 -13.32 0.00
 10 18 34 15.48 0.00
 12 18 34 5.01 0.00
 14 18 34 4.11 0.00
 16 18 34 -9.81 0.00
 1 19 34 -10.07 0.00
 3 19 34 4.23 0.00
 5 19 34 7.42 0.00
 7 19 34 7.32 0.00
 9 19 34 15.69 0.00
 11 19 34 3.92 0.00
 13 19 34 0.83 0.00
 15 19 34 0.41 0.00
 17 19 34 4.61 0.00
 0 20 34 -0.53 0.00
 2 20 34 12.26 0.00
 4 20 34 12.03 0.00
 6 20 34 0.43 0.00
 8 20 34 -0.31 0.00
 10 20 34 6.90 0.00
 12 20 34 -1.96 0.00
 14 20 34 7.31 0.00
 16 20 34 10.28 0.00
 1 21 34 2.45 0.00
 3 21 34 -2.38 0.00
 5 21 34 12.22 0.00
 7 21 34 -9.39 0.00
 9 21 34 9.37 0.00
 11 21 34 10.85 0.00
 13 21 34 -3.50 0.00
 15 21 34 2.48 0.00
 0 22 34 -3.74 0.00
 2 22 34 -3.10 0.00
 4 22 34 -4.04 0.00
 6 22 34 2.16 0.00
 8 22 34 25.85 0.00
 10 22 34 19.85 0.00
 12 22 34 -15.24 0.00
 14 22 34 2.68 0.00
 16 22 34 3.36 0.00
 1 23 34 -27.08 0.00
 3 23 34 8.24 0.00
 5 23 34 6.36 0.00
 7 23 34 16.66 0.00
 9 23 34 -0.25 0.00
 11 23 34 4.92 0.00
 13 23 34 10.82 0.00
 15 23 34 -0.99 0.00
 0 24 34 -2.47 0.00
 2 24 34 8.28 0.00
 4 24 34 1.37 0.00
 6 24 34 -19.60 0.00
 8 24 34 5.90 0.00
 10 24 34 4.94 0.00
 12 24 34 -10.36 0.00
 14 24 34 -4.00 0.00
 1 25 34 -1.93 0.00
 3 25 34 14.11 0.00
 5 25 34 7.27 0.00
 7 25 34 6.65 0.00
 9 25 34 6.89 0.00
 11 25 34 -7.37 0.00
 13 25 34 -4.78 0.00
 15 25 34 3.65 0.00
 0 26 34 -7.61 0.00
 2 26 34 15.77 0.00
 4 26 34 3.47 0.00
 6 26 34 6.69 0.00
 8 26 34 -1.80 0.00
 10 26 34 -7.85 0.00
 12 26 34 7.19 0.00
 14 26 34 3.32 0.00
 1 27 34 8.10 0.00
 3 27 34 -2.45 0.00
 5 27 34 -4.53 0.00
 7 27 34 4.28 0.00
 9 27 34 0.61 0.00
 11 27 34 10.58 0.00
 13 27 34 3.65 0.00
 0 28 34 1.66 0.00
 2 28 34 10.25 0.00
 4 28 34 4.81 0.00
 6 28 34 2.89 0.00
 8 28 34 -6.00 0.00
 10 28 34 -1.99 0.00
 12 28 34 -13.67 0.00
 1 29 34 -5.48 0.00
 3 29 34 -10.04 0.00
 5 29 34 -2.06 0.00
 7 29 34 13.77 0.00
 9 29 34 1.47 0.00
 11 29 34 8.17 0.00
 13 29 34 0.20 0.00
 0 30 34 18.79 0.00
 2 30 34 18.76 0.00
 4 30 34 -2.48 0.00
 6 30 34 -10.87 0.00
 8 30 34 19.09 0.00
 10 30 34 1.30 0.00
 12 30 34 -14.05 0.00
 1 31 34 1.05 0.00
 3 31 34 2.95 0.00
 5 31 34 -2.90 0.00
 7 31 34 -0.80 0.00
 9 31 34 -6.57 0.00
 11 31 34 -7.11 0.00
 0 32 34 -1.60 0.00
 2 32 34 3.22 0.00
 4 32 34 -2.07 0.00
 6 32 34 4.79 0.00
 8 32 34 -3.27 0.00
 10 32 34 2.80 0.00
 1 33 34 -0.59 0.00
 3 33 34 -3.15 0.00
 5 33 34 9.72 0.00
 7 33 34 2.96 0.00
 9 33 34 -14.14 0.00
 0 34 34 -12.22 0.00
 2 34 34 12.29 0.00
 4 34 34 1.75 0.00
 6 34 34 10.73 0.00
 8 34 34 -0.34 0.00
 1 35 34 8.46 0.00
 3 35 34 13.33 0.00
 5 35 34 1.33 0.00
 7 35 34 -11.28 0.00
 0 36 34 -17.09 0.00
 2 36 34 -9.24 0.00
 4 36 34 6.17 0.00
 6 36 34 -12.25 0.00
 1 37 34 -8.98 0.00
 3 37 34 -2.60 0.00
 5 37 34 0.39 0.00
 0 38 34 -17.34 0.00
 2 38 34 -12.43 0.00
 2 1 35 -3.45 0.00
 4 1 35 -0.98 0.00
 6 1 35 -14.43 0.00
 8 1 35 -0.79 0.00
 10 1 35 6.45 0.00
 12 1 35 12.24 0.00
 14 1 35 7.57 0.00
 16 1 35 -2.53 0.00
 18 1 35 -6.32 0.00
 1 2 35 0.22 0.00
 3 2 35 4.13 0.00
 5 2 35 -3.04 0.00
 7 2 35 0.58 0.00
 9 2 35 -6.02 0.00
 11 2 35 11.20 0.00
 13 2 35 34.68 0.00
 15 2 35 -2.78 0.00
 17 2 35 3.92 0.00
 19 2 35 4.86 0.00
 2 3 35 -10.91 0.00
 4 3 35 14.38 0.00
 6 3 35 20.44 0.00
 8 3 35 9.74 0.00
 10 3 35 -2.59 0.00
 12 3 35 -1.71 0.00
 14 3 35 -5.82 0.00
 16 3 35 -12.83 0.00
 18 3 35 5.13 0.00
 1 4 35 -13.43 0.00
 3 4 35 -9.60 0.00
 5 4 35 -3.28 0.00
 7 4 35 -23.82 0.00
 9 4 35 -11.76 0.00
 11 4 35 4.36 0.00
 13 4 35 10.17 0.00
 15 4 35 -0.72 0.00
 17 4 35 -2.76 0.00
 19 4 35 -9.18 0.00
 2 5 35 3.68 0.00
 4 5 35 4.13 0.00
 6 5 35 13.20 0.00
 8 5 35 -6.48 0.00
 10 5 35 15.85 0.00
 12 5 35 4.57 0.00
 14 5 35 2.26 0.00
 16 5 35 -1.42 0.00
 18 5 35 0.14 0.00
 1 6 35 -7.63 0.00
 3 6 35 -12.32 0.00
 5 6 35 -3.64 0.00
 7 6 35 -6.35 0.00
 9 6 35 -4.97 0.00
 11 6 35 6.29 0.00
 13 6 35 2.01 0.00
 15 6 35 -3.99 0.00
 17 6 35 13.46 0.00
 19 6 35 3.82 0.00
 2 7 35 -2.20 0.00
 4 7 35 -2.09 0.00
 6 7 35 -1.74 0.00
 8 7 35 -10.89 0.00
 10 7 35 12.29 0.00
 12 7 35 2.27 0.00
 14 7 35 -0.55 0.00
 16 7 35 -8.65 0.00
 18 7 35 -5.61 0.00
 1 8 35 5.13 0.00
 3 8 35 -2.32 0.00
 5 8 35 -6.27 0.00
 7 8 35 -7.00 0.00
 9 8 35 0.55 0.00
 11 8 35 9.55 0.00
 13 8 35 14.42 0.00
 15 8 35 1.85 0.00
 17 8 35 8.02 0.00
 19 8 35 -7.05 0.00
 2 9 35 -1.23 0.00
 4 9 35 -7.12 0.00
 6 9 35 8.33 0.00
 8 9 35 2.53 0.00
 10 9 35 3.74 0.00
 12 9 35 11.07 0.00
 14 9 35 4.80 0.00
 16 9 35 3.94 0.00
 18 9 35 -5.77 0.00
 1 10 35 3.84 0.00
 3 10 35 0.34 0.00
 5 10 35 0.84 0.00
 7 10 35 3.27 0.00
 9 10 35 -2.04 0.00
 11 10 35 16.43 0.00
 13 10 35 -6.39 0.00
 15 10 35 1.49 0.00
 17 10 35 0.41 0.00
 19 10 35 -8.41 0.00
 2 11 35 1.84 0.00
 4 11 35 -0.04 0.00
 6 11 35 -2.64 0.00
 8 11 35 -11.31 0.00
 10 11 35 3.63 0.00
 12 11 35 2.12 0.00
 14 11 35 8.75 0.00
 16 11 35 7.11 0.00
 18 11 35 2.01 0.00
 1 12 35 -4.70 0.00
 3 12 35 -3.89 0.00
 5 12 35 6.60 0.00
 7 12 35 -13.28 0.00
 9 12 35 1.95 0.00
 11 12 35 4.77 0.00
 13 12 35 -14.55 0.00
 15 12 35 3.53 0.00
 17 12 35 2.93 0.00
 2 13 35 9.04 0.00
 4 13 35 -9.11 0.00
 6 13 35 -0.13 0.00
 8 13 35 0.01 0.00
 10 13 35 2.25 0.00
 12 13 35 -21.11 0.00
 14 13 35 -21.62 0.00
 16 13 35 -3.20 0.00
 18 13 35 2.05 0.00
 1 14 35 7.31 0.00
 3 14 35 19.25 0.00
 5 14 35 -7.44 0.00
 7 14 35 -9.18 0.00
 9 14 35 -6.84 0.00
 11 14 35 17.63 0.00
 13 14 35 -2.47 0.00
 15 14 35 4.78 0.00
 17 14 35 8.71 0.00
 2 15 35 -3.30 0.00
 4 15 35 -8.01 0.00
 6 15 35 -15.97 0.00
 8 15 35 -11.42 0.00
 10 15 35 -1.78 0.00
 12 15 35 -13.94 0.00
 14 15 35 -10.79 0.00
 16 15 35 4.37 0.00
 18 15 35 -1.94 0.00
 1 16 35 -6.68 0.00
 3 16 35 -4.00 0.00
 5 16 35 -3.03 0.00
 7 16 35 -4.09 0.00
 9 16 35 -9.64 0.00
 11 16 35 1.61 0.00
 13 16 35 -1.34 0.00
 15 16 35 -6.51 0.00
 17 16 35 -4.95 0.00
 2 17 35 8.96 0.00
 4 17 35 4.72 0.00
 6 17 35 -11.71 0.00
 8 17 35 -3.75 0.00
 10 17 35 1.75 0.00
 12 17 35 5.01 0.00
 14 17 35 2.37 0.00
 16 17 35 1.52 0.00
 1 18 35 4.22 0.00
 3 18 35 6.03 0.00
 5 18 35 3.75 0.00
 7 18 35 1.16 0.00
 9 18 35 -0.18 0.00
 11 18 35 4.71 0.00
 13 18 35 1.32 0.00
 15 18 35 -4.29 0.00
 17 18 35 12.58 0.00
 2 19 35 8.14 0.00
 4 19 35 4.18 0.00
 6 19 35 13.13 0.00
 8 19 35 2.61 0.00
 10 19 35 8.80 0.00
 12 19 35 5.96 0.00
 14 19 35 -10.66 0.00
 16 19 35 1.53 0.00
 1 20 35 0.00 0.00
 3 20 35 6.45 0.00
 5 20 35 1.86 0.00
 7 20 35 -10.27 0.00
 9 20 35 -5.95 0.00
 11 20 35 -9.17 0.00
 13 20 35 -9.05 0.00
 15 20 35 -12.16 0.00
 2 21 35 -1.80 0.00
 4 21 35 -12.84 0.00
 6 21 35 2.34 0.00
 8 21 35 -0.92 0.00
 10 21 35 -9.71 0.00
 12 21 35 16.95 0.00
 14 21 35 1.42 0.00
 16 21 35 2.18 0.00
 1 22 35 -4.02 0.00
 3 22 35 -10.63 0.00
 5 22 35 -10.21 0.00
 7 22 35 1.71 0.00
 9 22 35 -2.12 0.00
 11 22 35 -0.03 0.00
 13 22 35 -1.91 0.00
 15 22 35 -12.70 0.00
 2 23 35 -0.93 0.00
 4 23 35 6.94 0.00
 6 23 35 -3.51 0.00
 8 23 35 16.82 0.00
 10 23 35 -1.37 0.00
 12 23 35 15.94 0.00
 14 23 35 17.14 0.00
 1 24 35 0.27 0.00
 3 24 35 7.06 0.00
 5 24 35 -0.06 0.00
 7 24 35 2.24 0.00
 9 24 35 -4.35 0.00
 11 24 35 -10.40 0.00
 13 24 35 4.22 0.00
 15 24 35 -1.34 0.00
 2 25 35 0.63 0.00
 4 25 35 -1.65 0.00
 6 25 35 5.29 0.00
 8 25 35 -0.21 0.00
 10 25 35 -6.23 0.00
 12 25 35 -9.30 0.00
 14 25 35 -3.51 0.00
 1 26 35 7.82 0.00
 3 26 35 9.02 0.00
 5 26 35 -17.29 0.00
 7 26 35 9.74 0.00
 9 26 35 -5.50 0.00
 11 26 35 -4.53 0.00
 13 26 35 -9.57 0.00
 2 27 35 9.19 0.00
 4 27 35 14.78 0.00
 6 27 35 -8.45 0.00
 8 27 35 8.02 0.00
 10 27 35 0.48 0.00
 12 27 35 4.88 0.00
 14 27 35 6.36 0.00
 1 28 35 0.91 0.00
 3 28 35 5.61 0.00
 5 28 35 -3.53 0.00
 7 28 35 -6.24 0.00
 9 28 35 8.64 0.00
 11 28 35 0.24 0.00
 13 28 35 -15.36 0.00
 2 29 35 0.34 0.00
 4 29 35 -0.56 0.00
 6 29 35 5.02 0.00
 8 29 35 5.31 0.00
 10 29 35 6.85 0.00
 12 29 35 1.44 0.00
 1 30 35 8.24 0.00
 3 30 35 7.82 0.00
 5 30 35 -2.20 0.00
 7 30 35 -6.01 0.00
 9 30 35 3.34 0.00
 11 30 35 5.23 0.00
 2 31 35 4.08 0.00
 4 31 35 -10.22 0.00
 6 31 35 2.48 0.00
 8 31 35 -6.37 0.00
 10 31 35 3.51 0.00
 1 32 35 9.51 0.00
 3 32 35 -13.64 0.00
 5 32 35 -21.53 0.00
 7 32 35 2.35 0.00
 9 32 35 -1.81 0.00
 2 33 35 -14.42 0.00
 4 33 35 3.42 0.00
 6 33 35 2.00 0.00
 8 33 35 -16.07 0.00
 1 34 35 0.41 0.00
 3 34 35 -8.61 0.00
 5 34 35 4.64 0.00
 7 34 35 -7.52 0.00
 2 35 35 -26.26 0.00
 4 35 35 -11.61 0.00
 6 35 35 6.64 0.00
 1 36 35 0.99 0.00
 3 36 35 -11.91 0.00
 5 36 35 0.23 0.00
 2 37 35 -7.63 0.00
 4 37 35 -14.36 0.00
 1 38 35 -0.94 0.00
 0 0 36 24.30 0.00
 2 0 36 23.55 0.00
 4 0 36 12.09 0.00
 6 0 36 5.39 0.00
 8 0 36 -8.75 0.00
 10 0 36 -11.14 0.00
 12 0 36 -6.88 0.00
 14 0 36 38.13 0.00
 16 0 36 3.82 0.00
 18 0 36 -3.97 0.00
 1 1 36 25.15 0.00
 3 1 36 -4.82 0.00
 5 1 36 0.49 0.00
 7 1 36 -3.17 0.00
 9 1 36 1.99 0.00
 11 1 36 -4.70 0.00
 13 1 36 -9.26 0.00
 15 1 36 -6.64 0.00
 17 1 36 -10.26 0.00
 19 1 36 -12.20 0.00
 0 2 36 -13.03 0.00
 2 2 36 -4.45 0.00
 4 2 36 -1.30 0.00
 6 2 36 -4.02 0.00
 8 2 36 -4.90 0.00
 10 2 36 -2.75 0.00
 12 2 36 7.39 0.00
 14 2 36 -11.37 0.00
 16 2 36 1.13 0.00
 18 2 36 -5.28 0.00
 1 3 36 3.98 0.00
 3 3 36 16.88 0.00
 5 3 36 0.66 0.00
 7 3 36 -3.30 0.00
 9 3 36 -0.34 0.00
 11 3 36 11.60 0.00
 13 3 36 -6.67 0.00
 15 3 36 -0.66 0.00
 17 3 36 10.77 0.00
 19 3 36 -5.01 0.00
 0 4 36 -0.94 0.00
 2 4 36 -10.83 0.00
 4 4 36 -0.73 0.00
 6 4 36 3.46 0.00
 8 4 36 2.54 0.00
 10 4 36 -4.50 0.00
 12 4 36 5.31 0.00
 14 4 36 -0.02 0.00
 16 4 36 2.61 0.00
 18 4 36 17.41 0.00
 1 5 36 10.47 0.00
 3 5 36 -2.16 0.00
 5 5 36 1.32 0.00
 7 5 36 -6.54 0.00
 9 5 36 -13.91 0.00
 11 5 36 -1.09 0.00
 13 5 36 4.99 0.00
 15 5 36 -4.30 0.00
 17 5 36 0.03 0.00
 19 5 36 -13.55 0.00
 0 6 36 -13.68 0.00
 2 6 36 -2.45 0.00
 4 6 36 12.26 0.00
 6 6 36 7.86 0.00
 8 6 36 -9.77 0.00
 10 6 36 -17.20 0.00
 12 6 36 -0.61 0.00
 14 6 36 -4.03 0.00
 16 6 36 -7.71 0.00
 18 6 36 3.05 0.00
 1 7 36 -9.58 0.00
 3 7 36 -12.16 0.00
 5 7 36 -5.72 0.00
 7 7 36 8.37 0.00
 9 7 36 -5.50 0.00
 11 7 36 -1.84 0.00
 13 7 36 11.04 0.00
 15 7 36 -3.50 0.00
 17 7 36 4.70 0.00
 19 7 36 -13.55 0.00
 0 8 36 -4.62 0.00
 2 8 36 9.34 0.00
 4 8 36 -12.01 0.00
 6 8 36 -8.28 0.00
 8 8 36 -5.98 0.00
 10 8 36 -8.69 0.00
 12 8 36 26.47 0.00
 14 8 36 13.76 0.00
 16 8 36 10.52 0.00
 18 8 36 -2.01 0.00
 1 9 36 14.32 0.00
 3 9 36 19.70 0.00
 5 9 36 8.48 0.00
 7 9 36 4.13 0.00
 9 9 36 -2.47 0.00
 11 9 36 -5.67 0.00
 13 9 36 0.02 0.00
 15 9 36 -10.20 0.00
 17 9 36 -10.87 0.00
 19 9 36 3.33 0.00
 0 10 36 7.13 0.00
 2 10 36 -16.89 0.00
 4 10 36 -6.24 0.00
 6 10 36 2.10 0.00
 8 10 36 -3.71 0.00
 10 10 36 -8.11 0.00
 12 10 36 4.00 0.00
 14 10 36 -15.42 0.00
 16 10 36 -1.66 0.00
 18 10 36 -10.05 0.00
 1 11 36 -1.35 0.00
 3 11 36 -9.85 0.00
 5 11 36 -9.41 0.00
 7 11 36 -7.61 0.00
 9 11 36 -12.76 0.00
 11 11 36 0.95 0.00
 13 11 36 4.67 0.00
 15 11 36 2.25 0.00
 17 11 36 5.40 0.00
 0 12 36 -0.16 0.00
 2 12 36 -5.40 0.00
 4 12 36 -4.78 0.00
 6 12 36 5.52 0.00
 8 12 36 6.57 0.00
 10 12 36 -5.22 0.00
 12 12 36 -0.10 0.00
 14 12 36 -6.65 0.00
 16 12 36 -6.33 0.00
 18 12 36 -4.07 0.00
 1 13 36 2.37 0.00
 3 13 36 1.43 0.00
 5 13 36 4.83 0.00
 7 13 36 -7.95 0.00
 9 13 36 2.63 0.00
 11 13 36 3.18 0.00
 13 13 36 -1.18 0.00
 15 13 36 4.38 0.00
 17 13 36 -1.96 0.00
 0 14 36 8.01 0.00
 2 14 36 0.75 0.00
 4 14 36 2.11 0.00
 6 14 36 0.99 0.00
 8 14 36 5.13 0.00
 10 14 36 -1.77 0.00
 12 14 36 -26.64 0.00
 14 14 36 1.25 0.00
 16 14 36 -2.41 0.00
 18 14 36 2.81 0.00
 1 15 36 -5.66 0.00
 3 15 36 -10.50 0.00
 5 15 36 6.70 0.00
 7 15 36 0.65 0.00
 9 15 36 6.37 0.00
 11 15 36 -8.17 0.00
 13 15 36 11.84 0.00
 15 15 36 15.82 0.00
 17 15 36 -0.67 0.00
 0 16 36 -1.78 0.00
 2 16 36 -8.83 0.00
 4 16 36 -5.60 0.00
 6 16 36 1.04 0.00
 8 16 36 7.78 0.00
 10 16 36 3.77 0.00
 12 16 36 -6.28 0.00
 14 16 36 -10.08 0.00
 16 16 36 -13.65 0.00
 1 17 36 -7.70 0.00
 3 17 36 -9.84 0.00
 5 17 36 6.04 0.00
 7 17 36 -3.77 0.00
 9 17 36 -6.68 0.00
 11 17 36 3.16 0.00
 13 17 36 6.13 0.00
 15 17 36 1.39 0.00
 17 17 36 4.85 0.00
 0 18 36 -7.56 0.00
 2 18 36 23.84 0.00
 4 18 36 21.93 0.00
 6 18 36 3.80 0.00
 8 18 36 -4.56 0.00
 10 18 36 6.15 0.00
 12 18 36 5.20 0.00
 14 18 36 2.84 0.00
 16 18 36 -3.94 0.00
 1 19 36 -5.19 0.00
 3 19 36 10.84 0.00
 5 19 36 7.98 0.00
 7 19 36 -7.03 0.00
 9 19 36 -2.38 0.00
 11 19 36 -8.61 0.00
 13 19 36 -3.44 0.00
 15 19 36 -8.70 0.00
 0 20 36 4.15 0.00
 2 20 36 3.60 0.00
 4 20 36 10.01 0.00
 6 20 36 -4.91 0.00
 8 20 36 -15.26 0.00
 10 20 36 -5.61 0.00
 12 20 36 9.27 0.00
 14 20 36 -11.81 0.00
 16 20 36 -6.45 0.00
 1 21 36 -5.50 0.00
 3 21 36 -1.29 0.00
 5 21 36 2.96 0.00
 7 21 36 -10.74 0.00
 9 21 36 -4.06 0.00
 11 21 36 -14.94 0.00
 13 21 36 0.79 0.00
 15 21 36 12.99 0.00
 0 22 36 -4.47 0.00
 2 22 36 -2.19 0.00
 4 22 36 17.40 0.00
 6 22 36 12.43 0.00
 8 22 36 -6.92 0.00
 10 22 36 -5.00 0.00
 12 22 36 9.49 0.00
 14 22 36 1.53 0.00
 1 23 36 10.78 0.00
 3 23 36 -20.34 0.00
 5 23 36 1.39 0.00
 7 23 36 4.67 0.00
 9 23 36 -6.21 0.00
 11 23 36 -0.37 0.00
 13 23 36 -2.59 0.00
 15 23 36 -2.89 0.00
 0 24 36 10.74 0.00
 2 24 36 -3.83 0.00
 4 24 36 -17.21 0.00
 6 24 36 10.49 0.00
 8 24 36 5.65 0.00
 10 24 36 -0.60 0.00
 12 24 36 16.31 0.00
 14 24 36 -6.68 0.00
 1 25 36 -0.77 0.00
 3 25 36 -10.88 0.00
 5 25 36 21.12 0.00
 7 25 36 18.74 0.00
 9 25 36 -8.76 0.00
 11 25 36 -3.72 0.00
 13 25 36 -9.00 0.00
 0 26 36 1.23 0.00
 2 26 36 -1.42 0.00
 4 26 36 -4.67 0.00
 6 26 36 0.26 0.00
 8 26 36 -7.61 0.00
 10 26 36 -10.10 0.00
 12 26 36 18.62 0.00
 14 26 36 0.00 0.00
 1 27 36 -6.03 0.00
 3 27 36 0.84 0.00
 5 27 36 -3.74 0.00
 7 27 36 2.58 0.00
 9 27 36 -1.85 0.00
 11 27 36 -1.99 0.00
 13 27 36 7.18 0.00
 0 28 36 0.40 0.00
 2 28 36 3.06 0.00
 4 28 36 10.60 0.00
 6 28 36 1.76 0.00
 8 28 36 -0.38 0.00
 10 28 36 8.57 0.00
 12 28 36 -7.28 0.00
 1 29 36 11.21 0.00
 3 29 36 7.79 0.00
 5 29 36 -19.89 0.00
 7 29 36 -1.51 0.00
 9 29 36 7.62 0.00
 11 29 36 6.83 0.00
 0 30 36 -7.01 0.00
 2 30 36 8.17 0.00
 4 30 36 -8.63 0.00
 6 30 36 1.21 0.00
 8 30 36 -11.01 0.00
 10 30 36 -10.39 0.00
 1 31 36 10.66 0.00
 3 31 36 8.96 0.00
 5 31 36 16.56 0.00
 7 31 36 14.89 0.00
 9 31 36 -7.20 0.00
 11 31 36 -0.61 0.00
 0 32 36 1.42 0.00
 2 32 36 -5.51 0.00
 4 32 36 -8.64 0.00
 6 32 36 9.50 0.00
 8 32 36 0.74 0.00
 10 32 36 3.15 0.00
 1 33 36 7.01 0.00
 3 33 36 4.05 0.00
 5 33 36 3.38 0.00
 7 33 36 -8.55 0.00
 9 33 36 -1.61 0.00
 0 34 36 10.93 0.00
 2 34 36 -2.55 0.00
 4 34 36 9.00 0.00
 6 34 36 -12.08 0.00
 8 34 36 2.81 0.00
 1 35 36 -5.06 0.00
 3 35 36 21.96 0.00
 5 35 36 5.59 0.00
 7 35 36 -2.78 0.00
 0 36 36 3.09 0.00
 2 36 36 -7.10 0.00
 4 36 36 -0.40 0.00
 1 37 36 -10.50 0.00
 3 37 36 -9.02 0.00
 2 1 37 -18.04 0.00
 4 1 37 -1.86 0.00
 6 1 37 4.16 0.00
 8 1 37 5.54 0.00
 10 1 37 -0.21 0.00
 12 1 37 -10.07 0.00
 14 1 37 18.86 0.00
 16 1 37 -3.45 0.00
 18 1 37 -3.33 0.00
 1 2 37 -9.04 0.00
 3 2 37 3.52 0.00
 5 2 37 8.66 0.00
 7 2 37 0.89 0.00
 9 2 37 3.01 0.00
 11 2 37 -6.55 0.00
 13 2 37 10.37 0.00
 15 2 37 15.12 0.00
 17 2 37 -9.81 0.00
 19 2 37 -7.40 0.00
 2 3 37 -5.92 0.00
 4 3 37 -5.76 0.00
 6 3 37 -4.23 0.00
 8 3 37 7.26 0.00
 10 3 37 -6.91 0.00
 12 3 37 -9.01 0.00
 14 3 37 13.90 0.00
 16 3 37 13.00 0.00
 18 3 37 -2.09 0.00
 1 4 37 3.03 0.00
 3 4 37 -4.90 0.00
 5 4 37 3.53 0.00
 7 4 37 -0.21 0.00
 9 4 37 5.96 0.00
 11 4 37 -10.14 0.00
 13 4 37 -2.75 0.00
 15 4 37 1.10 0.00
 17 4 37 -3.21 0.00
 19 4 37 2.41 0.00
 2 5 37 -9.78 0.00
 4 5 37 10.12 0.00
 6 5 37 -2.74 0.00
 8 5 37 7.78 0.00
 10 5 37 4.34 0.00
 12 5 37 -0.23 0.00
 14 5 37 7.33 0.00
 16 5 37 1.82 0.00
 18 5 37 -9.95 0.00
 1 6 37 -0.33 0.00
 3 6 37 0.88 0.00
 5 6 37 6.20 0.00
 7 6 37 8.36 0.00
 9 6 37 -4.81 0.00
 11 6 37 6.16 0.00
 13 6 37 7.37 0.00
 15 6 37 6.51 0.00
 17 6 37 8.79 0.00
 19 6 37 -2.83 0.00
 2 7 37 -26.97 0.00
 4 7 37 -12.50 0.00
 6 7 37 -0.47 0.00
 8 7 37 0.40 0.00
 10 7 37 -4.06 0.00
 12 7 37 7.92 0.00
 14 7 37 -1.97 0.00
 16 7 37 5.87 0.00
 18 7 37 1.55 0.00
 1 8 37 -3.67 0.00
 3 8 37 4.81 0.00
 5 8 37 3.71 0.00
 7 8 37 -1.65 0.00
 9 8 37 4.55 0.00
 11 8 37 0.40 0.00
 13 8 37 1.82 0.00
 15 8 37 1.33 0.00
 17 8 37 17.50 0.00
 2 9 37 -7.49 0.00
 4 9 37 -5.46 0.00
 6 9 37 -2.28 0.00
 8 9 37 -0.51 0.00
 10 9 37 1.52 0.00
 12 9 37 6.01 0.00
 14 9 37 -1.83 0.00
 16 9 37 5.10 0.00
 18 9 37 -17.67 0.00
 1 10 37 4.68 0.00
 3 10 37 -20.12 0.00
 5 10 37 0.62 0.00
 7 10 37 6.13 0.00
 9 10 37 2.50 0.00
 11 10 37 16.28 0.00
 13 10 37 9.36 0.00
 15 10 37 -13.88 0.00
 17 10 37 -7.67 0.00
 2 11 37 23.77 0.00
 4 11 37 4.85 0.00
 6 11 37 0.89 0.00
 8 11 37 -8.21 0.00
 10 11 37 6.37 0.00
 12 11 37 12.12 0.00
 14 11 37 4.72 0.00
 16 11 37 8.90 0.00
 18 11 37 15.40 0.00
 1 12 37 -1.86 0.00
 3 12 37 -1.53 0.00
 5 12 37 -9.86 0.00
 7 12 37 -0.54 0.00
 9 12 37 6.93 0.00
 11 12 37 13.80 0.00
 13 12 37 1.49 0.00
 15 12 37 10.58 0.00
 17 12 37 11.27 0.00
 2 13 37 -4.48 0.00
 4 13 37 1.33 0.00
 6 13 37 9.05 0.00
 8 13 37 7.43 0.00
 10 13 37 6.93 0.00
 12 13 37 -1.20 0.00
 14 13 37 -9.93 0.00
 16 13 37 -4.46 0.00
 18 13 37 5.81 0.00
 1 14 37 1.34 0.00
 3 14 37 -0.32 0.00
 5 14 37 0.50 0.00
 7 14 37 5.64 0.00
 9 14 37 4.54 0.00
 11 14 37 2.76 0.00
 13 14 37 -1.74 0.00
 15 14 37 -13.02 0.00
 17 14 37 -5.29 0.00
 2 15 37 8.18 0.00
 4 15 37 -7.13 0.00
 6 15 37 -2.73 0.00
 8 15 37 10.27 0.00
 10 15 37 -2.80 0.00
 12 15 37 0.50 0.00
 14 15 37 -2.93 0.00
 16 15 37 -5.49 0.00
 1 16 37 -6.04 0.00
 3 16 37 -14.23 0.00
 5 16 37 -4.94 0.00
 7 16 37 3.02 0.00
 9 16 37 9.42 0.00
 11 16 37 -8.10 0.00
 13 16 37 0.78 0.00
 15 16 37 8.45 0.00
 17 16 37 3.92 0.00
 2 17 37 4.59 0.00
 4 17 37 -1.41 0.00
 6 17 37 -6.85 0.00
 8 17 37 -2.32 0.00
 10 17 37 -6.98 0.00
 12 17 37 -3.59 0.00
 14 17 37 -7.94 0.00
 16 17 37 -8.05 0.00
 1 18 37 2.34 0.00
 3 18 37 3.07 0.00
 5 18 37 6.95 0.00
 7 18 37 7.31 0.00
 9 18 37 -4.14 0.00
 11 18 37 6.20 0.00
 13 18 37 4.90 0.00
 15 18 37 -15.33 0.00
 2 19 37 -13.59 0.00
 4 19 37 -0.38 0.00
 6 19 37 -3.94 0.00
 8 19 37 -3.01 0.00
 10 19 37 10.16 0.00
 12 19 37 -11.95 0.00
 14 19 37 -4.76 0.00
 16 19 37 -1.50 0.00
 1 20 37 10.46 0.00
 3 20 37 -4.42 0.00
 5 20 37 -0.80 0.00
 7 20 37 -3.00 0.00
 9 20 37 -7.80 0.00
 11 20 37 -20.10 0.00
 13 20 37 8.21 0.00
 15 20 37 -0.72 0.00
 2 21 37 2.25 0.00
 4 21 37 -7.26 0.00
 6 21 37 -19.56 0.00
 8 21 37 -4.36 0.00
 10 21 37 2.09 0.00
 12 21 37 0.62 0.00
 14 21 37 -4.73 0.00
 1 22 37 5.34 0.00
 3 22 37 -5.32 0.00
 5 22 37 -1.91 0.00
 7 22 37 11.21 0.00
 9 22 37 -4.75 0.00
 11 22 37 -5.27 0.00
 13 22 37 7.45 0.00
 15 22 37 4.28 0.00
 2 23 37 10.90 0.00
 4 23 37 -2.94 0.00
 6 23 37 -3.00 0.00
 8 23 37 -2.13 0.00
 10 23 37 -8.33 0.00
 12 23 37 9.25 0.00
 14 23 37 6.46 0.00
 1 24 37 9.92 0.00
 3 24 37 10.76 0.00
 5 24 37 -0.39 0.00
 7 24 37 16.90 0.00
 9 24 37 20.32 0.00
 11 24 37 5.47 0.00
 13 24 37 9.96 0.00
 2 25 37 -14.79 0.00
 4 25 37 5.20 0.00
 6 25 37 7.46 0.00
 8 25 37 3.39 0.00
 10 25 37 -15.38 0.00
 12 25 37 2.75 0.00
 14 25 37 -0.78 0.00
 1 26 37 7.92 0.00
 3 26 37 -0.54 0.00
 5 26 37 4.34 0.00
 7 26 37 -9.82 0.00
 9 26 37 -5.98 0.00
 11 26 37 16.59 0.00
 13 26 37 -3.78 0.00
 2 27 37 -1.98 0.00
 4 27 37 -0.52 0.00
 6 27 37 -8.17 0.00
 8 27 37 -4.31 0.00
 10 27 37 -4.60 0.00
 12 27 37 -4.58 0.00
 1 28 37 6.16 0.00
 3 28 37 6.38 0.00
 5 28 37 0.04 0.00
 7 28 37 2.41 0.00
 9 28 37 1.47 0.00
 11 28 37 4.43 0.00
 2 29 37 -1.95 0.00
 4 29 37 7.67 0.00
 6 29 37 4.96 0.00
 8 29 37 10.54 0.00
 10 29 37 22.52 0.00
 12 29 37 6.29 0.00
 1 30 37 3.24 0.00
 3 30 37 2.01 0.00
 5 30 37 -6.68 0.00
 7 30 37 -2.43 0.00
 9 30 37 -0.41 0.00
 11 30 37 0.14 0.00
 2 31 37 -14.89 0.00
 4 31 37 7.25 0.00
 6 31 37 7.36 0.00
 8 31 37 0.02 0.00
 10 31 37 8.96 0.00
 1 32 37 8.42 0.00
 3 32 37 4.25 0.00
 5 32 37 17.42 0.00
 7 32 37 -24.13 0.00
 9 32 37 9.67 0.00
 2 33 37 8.38 0.00
 4 33 37 -1.83 0.00
 6 33 37 8.68 0.00
 8 33 37 2.42 0.00
 1 34 37 -8.63 0.00
 3 34 37 -7.09 0.00
 5 34 37 1.20 0.00
 7 34 37 -1.88 0.00
 2 35 37 5.18 0.00
 4 35 37 10.77 0.00
 6 35 37 -9.89 0.00
 1 36 37 -24.20 0.00
 3 36 37 -9.97 0.00
 0 0 38 35.84 0.00
 2 0 38 6.48 0.00
 4 0 38 5.44 0.00
 6 0 38 -11.75 0.00
 8 0 38 10.64 0.00
 10 0 38 -6.53 0.00
 12 0 38 -11.06 0.00
 14 0 38 -31.06 0.00
 16 0 38 -17.01 0.00
 18 0 38 -9.00 0.00
 1 1 38 14.91 0.00
 3 1 38 -0.61 0.00
 5 1 38 4.98 0.00
 7 1 38 0.63 0.00
 9 1 38 3.04 0.00
 11 1 38 -1.70 0.00
 13 1 38 -1.18 0.00
 15 1 38 0.54 0.00
 17 1 38 5.65 0.00
 0 2 38 -20.60 0.00
 2 2 38 -1.29 0.00
 4 2 38 -8.09 0.00
 6 2 38 5.30 0.00
 8 2 38 -10.33 0.00
 10 2 38 8.55 0.00
 12 2 38 -9.73 0.00
 14 2 38 -3.58 0.00
 16 2 38 -9.97 0.00
 18 2 38 3.49 0.00
 1 3 38 16.48 0.00
 3 3 38 17.95 0.00
 5 3 38 18.36 0.00
 7 3 38 -7.17 0.00
 9 3 38 5.36 0.00
 11 3 38 0.61 0.00
 13 3 38 8.92 0.00
 15 3 38 -3.69 0.00
 17 3 38 12.03 0.00
 0 4 38 -18.97 0.00
 2 4 38 -3.30 0.00
 4 4 38 7.14 0.00
 6 4 38 -4.31 0.00
 8 4 38 3.57 0.00
 10 4 38 -2.74 0.00
 12 4 38 -2.60 0.00
 14 4 38 15.56 0.00
 16 4 38 -12.00 0.00
 18 4 38 -20.26 0.00
 1 5 38 -19.23 0.00
 3 5 38 -13.53 0.00
 5 5 38 -0.72 0.00
 7 5 38 4.51 0.00
 9 5 38 7.04 0.00
 11 5 38 6.00 0.00
 13 5 38 11.73 0.00
 15 5 38 0.28 0.00
 17 5 38 -3.53 0.00
 0 6 38 22.53 0.00
 2 6 38 13.36 0.00
 4 6 38 -2.63 0.00
 6 6 38 -7.23 0.00
 8 6 38 6.23 0.00
 10 6 38 3.42 0.00
 12 6 38 -2.33 0.00
 14 6 38 8.27 0.00
 16 6 38 -6.71 0.00
 18 6 38 -4.17 0.00
 1 7 38 15.50 0.00
 3 7 38 11.34 0.00
 5 7 38 5.46 0.00
 7 7 38 6.03 0.00
 9 7 38 -1.28 0.00
 11 7 38 -2.93 0.00
 13 7 38 15.90 0.00
 15 7 38 -8.06 0.00
 17 7 38 -3.94 0.00
 0 8 38 15.12 0.00
 2 8 38 -2.10 0.00
 4 8 38 5.29 0.00
 6 8 38 1.33 0.00
 8 8 38 2.86 0.00
 10 8 38 0.50 0.00
 12 8 38 9.41 0.00
 14 8 38 7.66 0.00
 16 8 38 -7.12 0.00
 18 8 38 2.66 0.00
 1 9 38 13.07 0.00
 3 9 38 1.67 0.00
 5 9 38 6.16 0.00
 7 9 38 10.47 0.00
 9 9 38 3.05 0.00
 11 9 38 7.25 0.00
 13 9 38 -0.22 0.00
 15 9 38 6.05 0.00
 17 9 38 3.28 0.00
 0 10 38 -10.67 0.00
 2 10 38 15.08 0.00
 4 10 38 -9.23 0.00
 6 10 38 -9.60 0.00
 8 10 38 -1.84 0.00
 10 10 38 3.25 0.00
 12 10 38 -1.29 0.00
 14 10 38 5.39 0.00
 16 10 38 -3.72 0.00
 18 10 38 1.98 0.00
 1 11 38 10.31 0.00
 3 11 38 9.74 0.00
 5 11 38 -9.68 0.00
 7 11 38 -7.02 0.00
 9 11 38 2.04 0.00
 11 11 38 -1.67 0.00
 13 11 38 -4.25 0.00
 15 11 38 -19.26 0.00
 17 11 38 -16.10 0.00
 0 12 38 -7.23 0.00
 2 12 38 -29.85 0.00
 4 12 38 7.70 0.00
 6 12 38 3.14 0.00
 8 12 38 -1.49 0.00
 10 12 38 9.54 0.00
 12 12 38 0.80 0.00
 14 12 38 3.91 0.00
 16 12 38 -7.21 0.00
 1 13 38 -1.32 0.00
 3 13 38 -6.87 0.00
 5 13 38 16.47 0.00
 7 13 38 1.10 0.00
 9 13 38 5.16 0.00
 11 13 38 2.87 0.00
 13 13 38 4.30 0.00
 15 13 38 -5.26 0.00
 17 13 38 7.65 0.00
 0 14 38 -11.60 0.00
 2 14 38 0.21 0.00
 4 14 38 -9.64 0.00
 6 14 38 2.34 0.00
 8 14 38 7.69 0.00
 10 14 38 -8.20 0.00
 12 14 38 4.69 0.00
 14 14 38 -0.59 0.00
 16 14 38 -3.83 0.00
 1 15 38 15.70 0.00
 3 15 38 2.04 0.00
 5 15 38 -20.01 0.00
 7 15 38 -16.74 0.00
 9 15 38 -13.70 0.00
 11 15 38 2.34 0.00
 13 15 38 7.92 0.00
 15 15 38 -2.91 0.00
 17 15 38 -10.33 0.00
 0 16 38 -16.17 0.00
 2 16 38 2.22 0.00
 4 16 38 -6.07 0.00
 6 16 38 -3.96 0.00
 8 16 38 -1.99 0.00
 10 16 38 -0.81 0.00
 12 16 38 -5.28 0.00
 14 16 38 -15.44 0.00
 16 16 38 -4.11 0.00
 1 17 38 33.72 0.00
 3 17 38 2.26 0.00
 5 17 38 -3.25 0.00
 7 17 38 3.14 0.00
 9 17 38 -3.41 0.00
 11 17 38 15.19 0.00
 13 17 38 -7.87 0.00
 15 17 38 0.41 0.00
 0 18 38 -6.49 0.00
 2 18 38 -8.33 0.00
 4 18 38 -6.06 0.00
 6 18 38 1.18 0.00
 8 18 38 2.93 0.00
 10 18 38 11.04 0.00
 12 18 38 5.97 0.00
 14 18 38 10.73 0.00
 16 18 38 -7.38 0.00
 1 19 38 -1.41 0.00
 3 19 38 7.61 0.00
 5 19 38 -4.67 0.00
 7 19 38 1.97 0.00
 9 19 38 -16.12 0.00
 11 19 38 -2.26 0.00
 13 19 38 -2.40 0.00
 15 19 38 -4.59 0.00
 0 20 38 6.60 0.00
 2 20 38 12.17 0.00
 4 20 38 3.04 0.00
 6 20 38 -3.58 0.00
 8 20 38 -14.98 0.00
 10 20 38 -5.34 0.00
 12 20 38 -6.45 0.00
 14 20 38 -6.46 0.00
 1 21 38 10.81 0.00
 3 21 38 -6.39 0.00
 5 21 38 -5.03 0.00
 7 21 38 -6.26 0.00
 9 21 38 4.24 0.00
 11 21 38 -1.60 0.00
 13 21 38 -7.04 0.00
 15 21 38 -12.53 0.00
 0 22 38 -13.67 0.00
 2 22 38 -14.17 0.00
 4 22 38 2.31 0.00
 6 22 38 4.98 0.00
 8 22 38 13.17 0.00
 10 22 38 4.22 0.00
 12 22 38 9.95 0.00
 14 22 38 -5.97 0.00
 1 23 38 -0.73 0.00
 3 23 38 -6.55 0.00
 5 23 38 -5.62 0.00
 7 23 38 -1.03 0.00
 9 23 38 -3.68 0.00
 11 23 38 -9.53 0.00
 13 23 38 5.94 0.00
 0 24 38 4.03 0.00
 2 24 38 -6.78 0.00
 4 24 38 3.59 0.00
 6 24 38 6.98 0.00
 8 24 38 6.07 0.00
 10 24 38 -12.18 0.00
 12 24 38 3.37 0.00
 14 24 38 -8.60 0.00
 1 25 38 16.91 0.00
 3 25 38 7.19 0.00
 5 25 38 -10.41 0.00
 7 25 38 -12.18 0.00
 9 25 38 -3.45 0.00
 11 25 38 -10.37 0.00
 13 25 38 -5.77 0.00
 0 26 38 -3.62 0.00
 2 26 38 -13.64 0.00
 4 26 38 -7.13 0.00
 6 26 38 -4.96 0.00
 8 26 38 -13.48 0.00
 10 26 38 -8.24 0.00
 12 26 38 -3.81 0.00
 1 27 38 5.37 0.00
 3 27 38 10.38 0.00
 5 27 38 -1.20 0.00
 7 27 38 2.42 0.00
 9 27 38 2.67 0.00
 11 27 38 5.92 0.00
 0 28 38 17.09 0.00
 2 28 38 9.07 0.00
 4 28 38 -0.22 0.00
 6 28 38 -0.57 0.00
 8 28 38 -7.29 0.00
 10 28 38 3.27 0.00
 12 28 38 -2.55 0.00
 1 29 38 -11.87 0.00
 3 29 38 -17.15 0.00
 5 29 38 -11.59 0.00
 7 29 38 4.13 0.00
 9 29 38 9.33 0.00
 11 29 38 5.62 0.00
 0 30 38 16.29 0.00
 2 30 38 -6.50 0.00
 4 30 38 -12.07 0.00
 6 30 38 5.04 0.00
 8 30 38 -4.35 0.00
 10 30 38 -1.18 0.00
 1 31 38 -1.79 0.00
 3 31 38 4.66 0.00
 5 31 38 -3.60 0.00
 7 31 38 -3.40 0.00
 9 31 38 7.12 0.00
 0 32 38 19.46 0.00
 2 32 38 -5.43 0.00
 4 32 38 8.06 0.00
 6 32 38 13.37 0.00
 8 32 38 0.02 0.00
 1 33 38 -16.31 0.00
 3 33 38 1.27 0.00
 5 33 38 3.07 0.00
 7 33 38 -8.66 0.00
 0 34 38 25.54 0.00
 2 34 38 2.81 0.00
 4 34 38 6.59 0.00
 6 34 38 -2.30 0.00
 1 35 38 5.42 0.00
 3 35 38 9.37 0.00
 5 35 38 11.26 0.00
 0 36 38 -6.96 0.00
 2 36 38 -6.26 0.00
 2 1 39 0.90 0.00
 4 1 39 7.82 0.00
 6 1 39 8.98 0.00
 8 1 39 11.92 0.00
 10 1 39 5.31 0.00
 12 1 39 10.70 0.00
 14 1 39 -0.52 0.00
 16 1 39 5.09 0.00
 18 1 39 -6.70 0.00
 1 2 39 -3.69 0.00
 3 2 39 -11.09 0.00
 5 2 39 0.56 0.00
 7 2 39 1.29 0.00
 9 2 39 -9.83 0.00
 11 2 39 -5.47 0.00
 13 2 39 1.27 0.00
 15 2 39 13.73 0.00
 17 2 39 -0.33 0.00
 2 3 39 -10.15 0.00
 4 3 39 -6.67 0.00
 6 3 39 -8.03 0.00
 8 3 39 -1.21 0.00
 10 3 39 -1.86 0.00
 12 3 39 3.95 0.00
 14 3 39 2.35 0.00
 16 3 39 -0.59 0.00
 18 3 39 -1.15 0.00
 1 4 39 -1.44 0.00
 3 4 39 -2.57 0.00
 5 4 39 1.56 0.00
 7 4 39 -19.12 0.00
 9 4 39 -10.73 0.00
 11 4 39 -9.97 0.00
 13 4 39 -16.25 0.00
 15 4 39 -8.78 0.00
 17 4 39 -12.28 0.00
 2 5 39 12.26 0.00
 4 5 39 14.60 0.00
 6 5 39 3.75 0.00
 8 5 39 1.38 0.00
 10 5 39 11.55 0.00
 12 5 39 20.46 0.00
 14 5 39 3.76 0.00
 16 5 39 -2.50 0.00
 18 5 39 -0.74 0.00
 1 6 39 -7.01 0.00
 3 6 39 -6.42 0.00
 5 6 39 9.29 0.00
 7 6 39 3.46 0.00
 9 6 39 5.24 0.00
 11 6 39 -6.72 0.00
 13 6 39 3.38 0.00
 15 6 39 -14.17 0.00
 17 6 39 6.90 0.00
 2 7 39 -10.29 0.00
 4 7 39 -6.90 0.00
 6 7 39 -6.46 0.00
 8 7 39 -7.60 0.00
 10 7 39 -9.31 0.00
 12 7 39 -0.14 0.00
 14 7 39 -5.90 0.00
 16 7 39 -1.01 0.00
 18 7 39 9.32 0.00
 1 8 39 -0.23 0.00
 3 8 39 -1.41 0.00
 5 8 39 -12.69 0.00
 7 8 39 0.43 0.00
 9 8 39 -4.64 0.00
 11 8 39 -2.17 0.00
 13 8 39 6.67 0.00
 15 8 39 1.12 0.00
 17 8 39 -10.20 0.00
 2 9 39 3.69 0.00
 4 9 39 3.26 0.00
 6 9 39 -6.39 0.00
 8 9 39 2.36 0.00
 10 9 39 2.54 0.00
 12 9 39 6.79 0.00
 14 9 39 1.95 0.00
 16 9 39 7.28 0.00
 18 9 39 2.26 0.00
 1 10 39 -1.18 0.00
 3 10 39 3.11 0.00
 5 10 39 2.73 0.00
 7 10 39 4.10 0.00
 9 10 39 4.61 0.00
 11 10 39 16.42 0.00
 13 10 39 -0.94 0.00
 15 10 39 0.74 0.00
 17 10 39 -1.31 0.00
 2 11 39 -5.72 0.00
 4 11 39 8.35 0.00
 6 11 39 -3.14 0.00
 8 11 39 3.60 0.00
 10 11 39 9.17 0.00
 12 11 39 5.22 0.00
 14 11 39 12.11 0.00
 16 11 39 2.85 0.00
 1 12 39 -10.07 0.00
 3 12 39 -8.02 0.00
 5 12 39 4.67 0.00
 7 12 39 -10.34 0.00
 9 12 39 17.38 0.00
 11 12 39 -4.45 0.00
 13 12 39 0.87 0.00
 15 12 39 -15.45 0.00
 17 12 39 -1.91 0.00
 2 13 39 11.58 0.00
 4 13 39 2.06 0.00
 6 13 39 -8.29 0.00
 8 13 39 -3.05 0.00
 10 13 39 -10.44 0.00
 12 13 39 -8.76 0.00
 14 13 39 -18.55 0.00
 16 13 39 3.49 0.00
 1 14 39 7.83 0.00
 3 14 39 30.21 0.00
 5 14 39 -2.51 0.00
 7 14 39 6.11 0.00
 9 14 39 -0.95 0.00
 11 14 39 0.27 0.00
 13 14 39 -1.64 0.00
 15 14 39 -7.57 0.00
 17 14 39 -7.20 0.00
 2 15 39 -6.99 0.00
 4 15 39 7.32 0.00
 6 15 39 -16.24 0.00
 8 15 39 8.35 0.00
 10 15 39 8.52 0.00
 12 15 39 -10.00 0.00
 14 15 39 -17.44 0.00
 16 15 39 9.02 0.00
 1 16 39 -0.25 0.00
 3 16 39 -4.75 0.00
 5 16 39 -8.01 0.00
 7 16 39 5.48 0.00
 9 16 39 9.64 0.00
 11 16 39 1.10 0.00
 13 16 39 -14.81 0.00
 15 16 39 4.21 0.00
 2 17 39 -2.26 0.00
 4 17 39 2.67 0.00
 6 17 39 -2.13 0.00
 8 17 39 23.39 0.00
 10 17 39 -3.14 0.00
 12 17 39 -5.45 0.00
 14 17 39 4.39 0.00
 16 17 39 -8.26 0.00
 1 18 39 10.37 0.00
 3 18 39 5.00 0.00
 5 18 39 6.03 0.00
 7 18 39 11.82 0.00
 9 18 39 7.50 0.00
 11 18 39 0.73 0.00
 13 18 39 -6.08 0.00
 15 18 39 5.23 0.00
 2 19 39 -5.75 0.00
 4 19 39 7.15 0.00
 6 19 39 14.52 0.00
 8 19 39 0.52 0.00
 10 19 39 0.48 0.00
 12 19 39 -6.45 0.00
 14 19 39 -13.48 0.00
 1 20 39 -3.28 0.00
 3 20 39 -3.67 0.00
 5 20 39 25.89 0.00
 7 20 39 6.39 0.00
 9 20 39 -5.69 0.00
 11 20 39 -6.34 0.00
 13 20 39 9.85 0.00
 15 20 39 3.49 0.00
 2 21 39 7.28 0.00
 4 21 39 -13.53 0.00
 6 21 39 14.44 0.00
 8 21 39 -4.80 0.00
 10 21 39 5.19 0.00
 12 21 39 2.11 0.00
 14 21 39 -0.51 0.00
 1 22 39 0.89 0.00
 3 22 39 -4.70 0.00
 5 22 39 2.58 0.00
 7 22 39 12.31 0.00
 9 22 39 13.38 0.00
 11 22 39 -4.15 0.00
 13 22 39 8.48 0.00
 2 23 39 -11.75 0.00
 4 23 39 2.25 0.00
 6 23 39 9.43 0.00
 8 23 39 2.78 0.00
 10 23 39 -10.22 0.00
 12 23 39 -9.21 0.00
 14 23 39 4.35 0.00
 1 24 39 12.75 0.00
 3 24 39 7.42 0.00
 5 24 39 2.74 0.00
 7 24 39 3.31 0.00
 9 24 39 -1.64 0.00
 11 24 39 -2.21 0.00
 13 24 39 4.10 0.00
 2 25 39 -3.50 0.00
 4 25 39 12.35 0.00
 6 25 39 -0.46 0.00
 8 25 39 4.04 0.00
 10 25 39 -2.15 0.00
 12 25 39 -2.14 0.00
 1 26 39 -0.03 0.00
 3 26 39 18.41 0.00
 5 26 39 1.79 0.00
 7 26 39 19.50 0.00
 9 26 39 -3.86 0.00
 11 26 39 -10.55 0.00
 2 27 39 2.43 0.00
 4 27 39 1.87 0.00
 6 27 39 -17.56 0.00
 8 27 39 3.35 0.00
 10 27 39 -4.47 0.00
 12 27 39 -0.14 0.00
 1 28 39 -6.29 0.00
 3 28 39 11.29 0.00
 5 28 39 4.98 0.00
 7 28 39 -1.06 0.00
 9 28 39 0.12 0.00
 11 28 39 -10.43 0.00
 2 29 39 7.65 0.00
 4 29 39 2.41 0.00
 6 29 39 -7.71 0.00
 8 29 39 -10.12 0.00
 10 29 39 3.34 0.00
 1 30 39 1.57 0.00
 3 30 39 17.07 0.00
 5 30 39 22.12 0.00
 7 30 39 -0.20 0.00
 9 30 39 11.98 0.00
 2 31 39 -5.18 0.00
 4 31 39 -5.60 0.00
 6 31 39 -10.31 0.00
 8 31 39 -17.17 0.00
 1 32 39 1.41 0.00
 3 32 39 3.36 0.00
 5 32 39 8.14 0.00
 7 32 39 -9.36 0.00
 2 33 39 0.03 0.00
 4 33 39 4.28 0.00
 6 33 39 -1.43 0.00
 1 34 39 -11.04 0.00
 3 34 39 5.13 0.00
 5 34 39 26.04 0.00
 2 35 39 -7.36 0.00
 4 35 39 -16.07 0.00
 0 0 40 34.54 0.00
 2 0 40 19.54 0.00
 4 0 40 -15.26 0.00
 6 0 40 5.60 0.00
 8 0 40 0.02 0.00
 10 0 40 16.69 0.00
 12 0 40 -14.57 0.00
 14 0 40 6.75 0.00
 16 0 40 3.15 0.00
 18 0 40 -10.55 0.00
 1 1 40 11.47 0.00
 3 1 40 10.86 0.00
 5 1 40 3.39 0.00
 7 1 40 -7.57 0.00
 9 1 40 -2.13 0.00
 11 1 40 -2.64 0.00
 13 1 40 -0.32 0.00
 15 1 40 -7.93 0.00
 17 1 40 -3.30 0.00
 0 2 40 -14.35 0.00
 2 2 40 -7.06 0.00
 4 2 40 0.21 0.00
 6 2 40 -1.29 0.00
 8 2 40 -4.14 0.00
 10 2 40 8.79 0.00
 12 2 40 2.79 0.00
 14 2 40 -13.37 0.00
 16 2 40 0.20 0.00
 18 2 40 -15.00 0.00
 1 3 40 -8.29 0.00
 3 3 40 10.44 0.00
 5 3 40 4.44 0.00
 7 3 40 -11.21 0.00
 9 3 40 -5.24 0.00
 11 3 40 3.73 0.00
 13 3 40 -2.52 0.00
 15 3 40 6.31 0.00
 17 3 40 -2.61 0.00
 0 4 40 -6.42 0.00
 2 4 40 -18.61 0.00
 4 4 40 -8.30 0.00
 6 4 40 0.79 0.00
 8 4 40 0.93 0.00
 10 4 40 7.78 0.00
 12 4 40 -8.46 0.00
 14 4 40 0.08 0.00
 16 4 40 -5.14 0.00
 18 4 40 18.19 0.00
 1 5 40 7.00 0.00
 3 5 40 -4.37 0.00
 5 5 40 -0.15 0.00
 7 5 40 -4.28 0.00
 9 5 40 2.95 0.00
 11 5 40 1.48 0.00
 13 5 40 2.17 0.00
 15 5 40 1.06 0.00
 17 5 40 0.87 0.00
 0 6 40 9.98 0.00
 2 6 40 9.63 0.00
 4 6 40 13.46 0.00
 6 6 40 8.43 0.00
 8 6 40 3.82 0.00
 10 6 40 -8.01 0.00
 12 6 40 -12.69 0.00
 14 6 40 4.64 0.00
 16 6 40 4.94 0.00
 18 6 40 7.50 0.00
 1 7 40 -14.96 0.00
 3 7 40 -6.14 0.00
 5 7 40 4.81 0.00
 7 7 40 16.30 0.00
 9 7 40 -1.61 0.00
 11 7 40 -0.23 0.00
 13 7 40 -14.74 0.00
 15 7 40 -8.10 0.00
 17 7 40 13.65 0.00
 0 8 40 1.97 0.00
 2 8 40 8.48 0.00
 4 8 40 4.40 0.00
 6 8 40 2.65 0.00
 8 8 40 1.39 0.00
 10 8 40 -16.66 0.00
 12 8 40 -6.06 0.00
 14 8 40 -3.61 0.00
 16 8 40 12.91 0.00
 1 9 40 17.01 0.00
 3 9 40 11.44 0.00
 5 9 40 5.61 0.00
 7 9 40 3.44 0.00
 9 9 40 7.94 0.00
 11 9 40 4.38 0.00
 13 9 40 0.19 0.00
 15 9 40 0.20 0.00
 17 9 40 -7.66 0.00
 0 10 40 3.41 0.00
 2 10 40 -12.90 0.00
 4 10 40 -8.39 0.00
 6 10 40 9.67 0.00
 8 10 40 -0.88 0.00
 10 10 40 5.47 0.00
 12 10 40 4.10 0.00
 14 10 40 8.65 0.00
 16 10 40 -0.11 0.00
 1 11 40 8.47 0.00
 3 11 40 3.74 0.00
 5 11 40 6.79 0.00
 7 11 40 8.08 0.00
 9 11 40 -2.85 0.00
 11 11 40 -11.32 0.00
 13 11 40 -4.91 0.00
 15 11 40 0.69 0.00
 17 11 40 8.39 0.00
 0 12 40 -4.03 0.00
 2 12 40 9.88 0.00
 4 12 40 13.04 0.00
 6 12 40 8.14 0.00
 8 12 40 24.30 0.00
 10 12 40 -4.43 0.00
 12 12 40 -9.33 0.00
 14 12 40 3.90 0.00
 16 12 40 -0.96 0.00
 1 13 40 1.04 0.00
 3 13 40 5.33 0.00
 5 13 40 9.19 0.00
 7 13 40 4.92 0.00
 9 13 40 1.33 0.00
 11 13 40 9.25 0.00
 13 13 40 -0.02 0.00
 15 13 40 -5.07 0.00
 17 13 40 8.52 0.00
 0 14 40 -12.54 0.00
 2 14 40 -7.42 0.00
 4 14 40 0.60 0.00
 6 14 40 -12.37 0.00
 8 14 40 -3.35 0.00
 10 14 40 -1.73 0.00
 12 14 40 0.91 0.00
 14 14 40 6.30 0.00
 16 14 40 9.41 0.00
 1 15 40 7.50 0.00
 3 15 40 -3.99 0.00
 5 15 40 -0.72 0.00
 7 15 40 1.95 0.00
 9 15 40 16.70 0.00
 11 15 40 3.88 0.00
 13 15 40 -1.85 0.00
 15 15 40 1.92 0.00
 0 16 40 10.53 0.00
 2 16 40 -14.53 0.00
 4 16 40 -10.93 0.00
 6 16 40 5.55 0.00
 8 16 40 -2.06 0.00
 10 16 40 18.25 0.00
 12 16 40 4.89 0.00
 14 16 40 -15.04 0.00
 16 16 40 0.94 0.00
 1 17 40 -8.75 0.00
 3 17 40 1.57 0.00
 5 17 40 6.96 0.00
 7 17 40 7.15 0.00
 9 17 40 8.86 0.00
 11 17 40 13.54 0.00
 13 17 40 1.92 0.00
 15 17 40 1.15 0.00
 0 18 40 -17.62 0.00
 2 18 40 1.88 0.00
 4 18 40 3.19 0.00
 6 18 40 5.78 0.00
 8 18 40 -2.51 0.00
 10 18 40 5.46 0.00
 12 18 40 -3.18 0.00
 14 18 40 7.34 0.00
 1 19 40 0.37 0.00
 3 19 40 24.49 0.00
 5 19 40 -5.69 0.00
 7 19 40 1.48 0.00
 9 19 40 -1.57 0.00
 11 19 40 14.28 0.00
 13 19 40 -11.44 0.00
 15 19 40 -20.43 0.00
 0 20 40 3.27 0.00
 2 20 40 -10.91 0.00
 4 20 40 1.04 0.00
 6 20 40 -5.78 0.00
 8 20 40 -11.13 0.00
 10 20 40 4.84 0.00
 12 20 40 2.12 0.00
 14 20 40 2.92 0.00
 1 21 40 -13.75 0.00
 3 21 40 1.50 0.00
 5 21 40 -7.67 0.00
 7 21 40 -12.21 0.00
 9 21 40 -13.63 0.00
 11 21 40 2.44 0.00
 13 21 40 -4.20 0.00
 0 22 40 -11.29 0.00
 2 22 40 -4.17 0.00
 4 22 40 18.79 0.00
 6 22 40 1.72 0.00
 8 22 40 2.29 0.00
 10 22 40 7.05 0.00
 12 22 40 -1.25 0.00
 14 22 40 10.01 0.00
 1 23 40 15.72 0.00
 3 23 40 -1.57 0.00
 5 23 40 20.64 0.00
 7 23 40 -12.95 0.00
 9 23 40 -5.18 0.00
 11 23 40 3.33 0.00
 13 23 40 7.09 0.00
 0 24 40 7.93 0.00
 2 24 40 -4.92 0.00
 4 24 40 -13.17 0.00
 6 24 40 -3.69 0.00
 8 24 40 13.61 0.00
 10 24 40 1.80 0.00
 12 24 40 -7.67 0.00
 1 25 40 -23.51 0.00
 3 25 40 -1.16 0.00
 5 25 40 15.10 0.00
 7 25 40 -0.15 0.00
 9 25 40 2.05 0.00
 11 25 40 -6.15 0.00
 0 26 40 5.90 0.00
 2 26 40 -14.84 0.00
 4 26 40 -4.62 0.00
 6 26 40 -1.92 0.00
 8 26 40 8.85 0.00
 10 26 40 -1.37 0.00
 12 26 40 -10.13 0.00
 1 27 40 8.74 0.00
 3 27 40 11.45 0.00
 5 27 40 -3.86 0.00
 7 27 40 1.57 0.00
 9 27 40 2.73 0.00
 11 27 40 -0.84 0.00
 0 28 40 -5.64 0.00
 2 28 40 -0.98 0.00
 4 28 40 -5.00 0.00
 6 28 40 -6.73 0.00
 8 28 40 -4.33 0.00
 10 28 40 6.55 0.00
 1 29 40 -5.56 0.00
 3 29 40 -4.91 0.00
 5 29 40 -5.83 0.00
 7 29 40 4.08 0.00
 9 29 40 3.84 0.00
 0 30 40 -8.39 0.00
 2 30 40 4.08 0.00
 4 30 40 -12.11 0.00
 6 30 40 7.73 0.00
 8 30 40 -8.53 0.00
 1 31 40 -5.86 0.00
 3 31 40 16.92 0.00
 5 31 40 6.01 0.00
 7 31 40 2.07 0.00
 0 32 40 -16.86 0.00
 2 32 40 -6.11 0.00
 4 32 40 -11.93 0.00
 6 32 40 2.73 0.00
 1 33 40 -20.91 0.00
 3 33 40 4.81 0.00
 5 33 40 -4.60 0.00
 0 34 40 -4.86 0.00
 2 34 40 1.49 0.00
 4 34 40 2.67 0.00
 1 35 40 -8.12 0.00
 2 1 41 -15.79 0.00
 4 1 41 -26.99 0.00
 6 1 41 -2.49 0.00
 8 1 41 1.31 0.00
 10 1 41 4.34 0.00
 12 1 41 -5.85 0.00
 14 1 41 -1.04 0.00
 16 1 41 -5.15 0.00
 18 1 41 -7.37 0.00
 1 2 41 -5.60 0.00
 3 2 41 -4.01 0.00
 5 2 41 -1.59 0.00
 7 2 41 2.20 0.00
 9 2 41 -2.65 0.00
 11 2 41 -18.73 0.00
 13 2 41 -3.39 0.00
 15 2 41 6.96 0.00
 17 2 41 -5.12 0.00
 2 3 41 22.04 0.00
 4 3 41 8.77 0.00
 6 3 41 7.50 0.00
 8 3 41 7.15 0.00
 10 3 41 2.19 0.00
 12 3 41 -0.39 0.00
 14 3 41 -9.30 0.00
 16 3 41 -2.78 0.00
 1 4 41 7.60 0.00
 3 4 41 9.39 0.00
 5 4 41 3.93 0.00
 7 4 41 0.90 0.00
 9 4 41 9.29 0.00
 11 4 41 -9.47 0.00
 13 4 41 -12.34 0.00
 15 4 41 -8.26 0.00
 17 4 41 0.79 0.00
 2 5 41 -5.27 0.00
 4 5 41 0.21 0.00
 6 5 41 -3.76 0.00
 8 5 41 4.76 0.00
 10 5 41 -6.91 0.00
 12 5 41 1.47 0.00
 14 5 41 -3.57 0.00
 16 5 41 -0.28 0.00
 1 6 41 -3.17 0.00
 3 6 41 -12.37 0.00
 5 6 41 -8.81 0.00
 7 6 41 -0.54 0.00
 9 6 41 0.46 0.00
 11 6 41 5.17 0.00
 13 6 41 -13.08 0.00
 15 6 41 0.56 0.00
 17 6 41 17.83 0.00
 2 7 41 -4.52 0.00
 4 7 41 -0.87 0.00
 6 7 41 -2.66 0.00
 8 7 41 -2.82 0.00
 10 7 41 -7.93 0.00
 12 7 41 -4.80 0.00
 14 7 41 3.81 0.00
 16 7 41 12.23 0.00
 1 8 41 -0.66 0.00
 3 8 41 11.35 0.00
 5 8 41 5.04 0.00
 7 8 41 -4.51 0.00
 9 8 41 2.35 0.00
 11 8 41 -11.82 0.00
 13 8 41 -1.11 0.00
 15 8 41 2.21 0.00
 17 8 41 5.00 0.00
 2 9 41 -0.74 0.00
 4 9 41 -1.51 0.00
 6 9 41 9.52 0.00
 8 9 41 -6.99 0.00
 10 9 41 2.73 0.00
 12 9 41 -7.72 0.00
 14 9 41 -3.46 0.00
 16 9 41 11.79 0.00
 1 10 41 -1.02 0.00
 3 10 41 -4.42 0.00
 5 10 41 1.91 0.00
 7 10 41 -3.46 0.00
 9 10 41 -3.29 0.00
 11 10 41 -4.30 0.00
 13 10 41 2.89 0.00
 15 10 41 -3.82 0.00
 17 10 41 -9.42 0.00
 2 11 41 11.85 0.00
 4 11 41 4.90 0.00
 6 11 41 -6.78 0.00
 8 11 41 -9.67 0.00
 10 11 41 4.14 0.00
 12 11 41 10.21 0.00
 14 11 41 5.10 0.00
 16 11 41 -6.00 0.00
 1 12 41 -6.21 0.00
 3 12 41 7.66 0.00
 5 12 41 8.60 0.00
 7 12 41 -8.07 0.00
 9 12 41 -8.75 0.00
 11 12 41 -1.98 0.00
 13 12 41 -4.45 0.00
 15 12 41 -3.09 0.00
 2 13 41 -10.12 0.00
 4 13 41 9.38 0.00
 6 13 41 8.87 0.00
 8 13 41 0.47 0.00
 10 13 41 -0.93 0.00
 12 13 41 -1.22 0.00
 14 13 41 -1.51 0.00
 16 13 41 -4.00 0.00
 1 14 41 19.25 0.00
 3 14 41 9.31 0.00
 5 14 41 -12.38 0.00
 7 14 41 3.50 0.00
 9 14 41 -9.18 0.00
 11 14 41 4.47 0.00
 13 14 41 16.32 0.00
 15 14 41 -3.42 0.00
 2 15 41 -9.89 0.00
 4 15 41 -17.76 0.00
 6 15 41 1.66 0.00
 8 15 41 2.14 0.00
 10 15 41 4.15 0.00
 12 15 41 -4.97 0.00
 14 15 41 -0.90 0.00
 16 15 41 0.46 0.00
 1 16 41 1.31 0.00
 3 16 41 0.19 0.00
 5 16 41 -11.56 0.00
 7 16 41 2.97 0.00
 9 16 41 9.06 0.00
 11 16 41 -2.04 0.00
 13 16 41 -5.89 0.00
 15 16 41 -3.70 0.00
 2 17 41 -5.60 0.00
 4 17 41 5.57 0.00
 6 17 41 0.47 0.00
 8 17 41 2.83 0.00
 10 17 41 -3.90 0.00
 12 17 41 7.20 0.00
 14 17 41 -1.26 0.00
 1 18 41 -1.98 0.00
 3 18 41 4.21 0.00
 5 18 41 -2.15 0.00
 7 18 41 1.26 0.00
 9 18 41 -0.07 0.00
 11 18 41 8.57 0.00
 13 18 41 -1.16 0.00
 15 18 41 1.22 0.00
 2 19 41 -11.93 0.00
 4 19 41 -5.80 0.00
 6 19 41 3.30 0.00
 8 19 41 -0.95 0.00
 10 19 41 -1.42 0.00
 12 19 41 -3.09 0.00
 14 19 41 -1.14 0.00
 1 20 41 6.66 0.00
 3 20 41 2.08 0.00
 5 20 41 3.28 0.00
 7 20 41 -4.69 0.00
 9 20 41 -1.11 0.00
 11 20 41 2.21 0.00
 13 20 41 1.60 0.00
 2 21 41 -8.63 0.00
 4 21 41 -20.96 0.00
 6 21 41 9.81 0.00
 8 21 41 -3.89 0.00
 10 21 41 4.62 0.00
 12 21 41 -4.85 0.00
 14 21 41 2.73 0.00
 1 22 41 -15.35 0.00
 3 22 41 -0.41 0.00
 5 22 41 7.48 0.00
 7 22 41 4.78 0.00
 9 22 41 -8.72 0.00
 11 22 41 -2.12 0.00
 13 22 41 -10.82 0.00
 2 23 41 -1.20 0.00
 4 23 41 -4.10 0.00
 6 23 41 11.18 0.00
 8 23 41 5.91 0.00
 10 23 41 11.84 0.00
 12 23 41 -8.89 0.00
 1 24 41 -6.95 0.00
 3 24 41 -3.96 0.00
 5 24 41 -14.42 0.00
 7 24 41 6.04 0.00
 9 24 41 7.52 0.00
 11 24 41 -4.29 0.00
 13 24 41 -3.91 0.00
 2 25 41 -13.11 0.00
 4 25 41 -5.14 0.00
 6 25 41 2.70 0.00
 8 25 41 16.43 0.00
 10 25 41 2.30 0.00
 12 25 41 0.14 0.00
 1 26 41 -3.03 0.00
 3 26 41 -0.27 0.00
 5 26 41 -7.20 0.00
 7 26 41 -11.75 0.00
 9 26 41 -16.41 0.00
 11 26 41 -4.52 0.00
 2 27 41 7.64 0.00
 4 27 41 -2.93 0.00
 6 27 41 4.65 0.00
 8 27 41 14.37 0.00
 10 27 41 -2.05 0.00
 1 28 41 -12.15 0.00
 3 28 41 -9.28 0.00
 5 28 41 -25.45 0.00
 7 28 41 1.79 0.00
 9 28 41 -29.07 0.00
 2 29 41 -16.95 0.00
 4 29 41 3.77 0.00
 6 29 41 -5.52 0.00
 8 29 41 5.53 0.00
 1 30 41 -2.55 0.00
 3 30 41 4.14 0.00
 5 30 41 -5.67 0.00
 7 30 41 10.13 0.00
 2 31 41 -22.44 0.00
 4 31 41 -3.15 0.00
 6 31 41 -10.41 0.00
 8 31 41 -14.91 0.00
 1 32 41 2.46 0.00
 3 32 41 0.07 0.00
 5 32 41 3.64 0.00
 2 33 41 9.66 0.00
 4 33 41 -19.14 0.00
 1 34 41 7.19 0.00
 3 34 41 -3.65 0.00
 0 0 42 21.96 0.00
 2 0 42 7.34 0.00
 4 0 42 15.71 0.00
 6 0 42 -20.85 0.00
 8 0 42 11.30 0.00
 10 0 42 2.19 0.00
 12 0 42 13.64 0.00
 14 0 42 -34.08 0.00
 16 0 42 -8.04 0.00
 1 1 42 11.29 0.00
 3 1 42 7.56 0.00
 5 1 42 -11.68 0.00
 7 1 42 1.48 0.00
 9 1 42 -8.09 0.00
 11 1 42 -7.07 0.00
 13 1 42 9.08 0.00
 15 1 42 0.02 0.00
 17 1 42 -0.91 0.00
 0 2 42 -28.22 0.00
 2 2 42 -11.88 0.00
 4 2 42 -12.76 0.00
 6 2 42 -4.70 0.00
 8 2 42 -4.34 0.00
 10 2 42 2.98 0.00
 12 2 42 3.67 0.00
 14 2 42 0.14 0.00
 16 2 42 7.40 0.00
 1 3 42 -1.68 0.00
 3 3 42 4.48 0.00
 5 3 42 6.05 0.00
 7 3 42 -2.10 0.00
 9 3 42 8.30 0.00
 11 3 42 -11.39 0.00
 13 3 42 -12.92 0.00
 15 3 42 -15.47 0.00
 17 3 42 7.77 0.00
 0 4 42 -7.50 0.00
 2 4 42 -2.84 0.00
 4 4 42 -4.15 0.00
 6 4 42 -14.66 0.00
 8 4 42 -5.97 0.00
 10 4 42 -3.42 0.00
 12 4 42 8.33 0.00
 14 4 42 10.56 0.00
 16 4 42 15.64 0.00
 1 5 42 -4.99 0.00
 3 5 42 -0.89 0.00
 5 5 42 -9.62 0.00
 7 5 42 -3.80 0.00
 9 5 42 0.29 0.00
 11 5 42 0.98 0.00
 13 5 42 -13.25 0.00
 15 5 42 5.91 0.00
 17 5 42 8.84 0.00
 0 6 42 5.84 0.00
 2 6 42 7.60 0.00
 4 6 42 -9.97 0.00
 6 6 42 -2.81 0.00
 8 6 42 5.55 0.00
 10 6 42 4.02 0.00
 12 6 42 -1.90 0.00
 14 6 42 2.00 0.00
 16 6 42 11.39 0.00
 1 7 42 -5.11 0.00
 3 7 42 -11.75 0.00
 5 7 42 -7.62 0.00
 7 7 42 12.50 0.00
 9 7 42 -3.28 0.00
 11 7 42 -0.20 0.00
 13 7 42 5.23 0.00
 15 7 42 -0.85 0.00
 17 7 42 -5.95 0.00
 0 8 42 8.37 0.00
 2 8 42 -15.31 0.00
 4 8 42 4.37 0.00
 6 8 42 6.31 0.00
 8 8 42 -3.94 0.00
 10 8 42 5.17 0.00
 12 8 42 -4.21 0.00
 14 8 42 11.63 0.00
 16 8 42 13.42 0.00
 1 9 42 18.97 0.00
 3 9 42 -9.22 0.00
 5 9 42 -0.46 0.00
 7 9 42 6.11 0.00
 9 9 42 1.15 0.00
 11 9 42 0.64 0.00
 13 9 42 -5.83 0.00
 15 9 42 8.76 0.00
 17 9 42 5.89 0.00
 0 10 42 -11.96 0.00
 2 10 42 7.57 0.00
 4 10 42 -4.28 0.00
 6 10 42 -0.23 0.00
 8 10 42 9.89 0.00
 10 10 42 -6.24 0.00
 12 10 42 -12.18 0.00
 14 10 42 2.05 0.00
 16 10 42 3.41 0.00
 1 11 42 -7.45 0.00
 3 11 42 3.06 0.00
 5 11 42 -3.56 0.00
 7 11 42 -6.39 0.00
 9 11 42 -1.01 0.00
 11 11 42 -9.70 0.00
 13 11 42 0.11 0.00
 15 11 42 5.78 0.00
 0 12 42 -2.65 0.00
 2 12 42 -19.61 0.00
 4 12 42 3.67 0.00
 6 12 42 1.55 0.00
 8 12 42 3.19 0.00
 10 12 42 4.27 0.00
 12 12 42 5.63 0.00
 14 12 42 3.09 0.00
 16 12 42 1.24 0.00
 1 13 42 -8.74 0.00
 3 13 42 -7.59 0.00
 5 13 42 -0.15 0.00
 7 13 42 -1.02 0.00
 9 13 42 -9.23 0.00
 11 13 42 -1.08 0.00
 13 13 42 6.38 0.00
 15 13 42 -2.08 0.00
 0 14 42 -7.59 0.00
 2 14 42 7.41 0.00
 4 14 42 -3.51 0.00
 6 14 42 -3.62 0.00
 8 14 42 6.04 0.00
 10 14 42 -8.12 0.00
 12 14 42 11.34 0.00
 14 14 42 -0.12 0.00
 16 14 42 -1.60 0.00
 1 15 42 -4.01 0.00
 3 15 42 5.85 0.00
 5 15 42 -6.64 0.00
 7 15 42 -9.39 0.00
 9 15 42 -9.61 0.00
 11 15 42 4.97 0.00
 13 15 42 12.99 0.00
 15 15 42 -9.05 0.00
 0 16 42 5.13 0.00
 2 16 42 9.54 0.00
 4 16 42 -1.54 0.00
 6 16 42 -2.37 0.00
 8 16 42 4.87 0.00
 10 16 42 -1.41 0.00
 12 16 42 0.56 0.00
 14 16 42 -18.34 0.00
 1 17 42 16.12 0.00
 3 17 42 12.63 0.00
 5 17 42 3.77 0.00
 7 17 42 -8.37 0.00
 9 17 42 6.02 0.00
 11 17 42 10.37 0.00
 13 17 42 -3.96 0.00
 15 17 42 -4.43 0.00
 0 18 42 4.13 0.00
 2 18 42 3.42 0.00
 4 18 42 -4.73 0.00
 6 18 42 -10.78 0.00
 8 18 42 -4.18 0.00
 10 18 42 6.30 0.00
 12 18 42 24.16 0.00
 14 18 42 7.12 0.00
 1 19 42 3.13 0.00
 3 19 42 20.82 0.00
 5 19 42 0.95 0.00
 7 19 42 4.18 0.00
 9 19 42 0.75 0.00
 11 19 42 -0.25 0.00
 13 19 42 -10.82 0.00
 0 20 42 5.05 0.00
 2 20 42 -4.40 0.00
 4 20 42 -12.49 0.00
 6 20 42 -5.38 0.00
 8 20 42 -6.39 0.00
 10 20 42 -0.55 0.00
 12 20 42 9.69 0.00
 14 20 42 -11.30 0.00
 1 21 42 2.94 0.00
 3 21 42 -0.17 0.00
 5 21 42 9.97 0.00
 7 21 42 -2.13 0.00
 9 21 42 9.42 0.00
 11 21 42 24.06 0.00
 13 21 42 -0.66 0.00
 0 22 42 7.18 0.00
 2 22 42 -9.22 0.00
 4 22 42 -5.63 0.00
 6 22 42 -0.02 0.00
 8 22 42 24.70 0.00
 10 22 42 16.95 0.00
 12 22 42 3.04 0.00
 1 23 42 -19.51 0.00
 3 23 42 11.39 0.00
 5 23 42 10.46 0.00
 7 23 42 -17.91 0.00
 9 23 42 -9.42 0.00
 11 23 42 -1.23 0.00
 13 23 42 7.79 0.00
 0 24 42 -15.05 0.00
 2 24 42 8.46 0.00
 4 24 42 9.46 0.00
 6 24 42 3.88 0.00
 8 24 42 4.01 0.00
 10 24 42 -3.25 0.00
 12 24 42 2.40 0.00
 1 25 42 -0.65 0.00
 3 25 42 3.81 0.00
 5 25 42 -4.17 0.00
 7 25 42 -8.78 0.00
 9 25 42 3.74 0.00
 11 25 42 -10.26 0.00
 0 26 42 -2.64 0.00
 2 26 42 12.57 0.00
 4 26 42 6.49 0.00
 6 26 42 -9.17 0.00
 8 26 42 -2.40 0.00
 10 26 42 4.20 0.00
 1 27 42 -1.56 0.00
 3 27 42 -3.61 0.00
 5 27 42 13.86 0.00
 7 27 42 2.31 0.00
 9 27 42 -6.90 0.00
 0 28 42 9.54 0.00
 2 28 42 16.38 0.00
 4 28 42 -0.69 0.00
 6 28 42 -4.59 0.00
 8 28 42 21.52 0.00
 1 29 42 -0.42 0.00
 3 29 42 0.83 0.00
 5 29 42 -5.56 0.00
 7 29 42 -6.13 0.00
 9 29 42 -11.45 0.00
 0 30 42 -17.61 0.00
 2 30 42 -1.54 0.00
 4 30 42 0.89 0.00
 6 30 42 5.42 0.00
 8 30 42 -8.73 0.00
 1 31 42 -3.52 0.00
 3 31 42 12.30 0.00
 5 31 42 -7.14 0.00
 7 31 42 1.77 0.00
 0 32 42 -18.47 0.00
 2 32 42 10.09 0.00
 4 32 42 8.39 0.00
 1 33 42 -6.10 0.00
 3 33 42 6.39 0.00
 2 1 43 -3.79 0.00
 4 1 43 -3.23 0.00
 6 1 43 4.30 0.00
 8 1 43 6.91 0.00
 10 1 43 8.23 0.00
 12 1 43 15.81 0.00
 14 1 43 -8.18 0.00
 16 1 43 -14.04 0.00
 1 2 43 5.27 0.00
 3 2 43 -2.10 0.00
 5 2 43 -8.92 0.00
 7 2 43 8.79 0.00
 9 2 43 -2.32 0.00
 11 2 43 5.51 0.00
 13 2 43 -3.93 0.00
 15 2 43 4.78 0.00
 17 2 43 12.83 0.00
 2 3 43 -15.75 0.00
 4 3 43 -2.58 0.00
 6 3 43 11.75 0.00
 8 3 43 10.05 0.00
 10 3 43 -9.04 0.00
 12 3 43 6.81 0.00
 14 3 43 0.24 0.00
 16 3 43 -8.74 0.00
 1 4 43 -2.39 0.00
 3 4 43 1.02 0.00
 5 4 43 -6.57 0.00
 7 4 43 4.40 0.00
 9 4 43 -10.77 0.00
 11 4 43 2.32 0.00
 13 4 43 -5.65 0.00
 15 4 43 0.16 0.00
 17 4 43 -8.82 0.00
 2 5 43 9.64 0.00
 4 5 43 -0.61 0.00
 6 5 43 -0.78 0.00
 8 5 43 -6.29 0.00
 10 5 43 -11.70 0.00
 12 5 43 3.89 0.00
 14 5 43 8.06 0.00
 16 5 43 11.73 0.00
 1 6 43 1.06 0.00
 3 6 43 -11.33 0.00
 5 6 43 -5.19 0.00
 7 6 43 5.73 0.00
 9 6 43 3.28 0.00
 11 6 43 -2.35 0.00
 13 6 43 -10.48 0.00
 15 6 43 -4.13 0.00
 17 6 43 -3.46 0.00
 2 7 43 -10.69 0.00
 4 7 43 -21.39 0.00
 6 7 43 0.76 0.00
 8 7 43 -9.88 0.00
 10 7 43 -16.52 0.00
 12 7 43 -16.15 0.00
 14 7 43 5.85 0.00
 16 7 43 5.99 0.00
 1 8 43 7.22 0.00
 3 8 43 -1.50 0.00
 5 8 43 -4.15 0.00
 7 8 43 13.14 0.00
 9 8 43 9.33 0.00
 11 8 43 7.53 0.00
 13 8 43 0.61 0.00
 15 8 43 4.19 0.00
 2 9 43 -5.81 0.00
 4 9 43 -7.21 0.00
 6 9 43 -3.09 0.00
 8 9 43 7.54 0.00
 10 9 43 3.91 0.00
 12 9 43 5.92 0.00
 14 9 43 -6.85 0.00
 16 9 43 2.73 0.00
 1 10 43 5.47 0.00
 3 10 43 9.10 0.00
 5 10 43 4.14 0.00
 7 10 43 0.81 0.00
 9 10 43 5.02 0.00
 11 10 43 3.99 0.00
 13 10 43 3.73 0.00
 15 10 43 -2.90 0.00
 2 11 43 -18.07 0.00
 4 11 43 13.85 0.00
 6 11 43 7.48 0.00
 8 11 43 -4.00 0.00
 10 11 43 -6.31 0.00
 12 11 43 -5.85 0.00
 14 11 43 4.34 0.00
 16 11 43 -5.50 0.00
 1 12 43 -6.97 0.00
 3 12 43 -15.10 0.00
 5 12 43 -6.33 0.00
 7 12 43 -12.25 0.00
 9 12 43 11.10 0.00
 11 12 43 -8.08 0.00
 13 12 43 26.52 0.00
 15 12 43 0.51 0.00
 2 13 43 16.98 0.00
 4 13 43 -4.04 0.00
 6 13 43 2.09 0.00
 8 13 43 -8.28 0.00
 10 13 43 -5.46 0.00
 12 13 43 10.45 0.00
 14 13 43 -1.08 0.00
 1 14 43 -1.66 0.00
 3 14 43 4.26 0.00
 5 14 43 -1.99 0.00
 7 14 43 10.25 0.00
 9 14 43 10.23 0.00
 11 14 43 -8.01 0.00
 13 14 43 2.81 0.00
 15 14 43 6.07 0.00
 2 15 43 -0.10 0.00
 4 15 43 3.65 0.00
 6 15 43 -0.98 0.00
 8 15 43 -6.90 0.00
 10 15 43 9.91 0.00
 12 15 43 -6.33 0.00
 14 15 43 -9.05 0.00
 1 16 43 3.31 0.00
 3 16 43 -12.74 0.00
 5 16 43 -12.09 0.00
 7 16 43 -0.79 0.00
 9 16 43 11.53 0.00
 11 16 43 -9.29 0.00
 13 16 43 3.93 0.00
 15 16 43 15.09 0.00
 2 17 43 11.58 0.00
 4 17 43 -10.56 0.00
 6 17 43 -1.20 0.00
 8 17 43 11.41 0.00
 10 17 43 -3.78 0.00
 12 17 43 -4.29 0.00
 14 17 43 6.44 0.00
 1 18 43 12.08 0.00
 3 18 43 -2.74 0.00
 5 18 43 -14.29 0.00
 7 18 43 2.83 0.00
 9 18 43 8.67 0.00
 11 18 43 0.48 0.00
 13 18 43 12.78 0.00
 2 19 43 -1.67 0.00
 4 19 43 -7.29 0.00
 6 19 43 -3.16 0.00
 8 19 43 0.78 0.00
 10 19 43 -7.38 0.00
 12 19 43 3.75 0.00
 14 19 43 -1.45 0.00
 1 20 43 3.24 0.00
 3 20 43 -20.60 0.00
 5 20 43 4.51 0.00
 7 20 43 0.40 0.00
 9 20 43 -1.53 0.00
 11 20 43 19.90 0.00
 13 20 43 6.21 0.00
 2 21 43 -8.25 0.00
 4 21 43 -18.35 0.00
 6 21 43 -5.10 0.00
 8 21 43 -6.75 0.00
 10 21 43 -6.16 0.00
 12 21 43 7.44 0.00
 1 22 43 -8.67 0.00
 3 22 43 -9.07 0.00
 5 22 43 -4.15 0.00
 7 22 43 12.69 0.00
 9 22 43 3.54 0.00
 11 22 43 -0.16 0.00
 13 22 43 -0.07 0.00
 2 23 43 -16.14 0.00
 4 23 43 -7.49 0.00
 6 23 43 1.44 0.00
 8 23 43 -2.54 0.00
 10 23 43 -7.69 0.00
 12 23 43 -21.86 0.00
 1 24 43 -11.04 0.00
 3 24 43 -17.18 0.00
 5 24 43 4.53 0.00
 7 24 43 1.64 0.00
 9 24 43 -8.16 0.00
 11 24 43 -2.49 0.00
 2 25 43 7.46 0.00
 4 25 43 -3.74 0.00
 6 25 43 3.48 0.00
 8 25 43 11.21 0.00
 10 25 43 7.68 0.00
 1 26 43 -0.65 0.00
 3 26 43 -15.33 0.00
 5 26 43 -15.05 0.00
 7 26 43 -6.38 0.00
 9 26 43 -0.22 0.00
 2 27 43 0.60 0.00
 4 27 43 21.30 0.00
 6 27 43 14.47 0.00
 8 27 43 12.26 0.00
 10 27 43 -15.12 0.00
 1 28 43 -14.75 0.00
 3 28 43 -20.35 0.00
 5 28 43 -3.77 0.00
 7 28 43 -8.79 0.00
 9 28 43 0.26 0.00
 2 29 43 2.56 0.00
 4 29 43 13.05 0.00
 6 29 43 -7.77 0.00
 8 29 43 1.56 0.00
 1 30 43 -12.21 0.00
 3 30 43 4.21 0.00
 5 30 43 3.27 0.00
 7 30 43 -2.74 0.00
 2 31 43 4.09 0.00
 4 31 43 1.89 0.00
 6 31 43 -6.86 0.00
 1 32 43 1.48 0.00
 3 32 43 -1.64 0.00
 2 33 43 -3.17 0.00
 0 0 44 26.09 0.00
 2 0 44 21.13 0.00
 4 0 44 14.92 0.00
 6 0 44 12.99 0.00
 8 0 44 -0.32 0.00
 10 0 44 10.06 0.00
 12 0 44 12.05 0.00
 14 0 44 10.11 0.00
 16 0 44 -10.30 0.00
 1 1 44 2.97 0.00
 3 1 44 -24.34 0.00
 5 1 44 -6.31 0.00
 7 1 44 6.88 0.00
 9 1 44 8.18 0.00
 11 1 44 -4.09 0.00
 13 1 44 3.57 0.00
 15 1 44 5.00 0.00
 0 2 44 -21.76 0.00
 2 2 44 -13.77 0.00
 4 2 44 2.26 0.00
 6 2 44 -11.45 0.00
 8 2 44 5.82 0.00
 10 2 44 -4.61 0.00
 12 2 44 4.15 0.00
 14 2 44 -6.58 0.00
 16 2 44 12.70 0.00
 1 3 44 -5.77 0.00
 3 3 44 -1.53 0.00
 5 3 44 -3.77 0.00
 7 3 44 -4.61 0.00
 9 3 44 -4.42 0.00
 11 3 44 -1.29 0.00
 13 3 44 -10.71 0.00
 15 3 44 -8.89 0.00
 0 4 44 -1.01 0.00
 2 4 44 -4.35 0.00
 4 4 44 8.12 0.00
 6 4 44 -2.59 0.00
 8 4 44 -1.06 0.00
 10 4 44 7.05 0.00
 12 4 44 -9.34 0.00
 14 4 44 -23.07 0.00
 16 4 44 3.18 0.00
 1 5 44 -14.85 0.00
 3 5 44 -16.85 0.00
 5 5 44 -0.54 0.00
 7 5 44 0.17 0.00
 9 5 44 -2.29 0.00
 11 5 44 15.45 0.00
 13 5 44 8.78 0.00
 15 5 44 2.29 0.00
 0 6 44 4.14 0.00
 2 6 44 3.86 0.00
 4 6 44 -14.44 0.00
 6 6 44 -4.73 0.00
 8 6 44 -7.18 0.00
 10 6 44 10.63 0.00
 12 6 44 1.86 0.00
 14 6 44 3.12 0.00
 16 6 44 4.18 0.00
 1 7 44 -0.86 0.00
 3 7 44 -6.64 0.00
 5 7 44 -1.19 0.00
 7 7 44 -9.29 0.00
 9 7 44 -7.42 0.00
 11 7 44 -6.80 0.00
 13 7 44 -8.25 0.00
 15 7 44 -4.12 0.00
 0 8 44 -12.14 0.00
 2 8 44 -6.75 0.00
 4 8 44 -7.92 0.00
 6 8 44 -2.91 0.00
 8 8 44 -0.95 0.00
 10 8 44 -1.44 0.00
 12 8 44 -21.32 0.00
 14 8 44 -16.66 0.00
 16 8 44 -11.45 0.00
 1 9 44 -3.26 0.00
 3 9 44 -19.14 0.00
 5 9 44 -1.24 0.00
 7 9 44 5.33 0.00
 9 9 44 6.37 0.00
 11 9 44 6.83 0.00
 13 9 44 12.76 0.00
 15 9 44 5.41 0.00
 0 10 44 0.10 0.00
 2 10 44 -5.63 0.00
 4 10 44 -5.76 0.00
 6 10 44 1.59 0.00
 8 10 44 -11.50 0.00
 10 10 44 10.22 0.00
 12 10 44 -11.97 0.00
 14 10 44 7.10 0.00
 16 10 44 6.67 0.00
 1 11 44 9.00 0.00
 3 11 44 8.14 0.00
 5 11 44 -2.07 0.00
 7 11 44 11.47 0.00
 9 11 44 -17.01 0.00
 11 11 44 -12.86 0.00
 13 11 44 2.50 0.00
 15 11 44 7.42 0.00
 0 12 44 2.95 0.00
 2 12 44 9.47 0.00
 4 12 44 -3.74 0.00
 6 12 44 5.80 0.00
 8 12 44 9.28 0.00
 10 12 44 -2.59 0.00
 12 12 44 -7.89 0.00
 14 12 44 -1.45 0.00
 1 13 44 -18.92 0.00
 3 13 44 9.58 0.00
 5 13 44 -2.72 0.00
 7 13 44 0.49 0.00
 9 13 44 -11.76 0.00
 11 13 44 5.95 0.00
 13 13 44 13.54 0.00
 15 13 44 6.89 0.00
 0 14 44 -5.40 0.00
 2 14 44 2.39 0.00
 4 14 44 -9.11 0.00
 6 14 44 -4.34 0.00
 8 14 44 -5.94 0.00
 10 14 44 -3.66 0.00
 12 14 44 11.39 0.00
 14 14 44 -1.47 0.00
 1 15 44 15.44 0.00
 3 15 44 3.04 0.00
 5 15 44 -1.98 0.00
 7 15 44 -1.42 0.00
 9 15 44 -0.25 0.00
 11 15 44 -3.22 0.00
 13 15 44 -4.59 0.00
 15 15 44 -8.72 0.00
 0 16 44 0.93 0.00
 2 16 44 -5.62 0.00
 4 16 44 7.29 0.00
 6 16 44 15.87 0.00
 8 16 44 -2.48 0.00
 10 16 44 0.70 0.00
 12 16 44 7.10 0.00
 14 16 44 4.20 0.00
 1 17 44 1.84 0.00
 3 17 44 0.12 0.00
 5 17 44 3.78 0.00
 7 17 44 -18.50 0.00
 9 17 44 3.98 0.00
 11 17 44 5.94 0.00
 13 17 44 3.65 0.00
 0 18 44 -2.62 0.00
 2 18 44 16.72 0.00
 4 18 44 1.85 0.00
 6 18 44 1.04 0.00
 8 18 44 5.71 0.00
 10 18 44 -9.25 0.00
 12 18 44 7.88 0.00
 14 18 44 -5.65 0.00
 1 19 44 14.38 0.00
 3 19 44 10.15 0.00
 5 19 44 -0.62 0.00
 7 19 44 -9.46 0.00
 9 19 44 -3.16 0.00
 11 19 44 -4.75 0.00
 13 19 44 1.73 0.00
 0 20 44 11.90 0.00
 2 20 44 12.05 0.00
 4 20 44 7.97 0.00
 6 20 44 -7.47 0.00
 8 20 44 2.64 0.00
 10 20 44 -10.12 0.00
 12 20 44 5.59 0.00
 1 21 44 15.38 0.00
 3 21 44 1.78 0.00
 5 21 44 -15.61 0.00
 7 21 44 1.89 0.00
 9 21 44 -12.97 0.00
 11 21 44 -1.43 0.00
 0 22 44 5.63 0.00
 2 22 44 3.40 0.00
 4 22 44 8.53 0.00
 6 22 44 3.44 0.00
 8 22 44 4.75 0.00
 10 22 44 -1.29 0.00
 12 22 44 -8.84 0.00
 1 23 44 1.68 0.00
 3 23 44 11.12 0.00
 5 23 44 -6.92 0.00
 7 23 44 -7.27 0.00
 9 23 44 -13.21 0.00
 11 23 44 6.73 0.00
 0 24 44 8.50 0.00
 2 24 44 17.86 0.00
 4 24 44 -8.12 0.00
 6 24 44 -3.61 0.00
 8 24 44 -3.60 0.00
 10 24 44 -10.53 0.00
 1 25 44 -9.49 0.00
 3 25 44 9.28 0.00
 5 25 44 -5.55 0.00
 7 25 44 5.66 0.00
 9 25 44 14.15 0.00
 0 26 44 8.78 0.00
 2 26 44 -3.11 0.00
 4 26 44 11.12 0.00
 6 26 44 -2.46 0.00
 8 26 44 1.77 0.00
 10 26 44 -8.01 0.00
 1 27 44 4.56 0.00
 3 27 44 -7.48 0.00
 5 27 44 -11.92 0.00
 7 27 44 -13.51 0.00
 9 27 44 8.68 0.00
 0 28 44 10.10 0.00
 2 28 44 -2.72 0.00
 4 28 44 16.39 0.00
 6 28 44 -1.56 0.00
 8 28 44 -4.92 0.00
 1 29 44 -4.40 0.00
 3 29 44 5.47 0.00
 5 29 44 -0.42 0.00
 7 29 44 -14.81 0.00
 0 30 44 -7.82 0.00
 2 30 44 7.28 0.00
 4 30 44 23.03 0.00
 6 30 44 -4.93 0.00
 1 31 44 1.23 0.00
 3 31 44 5.31 0.00
 5 31 44 -0.93 0.00
 0 32 44 -11.17 0.00
 2 32 44 12.11 0.00
 2 1 45 -6.78 0.00
 4 1 45 -5.25 0.00
 6 1 45 6.70 0.00
 8 1 45 3.63 0.00
 10 1 45 4.80 0.00
 12 1 45 -4.25 0.00
 14 1 45 7.53 0.00
 16 1 45 -3.28 0.00
 1 2 45 -1.17 0.00
 3 2 45 4.07 0.00
 5 2 45 5.74 0.00
 7 2 45 7.09 0.00
 9 2 45 3.05 0.00
 11 2 45 5.78 0.00
 13 2 45 2.35 0.00
 15 2 45 -22.50 0.00
 2 3 45 4.18 0.00
 4 3 45 4.19 0.00
 6 3 45 5.42 0.00
 8 3 45 5.67 0.00
 10 3 45 -1.43 0.00
 12 3 45 -4.60 0.00
 14 3 45 -13.01 0.00
 16 3 45 -23.96 0.00
 1 4 45 6.58 0.00
 3 4 45 20.55 0.00
 5 4 45 3.41 0.00
 7 4 45 7.07 0.00
 9 4 45 -10.03 0.00
 11 4 45 -13.21 0.00
 13 4 45 -4.55 0.00
 15 4 45 -2.51 0.00
 2 5 45 -4.36 0.00
 4 5 45 8.52 0.00
 6 5 45 16.73 0.00
 8 5 45 -0.90 0.00
 10 5 45 -7.04 0.00
 12 5 45 2.95 0.00
 14 5 45 3.52 0.00
 16 5 45 7.55 0.00
 1 6 45 -6.02 0.00
 3 6 45 -9.17 0.00
 5 6 45 -22.36 0.00
 7 6 45 -6.44 0.00
 9 6 45 -6.85 0.00
 11 6 45 10.00 0.00
 13 6 45 -18.54 0.00
 15 6 45 11.97 0.00
 2 7 45 -8.52 0.00
 4 7 45 0.48 0.00
 6 7 45 -9.35 0.00
 8 7 45 3.92 0.00
 10 7 45 -3.99 0.00
 12 7 45 -15.28 0.00
 14 7 45 -2.62 0.00
 16 7 45 2.31 0.00
 1 8 45 -3.25 0.00
 3 8 45 -0.33 0.00
 5 8 45 12.36 0.00
 7 8 45 -0.69 0.00
 9 8 45 -4.23 0.00
 11 8 45 -5.21 0.00
 13 8 45 7.34 0.00
 15 8 45 -0.70 0.00
 2 9 45 -3.27 0.00
 4 9 45 -1.14 0.00
 6 9 45 -2.80 0.00
 8 9 45 13.44 0.00
 10 9 45 -1.38 0.00
 12 9 45 1.88 0.00
 14 9 45 5.16 0.00
 1 10 45 4.25 0.00
 3 10 45 -0.66 0.00
 5 10 45 1.53 0.00
 7 10 45 19.43 0.00
 9 10 45 -2.09 0.00
 11 10 45 -16.70 0.00
 13 10 45 3.04 0.00
 15 10 45 -2.93 0.00
 2 11 45 9.74 0.00
 4 11 45 20.56 0.00
 6 11 45 -12.80 0.00
 8 11 45 -9.12 0.00
 10 11 45 -0.12 0.00
 12 11 45 8.05 0.00
 14 11 45 0.35 0.00
 1 12 45 -8.23 0.00
 3 12 45 2.50 0.00
 5 12 45 -6.40 0.00
 7 12 45 -8.25 0.00
 9 12 45 -0.41 0.00
 11 12 45 2.41 0.00
 13 12 45 -1.05 0.00
 15 12 45 4.05 0.00
 2 13 45 -1.68 0.00
 4 13 45 7.65 0.00
 6 13 45 -0.23 0.00
 8 13 45 5.54 0.00
 10 13 45 2.70 0.00
 12 13 45 -0.16 0.00
 14 13 45 2.64 0.00
 1 14 45 5.77 0.00
 3 14 45 -5.56 0.00
 5 14 45 -6.81 0.00
 7 14 45 7.91 0.00
 9 14 45 10.69 0.00
 11 14 45 -6.77 0.00
 13 14 45 3.48 0.00
 2 15 45 3.36 0.00
 4 15 45 -10.07 0.00
 6 15 45 6.16 0.00
 8 15 45 9.17 0.00
 10 15 45 3.84 0.00
 12 15 45 -11.02 0.00
 14 15 45 -2.23 0.00
 1 16 45 -6.11 0.00
 3 16 45 -16.19 0.00
 5 16 45 -2.73 0.00
 7 16 45 -12.37 0.00
 9 16 45 9.28 0.00
 11 16 45 -7.76 0.00
 13 16 45 -10.37 0.00
 2 17 45 -6.50 0.00
 4 17 45 11.11 0.00
 6 17 45 0.00 0.00
 8 17 45 -6.74 0.00
 10 17 45 -1.68 0.00
 12 17 45 5.83 0.00
 1 18 45 -14.05 0.00
 3 18 45 -3.30 0.00
 5 18 45 16.20 0.00
 7 18 45 -8.86 0.00
 9 18 45 1.14 0.00
 11 18 45 5.95 0.00
 13 18 45 1.09 0.00
 2 19 45 7.48 0.00
 4 19 45 14.91 0.00
 6 19 45 -6.96 0.00
 8 19 45 7.22 0.00
 10 19 45 0.21 0.00
 12 19 45 -8.39 0.00
 1 20 45 -6.19 0.00
 3 20 45 -10.52 0.00
 5 20 45 6.93 0.00
 7 20 45 1.05 0.00
 9 20 45 -0.88 0.00
 11 20 45 -5.42 0.00
 2 21 45 -4.10 0.00
 4 21 45 13.86 0.00
 6 21 45 -9.76 0.00
 8 21 45 -3.76 0.00
 10 21 45 -4.80 0.00
 12 21 45 12.82 0.00
 1 22 45 -8.00 0.00
 3 22 45 -3.07 0.00
 5 22 45 0.68 0.00
 7 22 45 -0.77 0.00
 9 22 45 -6.03 0.00
 11 22 45 -6.47 0.00
 2 23 45 -19.58 0.00
 4 23 45 8.93 0.00
 6 23 45 13.61 0.00
 8 23 45 5.22 0.00
 10 23 45 -5.13 0.00
 1 24 45 -2.20 0.00
 3 24 45 -13.47 0.00
 5 24 45 3.03 0.00
 7 24 45 0.45 0.00
 9 24 45 18.79 0.00
 2 25 45 -4.04 0.00
 4 25 45 -5.93 0.00
 6 25 45 7.46 0.00
 8 25 45 -6.35 0.00
 10 25 45 9.27 0.00
 1 26 45 -2.42 0.00
 3 26 45 -19.03 0.00
 5 26 45 16.60 0.00
 7 26 45 12.71 0.00
 9 26 45 8.46 0.00
 2 27 45 3.16 0.00
 4 27 45 -12.42 0.00
 6 27 45 12.77 0.00
 8 27 45 -0.91 0.00
 1 28 45 -12.39 0.00
 3 28 45 -6.78 0.00
 5 28 45 9.84 0.00
 7 28 45 13.18 0.00
 2 29 45 6.78 0.00
 4 29 45 4.61 0.00
 6 29 45 -2.19 0.00
 1 30 45 -7.89 0.00
 3 30 45 9.61 0.00
 5 30 45 20.33 0.00
 2 31 45 -5.70 0.00
 2 0 46 2.75 0.00
 4 0 46 2.02 0.00
 6 0 46 -5.48 0.00
 8 0 46 -0.07 0.00
 10 0 46 -22.07 0.00
 12 0 46 9.31 0.00
 14 0 46 9.65 0.00
 16 0 46 -17.07 0.00
 1 1 46 -4.84 0.00
 3 1 46 -5.39 0.00
 5 1 46 -0.15 0.00
 7 1 46 4.69 0.00
 9 1 46 -12.89 0.00
 11 1 46 3.31 0.00
 13 1 46 0.95 0.00
 15 1 46 12.57 0.00
 0 2 46 -7.37 0.00
 2 2 46 -3.51 0.00
 4 2 46 -6.62 0.00
 6 2 46 12.13 0.00
 8 2 46 4.42 0.00
 10 2 46 -8.34 0.00
 12 2 46 -19.52 0.00
 14 2 46 7.30 0.00
 16 2 46 0.61 0.00
 1 3 46 -1.87 0.00
 3 3 46 1.25 0.00
 5 3 46 2.52 0.00
 7 3 46 8.78 0.00
 9 3 46 11.70 0.00
 11 3 46 -3.09 0.00
 13 3 46 5.04 0.00
 15 3 46 0.03 0.00
 0 4 46 0.53 0.00
 2 4 46 2.14 0.00
 4 4 46 -2.61 0.00
 6 4 46 -6.24 0.00
 8 4 46 -1.08 0.00
 10 4 46 -7.95 0.00
 12 4 46 -11.08 0.00
 14 4 46 -4.24 0.00
 1 5 46 0.93 0.00
 3 5 46 6.07 0.00
 5 5 46 -10.09 0.00
 7 5 46 -12.00 0.00
 9 5 46 4.31 0.00
 11 5 46 -0.70 0.00
 13 5 46 -5.36 0.00
 15 5 46 16.42 0.00
 0 6 46 -6.20 0.00
 2 6 46 17.20 0.00
 4 6 46 -3.48 0.00
 6 6 46 5.96 0.00
 8 6 46 1.34 0.00
 10 6 46 -8.62 0.00
 12 6 46 4.50 0.00
 14 6 46 1.58 0.00
 1 7 46 -9.65 0.00
 3 7 46 -1.94 0.00
 5 7 46 -0.82 0.00
 7 7 46 -7.97 0.00
 9 7 46 5.03 0.00
 11 7 46 -4.56 0.00
 13 7 46 1.48 0.00
 15 7 46 3.48 0.00
 0 8 46 12.90 0.00
 2 8 46 -0.04 0.00
 4 8 46 2.04 0.00
 6 8 46 1.86 0.00
 8 8 46 2.34 0.00
 10 8 46 13.65 0.00
 12 8 46 -12.26 0.00
 14 8 46 15.72 0.00
 1 9 46 4.37 0.00
 3 9 46 -0.18 0.00
 5 9 46 15.89 0.00
 7 9 46 -0.35 0.00
 9 9 46 1.62 0.00
 11 9 46 -12.47 0.00
 13 9 46 -18.27 0.00
 15 9 46 0.38 0.00
 0 10 46 -12.25 0.00
 2 10 46 5.94 0.00
 4 10 46 9.36 0.00
 6 10 46 -4.29 0.00
 8 10 46 10.05 0.00
 10 10 46 -0.91 0.00
 12 10 46 -2.02 0.00
 14 10 46 -3.28 0.00
 1 11 46 -6.35 0.00
 3 11 46 5.07 0.00
 5 11 46 -5.39 0.00
 7 11 46 -14.67 0.00
 9 11 46 -8.49 0.00
 11 11 46 -11.46 0.00
 13 11 46 -7.24 0.00
 15 11 46 -2.25 0.00
 0 12 46 14.71 0.00
 2 12 46 -18.04 0.00
 4 12 46 -2.23 0.00
 6 12 46 8.60 0.00
 8 12 46 -5.01 0.00
 10 12 46 11.13 0.00
 12 12 46 6.46 0.00
 14 12 46 -2.74 0.00
 1 13 46 -3.69 0.00
 3 13 46 -14.21 0.00
 5 13 46 -7.51 0.00
 7 13 46 1.92 0.00
 9 13 46 3.62 0.00
 11 13 46 -2.00 0.00
 13 13 46 -1.89 0.00
 0 14 46 -6.34 0.00
 2 14 46 9.55 0.00
 4 14 46 -7.81 0.00
 6 14 46 10.25 0.00
 8 14 46 -0.21 0.00
 10 14 46 1.85 0.00
 12 14 46 -7.89 0.00
 14 14 46 -0.79 0.00
 1 15 46 -1.60 0.00
 3 15 46 -2.70 0.00
 5 15 46 3.30 0.00
 7 15 46 9.92 0.00
 9 15 46 -6.38 0.00
 11 15 46 -4.16 0.00
 13 15 46 2.29 0.00
 0 16 46 9.53 0.00
 2 16 46 1.50 0.00
 4 16 46 -7.81 0.00
 6 16 46 16.12 0.00
 8 16 46 8.87 0.00
 10 16 46 -6.61 0.00
 12 16 46 -11.02 0.00
 1 17 46 1.14 0.00
 3 17 46 2.68 0.00
 5 17 46 1.48 0.00
 7 17 46 0.04 0.00
 9 17 46 -0.50 0.00
 11 17 46 0.66 0.00
 13 17 46 -11.78 0.00
 0 18 46 2.87 0.00
 2 18 46 -9.79 0.00
 4 18 46 10.79 0.00
 6 18 46 -2.61 0.00
 8 18 46 -3.34 0.00
 10 18 46 10.94 0.00
 12 18 46 -7.54 0.00
 1 19 46 -0.97 0.00
 3 19 46 1.15 0.00
 5 19 46 1.45 0.00
 7 19 46 -0.30 0.00
 9 19 46 10.68 0.00
 11 19 46 -1.98 0.00
 0 20 46 -5.54 0.00
 2 20 46 -0.66 0.00
 4 20 46 9.00 0.00
 6 20 46 -4.29 0.00
 8 20 46 -12.10 0.00
 10 20 46 11.09 0.00
 12 20 46 -1.41 0.00
 1 21 46 11.15 0.00
 3 21 46 -9.76 0.00
 5 21 46 -4.89 0.00
 7 21 46 6.32 0.00
 9 21 46 8.00 0.00
 11 21 46 -8.03 0.00
 0 22 46 -15.93 0.00
 2 22 46 -11.33 0.00
 4 22 46 -5.00 0.00
 6 22 46 8.12 0.00
 8 22 46 6.67 0.00
 10 22 46 3.00 0.00
 1 23 46 3.73 0.00
 3 23 46 20.65 0.00
 5 23 46 -10.45 0.00
 7 23 46 -6.10 0.00
 9 23 46 -8.04 0.00
 0 24 46 -7.96 0.00
 2 24 46 1.56 0.00
 4 24 46 -17.42 0.00
 6 24 46 -9.66 0.00
 8 24 46 2.19 0.00
 10 24 46 2.09 0.00
 1 25 46 20.42 0.00
 3 25 46 13.51 0.00
 5 25 46 -7.70 0.00
 7 25 46 -4.12 0.00
 9 25 46 -14.56 0.00
 0 26 46 -4.78 0.00
 2 26 46 -4.92 0.00
 4 26 46 -0.44 0.00
 6 26 46 -11.39 0.00
 8 26 46 2.68 0.00
 1 27 46 4.36 0.00
 3 27 46 1.64 0.00
 5 27 46 1.32 0.00
 7 27 46 1.04 0.00
 0 28 46 7.45 0.00
 2 28 46 -2.60 0.00
 4 28 46 0.60 0.00
 6 28 46 -3.58 0.00
 1 29 46 -13.47 0.00
 3 29 46 -5.05 0.00
 5 29 46 -7.87 0.00
 0 30 46 -7.09 0.00
 2 30 46 0.95 0.00
 2 1 47 2.73 0.00
 4 1 47 -0.88 0.00
 6 1 47 -7.16 0.00
 8 1 47 0.64 0.00
 10 1 47 12.50 0.00
 12 1 47 -3.78 0.00
 14 1 47 -7.27 0.00
 1 2 47 -0.74 0.00
 3 2 47 -0.56 0.00
 5 2 47 -3.78 0.00
 7 2 47 -2.73 0.00
 9 2 47 7.91 0.00
 11 2 47 20.41 0.00
 13 2 47 10.13 0.00
 15 2 47 -12.13 0.00
 2 3 47 -2.67 0.00
 4 3 47 10.18 0.00
 6 3 47 -0.44 0.00
 8 3 47 6.60 0.00
 10 3 47 15.05 0.00
 12 3 47 -5.01 0.00
 14 3 47 4.90 0.00
 1 4 47 -10.46 0.00
 3 4 47 -0.56 0.00
 5 4 47 2.98 0.00
 7 4 47 2.86 0.00
 9 4 47 2.48 0.00
 11 4 47 -5.97 0.00
 13 4 47 14.15 0.00
 15 4 47 0.24 0.00
 2 5 47 6.25 0.00
 4 5 47 12.71 0.00
 6 5 47 10.95 0.00
 8 5 47 -11.01 0.00
 10 5 47 -1.42 0.00
 12 5 47 -2.92 0.00
 14 5 47 2.65 0.00
 1 6 47 -1.53 0.00
 3 6 47 -7.40 0.00
 5 6 47 10.14 0.00
 7 6 47 -2.37 0.00
 9 6 47 -1.89 0.00
 11 6 47 -12.36 0.00
 13 6 47 -15.88 0.00
 15 6 47 -6.01 0.00
 2 7 47 -13.20 0.00
 4 7 47 -23.16 0.00
 6 7 47 13.28 0.00
 8 7 47 -0.22 0.00
 10 7 47 4.48 0.00
 12 7 47 -4.72 0.00
 14 7 47 14.61 0.00
 1 8 47 6.22 0.00
 3 8 47 3.31 0.00
 5 8 47 15.16 0.00
 7 8 47 9.61 0.00
 9 8 47 1.42 0.00
 11 8 47 -1.40 0.00
 13 8 47 -15.69 0.00
 15 8 47 -5.88 0.00
 2 9 47 8.62 0.00
 4 9 47 -2.61 0.00
 6 9 47 3.85 0.00
 8 9 47 18.86 0.00
 10 9 47 4.42 0.00
 12 9 47 0.26 0.00
 14 9 47 -10.17 0.00
 1 10 47 6.51 0.00
 3 10 47 6.35 0.00
 5 10 47 6.18 0.00
 7 10 47 -1.86 0.00
 9 10 47 -10.02 0.00
 11 10 47 1.12 0.00
 13 10 47 -4.76 0.00
 2 11 47 4.07 0.00
 4 11 47 6.61 0.00
 6 11 47 -3.84 0.00
 8 11 47 3.04 0.00
 10 11 47 1.88 0.00
 12 11 47 -2.07 0.00
 14 11 47 19.99 0.00
 1 12 47 -5.93 0.00
 3 12 47 0.17 0.00
 5 12 47 -12.97 0.00
 7 12 47 -3.89 0.00
 9 12 47 -2.81 0.00
 11 12 47 2.80 0.00
 13 12 47 -6.98 0.00
 2 13 47 12.17 0.00
 4 13 47 -12.03 0.00
 6 13 47 3.54 0.00
 8 13 47 20.13 0.00
 10 13 47 0.89 0.00
 12 13 47 1.30 0.00
 14 13 47 3.53 0.00
 1 14 47 -3.58 0.00
 3 14 47 9.30 0.00
 5 14 47 -15.35 0.00
 7 14 47 3.39 0.00
 9 14 47 3.14 0.00
 11 14 47 -6.66 0.00
 13 14 47 -18.86 0.00
 2 15 47 -13.34 0.00
 4 15 47 4.92 0.00
 6 15 47 -11.49 0.00
 8 15 47 7.91 0.00
 10 15 47 6.61 0.00
 12 15 47 -10.64 0.00
 1 16 47 14.76 0.00
 3 16 47 0.56 0.00
 5 16 47 -0.30 0.00
 7 16 47 8.08 0.00
 9 16 47 7.89 0.00
 11 16 47 -6.55 0.00
 13 16 47 -16.55 0.00
 2 17 47 4.54 0.00
 4 17 47 -19.43 0.00
 6 17 47 -2.90 0.00
 8 17 47 2.73 0.00
 10 17 47 -11.73 0.00
 12 17 47 -9.12 0.00
 1 18 47 0.60 0.00
 3 18 47 11.48 0.00
 5 18 47 -2.00 0.00
 7 18 47 -1.91 0.00
 9 18 47 -13.99 0.00
 11 18 47 6.92 0.00
 2 19 47 8.58 0.00
 4 19 47 7.04 0.00
 6 19 47 0.74 0.00
 8 19 47 -2.47 0.00
 10 19 47 7.75 0.00
 12 19 47 8.86 0.00
 1 20 47 -4.19 0.00
 3 20 47 11.22 0.00
 5 20 47 9.69 0.00
 7 20 47 11.59 0.00
 9 20 47 6.28 0.00
 11 20 47 4.96 0.00
 2 21 47 4.34 0.00
 4 21 47 -2.51 0.00
 6 21 47 -10.95 0.00
 8 21 47 -1.70 0.00
 10 21 47 1.67 0.00
 1 22 47 -1.82 0.00
 3 22 47 6.63 0.00
 5 22 47 -26.65 0.00
 7 22 47 -13.56 0.00
 9 22 47 -10.18 0.00
 2 23 47 10.74 0.00
 4 23 47 2.88 0.00
 6 23 47 18.17 0.00
 8 23 47 5.22 0.00
 10 23 47 -6.17 0.00
 1 24 47 -4.15 0.00
 3 24 47 -0.45 0.00
 5 24 47 15.11 0.00
 7 24 47 -6.05 0.00
 9 24 47 -4.66 0.00
 2 25 47 4.73 0.00
 4 25 47 -9.48 0.00
 6 25 47 5.36 0.00
 8 25 47 6.86 0.00
 1 26 47 2.19 0.00
 3 26 47 -16.71 0.00
 5 26 47 -12.05 0.00
 7 26 47 -8.36 0.00
 2 27 47 -11.20 0.00
 4 27 47 -0.06 0.00
 6 27 47 -1.98 0.00
 1 28 47 4.66 0.00
 3 28 47 4.93 0.00
 5 28 47 3.31 0.00
 2 29 47 -2.97 0.00
 4 29 47 -11.01 0.00
 1 30 47 -1.43 0.00
 0 0 48 30.90 0.00
 2 0 48 13.74 0.00
 4 0 48 0.00 0.00
 6 0 48 23.66 0.00
 8 0 48 -5.25 0.00
 10 0 48 7.69 0.00
 12 0 48 4.27 0.00
 14 0 48 8.62 0.00
 1 1 48 -11.08 0.00
 3 1 48 -3.03 0.00
 5 1 48 0.68 0.00
 7 1 48 0.00 0.00
 9 1 48 -1.12 0.00
 11 1 48 -0.04 0.00
 13 1 48 -20.08 0.00
 15 1 48 -0.16 0.00
 0 2 48 -9.40 0.00
 2 2 48 -2.19 0.00
 4 2 48 -6.02 0.00
 6 2 48 6.77 0.00
 8 2 48 11.54 0.00
 10 2 48 3.54 0.00
 12 2 48 8.11 0.00
 14 2 48 11.98 0.00
 1 3 48 -5.94 0.00
 3 3 48 -2.86 0.00
 5 3 48 -8.33 0.00
 7 3 48 1.49 0.00
 9 3 48 0.85 0.00
 11 3 48 -0.51 0.00
 13 3 48 -11.99 0.00
 15 3 48 0.95 0.00
 0 4 48 3.84 0.00
 2 4 48 -3.72 0.00
 4 4 48 4.18 0.00
 6 4 48 10.57 0.00
 8 4 48 8.26 0.00
 10 4 48 5.47 0.00
 12 4 48 3.82 0.00
 14 4 48 -14.27 0.00
 1 5 48 -3.14 0.00
 3 5 48 0.44 0.00
 5 5 48 -5.51 0.00
 7 5 48 15.16 0.00
 9 5 48 10.21 0.00
 11 5 48 6.75 0.00
 13 5 48 -0.76 0.00
 0 6 48 26.08 0.00
 2 6 48 -0.51 0.00
 4 6 48 -18.55 0.00
 6 6 48 8.76 0.00
 8 6 48 10.39 0.00
 10 6 48 18.21 0.00
 12 6 48 20.95 0.00
 14 6 48 -11.67 0.00
 1 7 48 -9.82 0.00
 3 7 48 3.90 0.00
 5 7 48 -6.78 0.00
 7 7 48 -8.04 0.00
 9 7 48 15.99 0.00
 11 7 48 -17.91 0.00
 13 7 48 -31.70 0.00
 0 8 48 13.13 0.00
 2 8 48 -2.84 0.00
 4 8 48 1.48 0.00
 6 8 48 -0.58 0.00
 8 8 48 4.85 0.00
 10 8 48 -6.81 0.00
 12 8 48 13.45 0.00
 14 8 48 -6.86 0.00
 1 9 48 11.97 0.00
 3 9 48 -0.98 0.00
 5 9 48 7.99 0.00
 7 9 48 10.98 0.00
 9 9 48 19.68 0.00
 11 9 48 0.26 0.00
 13 9 48 -20.80 0.00
 0 10 48 10.18 0.00
 2 10 48 -2.15 0.00
 4 10 48 13.71 0.00
 6 10 48 14.31 0.00
 8 10 48 12.68 0.00
 10 10 48 2.42 0.00
 12 10 48 9.91 0.00
 14 10 48 8.03 0.00
 1 11 48 14.90 0.00
 3 11 48 -11.93 0.00
 5 11 48 -17.95 0.00
 7 11 48 3.18 0.00
 9 11 48 -2.95 0.00
 11 11 48 -13.55 0.00
 13 11 48 -18.71 0.00
 0 12 48 -5.68 0.00
 2 12 48 -3.32 0.00
 4 12 48 4.64 0.00
 6 12 48 -4.87 0.00
 8 12 48 11.00 0.00
 10 12 48 -3.56 0.00
 12 12 48 5.51 0.00
 1 13 48 -1.78 0.00
 3 13 48 0.73 0.00
 5 13 48 8.59 0.00
 7 13 48 0.02 0.00
 9 13 48 -2.79 0.00
 11 13 48 -5.34 0.00
 13 13 48 9.86 0.00
 0 14 48 -14.51 0.00
 2 14 48 4.92 0.00
 4 14 48 -9.82 0.00
 6 14 48 -11.42 0.00
 8 14 48 8.46 0.00
 10 14 48 3.62 0.00
 12 14 48 10.78 0.00
 1 15 48 -14.73 0.00
 3 15 48 2.73 0.00
 5 15 48 -0.88 0.00
 7 15 48 7.77 0.00
 9 15 48 5.54 0.00
 11 15 48 -4.61 0.00
 13 15 48 -6.55 0.00
 0 16 48 -0.16 0.00
 2 16 48 -9.42 0.00
 4 16 48 -6.21 0.00
 6 16 48 -8.13 0.00
 8 16 48 -2.35 0.00
 10 16 48 -9.68 0.00
 12 16 48 -2.63 0.00
 1 17 48 -7.98 0.00
 3 17 48 3.19 0.00
 5 17 48 2.94 0.00
 7 17 48 0.86 0.00
 9 17 48 3.74 0.00
 11 17 48 -1.16 0.00
 0 18 48 -4.82 0.00
 2 18 48 -5.03 0.00
 4 18 48 -9.50 0.00
 6 18 48 -7.78 0.00
 8 18 48 6.25 0.00
 10 18 48 3.04 0.00
 1 19 48 -13.91 0.00
 3 19 48 0.17 0.00
 5 19 48 0.77 0.00
 7 19 48 2.30 0.00
 9 19 48 6.71 0.00
 11 19 48 0.21 0.00
 0 20 48 -9.18 0.00
 2 20 48 17.09 0.00
 4 20 48 -2.22 0.00
 6 20 48 -11.51 0.00
 8 20 48 8.21 0.00
 10 20 48 -1.77 0.00
 1 21 48 16.98 0.00
 3 21 48 24.31 0.00
 5 21 48 -5.61 0.00
 7 21 48 10.95 0.00
 9 21 48 -4.63 0.00
 0 22 48 -18.29 0.00
 2 22 48 1.10 0.00
 4 22 48 -20.03 0.00
 6 22 48 2.17 0.00
 8 22 48 4.52 0.00
 10 22 48 -2.19 0.00
 1 23 48 -10.48 0.00
 3 23 48 2.59 0.00
 5 23 48 -2.94 0.00
 7 23 48 1.84 0.00
 9 23 48 -4.49 0.00
 0 24 48 -17.84 0.00
 2 24 48 9.14 0.00
 4 24 48 -13.86 0.00
 6 24 48 1.64 0.00
 8 24 48 2.53 0.00
 1 25 48 25.15 0.00
 3 25 48 15.34 0.00
 5 25 48 -2.39 0.00
 7 25 48 -1.39 0.00
 0 26 48 -25.30 0.00
 2 26 48 -10.61 0.00
 4 26 48 -2.67 0.00
 6 26 48 -25.78 0.00
 1 27 48 5.33 0.00
 3 27 48 -16.23 0.00
 5 27 48 -7.69 0.00
 0 28 48 0.67 0.00
 2 28 48 -0.01 0.00
 4 28 48 8.88 0.00
 1 29 48 -3.23 0.00
 2 1 49 17.21 0.00
 4 1 49 -9.77 0.00
 6 1 49 -6.73 0.00
 8 1 49 -2.18 0.00
 10 1 49 3.94 0.00
 12 1 49 -3.08 0.00
 14 1 49 9.44 0.00
 1 2 49 4.85 0.00
 3 2 49 -2.37 0.00
 5 2 49 10.05 0.00
 7 2 49 9.84 0.00
 9 2 49 10.48 0.00
 11 2 49 -7.92 0.00
 13 2 49 -1.84 0.00
 2 3 49 18.38 0.00
 4 3 49 6.04 0.00
 6 3 49 -0.85 0.00
 8 3 49 3.83 0.00
 10 3 49 -5.20 0.00
 12 3 49 -13.06 0.00
 14 3 49 -7.88 0.00
 1 4 49 12.59 0.00
 3 4 49 -3.52 0.00
 5 4 49 -6.98 0.00
 7 4 49 -7.25 0.00
 9 4 49 -1.73 0.00
 11 4 49 -8.05 0.00
 13 4 49 0.44 0.00
 2 5 49 -1.55 0.00
 4 5 49 7.64 0.00
 6 5 49 5.30 0.00
 8 5 49 -10.29 0.00
 10 5 49 8.85 0.00
 12 5 49 16.64 0.00
 14 5 49 13.91 0.00
 1 6 49 -2.29 0.00
 3 6 49 -2.83 0.00
 5 6 49 3.55 0.00
 7 6 49 0.38 0.00
 9 6 49 -0.42 0.00
 11 6 49 -5.90 0.00
 13 6 49 -8.34 0.00
 2 7 49 2.76 0.00
 4 7 49 7.27 0.00
 6 7 49 3.49 0.00
 8 7 49 -1.86 0.00
 10 7 49 -11.32 0.00
 12 7 49 -15.01 0.00
 14 7 49 -15.83 0.00
 1 8 49 -17.74 0.00
 3 8 49 -17.97 0.00
 5 8 49 10.24 0.00
 7 8 49 -15.71 0.00
 9 8 49 -2.87 0.00
 11 8 49 -10.98 0.00
 13 8 49 7.91 0.00
 2 9 49 13.89 0.00
 4 9 49 -14.86 0.00
 6 9 49 -4.71 0.00
 8 9 49 3.63 0.00
 10 9 49 -6.50 0.00
 12 9 49 12.60 0.00
 1 10 49 2.03 0.00
 3 10 49 3.23 0.00
 5 10 49 14.05 0.00
 7 10 49 9.07 0.00
 9 10 49 1.99 0.00
 11 10 49 1.38 0.00
 13 10 49 -5.45 0.00
 2 11 49 13.62 0.00
 4 11 49 4.90 0.00
 6 11 49 10.84 0.00
 8 11 49 -8.44 0.00
 10 11 49 -6.43 0.00
 12 11 49 -12.63 0.00
 1 12 49 -10.56 0.00
 3 12 49 -0.18 0.00
 5 12 49 -10.74 0.00
 7 12 49 -28.26 0.00
 9 12 49 -4.48 0.00
 11 12 49 19.77 0.00
 13 12 49 -9.54 0.00
 2 13 49 -9.67 0.00
 4 13 49 -4.76 0.00
 6 13 49 2.84 0.00
 8 13 49 -7.56 0.00
 10 13 49 2.28 0.00
 12 13 49 -5.25 0.00
 1 14 49 9.20 0.00
 3 14 49 12.44 0.00
 5 14 49 -8.67 0.00
 7 14 49 -5.04 0.00
 9 14 49 8.81 0.00
 11 14 49 -3.44 0.00
 2 15 49 0.67 0.00
 4 15 49 -17.54 0.00
 6 15 49 -6.53 0.00
 8 15 49 11.07 0.00
 10 15 49 8.20 0.00
 12 15 49 -5.21 0.00
 1 16 49 -5.93 0.00
 3 16 49 -15.92 0.00
 5 16 49 -12.67 0.00
 7 16 49 -12.97 0.00
 9 16 49 2.02 0.00
 11 16 49 3.78 0.00
 2 17 49 -0.64 0.00
 4 17 49 4.47 0.00
 6 17 49 -0.52 0.00
 8 17 49 -5.96 0.00
 10 17 49 6.37 0.00
 1 18 49 -18.02 0.00
 3 18 49 -3.53 0.00
 5 18 49 -5.60 0.00
 7 18 49 -8.67 0.00
 9 18 49 6.73 0.00
 11 18 49 24.52 0.00
 2 19 49 4.63 0.00
 4 19 49 9.23 0.00
 6 19 49 -2.36 0.00
 8 19 49 -2.69 0.00
 10 19 49 5.58 0.00
 1 20 49 -10.45 0.00
 3 20 49 4.12 0.00
 5 20 49 -3.58 0.00
 7 20 49 0.03 0.00
 9 20 49 2.38 0.00
 2 21 49 14.89 0.00
 4 21 49 6.28 0.00
 6 21 49 -3.72 0.00
 8 21 49 6.65 0.00
 1 22 49 4.67 0.00
 3 22 49 -6.89 0.00
 5 22 49 -6.63 0.00
 7 22 49 -2.89 0.00
 9 22 49 0.62 0.00
 2 23 49 -5.53 0.00
 4 23 49 -2.97 0.00
 6 23 49 -1.08 0.00
 8 23 49 0.51 0.00
 1 24 49 8.44 0.00
 3 24 49 -8.25 0.00
 5 24 49 4.45 0.00
 7 24 49 -17.63 0.00
 2 25 49 8.50 0.00
 4 25 49 9.92 0.00
 6 25 49 2.09 0.00
 1 26 49 3.99 0.00
 3 26 49 1.88 0.00
 5 26 49 2.27 0.00
 2 27 49 3.87 0.00
 4 27 49 -13.12 0.00
 1 28 49 3.91 0.00
 0 0 50 13.65 0.00
 2 0 50 8.54 0.00
 4 0 50 -0.37 0.00
 6 0 50 -10.48 0.00
 8 0 50 6.26 0.00
 10 0 50 -3.62 0.00
 12 0 50 -2.56 0.00
 14 0 50 -16.28 0.00
 1 1 50 -18.46 0.00
 3 1 50 3.32 0.00
 5 1 50 -3.15 0.00
 7 1 50 10.08 0.00
 9 1 50 2.10 0.00
 11 1 50 -10.56 0.00
 13 1 50 -8.25 0.00
 0 2 50 4.11 0.00
 2 2 50 10.63 0.00
 4 2 50 -1.99 0.00
 6 2 50 0.67 0.00
 8 2 50 -6.28 0.00
 10 2 50 -4.91 0.00
 12 2 50 -3.87 0.00
 14 2 50 2.27 0.00
 1 3 50 13.88 0.00
 3 3 50 4.51 0.00
 5 3 50 2.41 0.00
 7 3 50 4.90 0.00
 9 3 50 1.48 0.00
 11 3 50 -4.56 0.00
 13 3 50 11.58 0.00
 0 4 50 -8.87 0.00
 2 4 50 -8.05 0.00
 4 4 50 -1.82 0.00
 6 4 50 -5.62 0.00
 8 4 50 3.72 0.00
 10 4 50 5.22 0.00
 12 4 50 -6.34 0.00
 14 4 50 3.81 0.00
 1 5 50 -3.84 0.00
 3 5 50 3.86 0.00
 5 5 50 -9.70 0.00
 7 5 50 -3.53 0.00
 9 5 50 2.20 0.00
 11 5 50 3.95 0.00
 13 5 50 4.92 0.00
 0 6 50 -3.05 0.00
 2 6 50 12.19 0.00
 4 6 50 9.56 0.00
 6 6 50 1.51 0.00
 8 6 50 -3.69 0.00
 10 6 50 2.08 0.00
 12 6 50 16.44 0.00
 1 7 50 -9.30 0.00
 3 7 50 6.48 0.00
 5 7 50 -7.59 0.00
 7 7 50 -0.64 0.00
 9 7 50 -8.14 0.00
 11 7 50 -5.03 0.00
 13 7 50 -1.04 0.00
 0 8 50 18.92 0.00
 2 8 50 3.60 0.00
 4 8 50 8.08 0.00
 6 8 50 11.45 0.00
 8 8 50 -4.54 0.00
 10 8 50 11.12 0.00
 12 8 50 9.92 0.00
 1 9 50 8.20 0.00
 3 9 50 9.10 0.00
 5 9 50 8.48 0.00
 7 9 50 9.07 0.00
 9 9 50 7.25 0.00
 11 9 50 11.57 0.00
 13 9 50 -14.97 0.00
 0 10 50 -13.73 0.00
 2 10 50 7.05 0.00
 4 10 50 6.01 0.00
 6 10 50 -4.28 0.00
 8 10 50 12.01 0.00
 10 10 50 5.14 0.00
 12 10 50 12.42 0.00
 1 11 50 -1.98 0.00
 3 11 50 -1.99 0.00
 5 11 50 -15.52 0.00
 7 11 50 -7.15 0.00
 9 11 50 -18.24 0.00
 11 11 50 2.43 0.00
 0 12 50 5.76 0.00
 2 12 50 -15.32 0.00
 4 12 50 11.35 0.00
 6 12 50 11.59 0.00
 8 12 50 0.66 0.00
 10 12 50 2.62 0.00
 12 12 50 2.80 0.00
 1 13 50 5.15 0.00
 3 13 50 7.95 0.00
 5 13 50 14.98 0.00
 7 13 50 8.27 0.00
 9 13 50 8.55 0.00
 11 13 50 -2.19 0.00
 0 14 50 -0.38 0.00
 2 14 50 7.33 0.00
 4 14 50 -4.25 0.00
 6 14 50 -10.04 0.00
 8 14 50 -3.97 0.00
 10 14 50 -1.94 0.00
 12 14 50 -10.07 0.00
 1 15 50 -7.39 0.00
 3 15 50 -1.68 0.00
 5 15 50 1.73 0.00
 7 15 50 -3.02 0.00
 9 15 50 -3.18 0.00
 11 15 50 -3.92 0.00
 0 16 50 17.85 0.00
 2 16 50 10.16 0.00
 4 16 50 -12.81 0.00
 6 16 50 -6.71 0.00
 8 16 50 5.44 0.00
 10 16 50 -14.90 0.00
 1 17 50 7.58 0.00
 3 17 50 3.15 0.00
 5 17 50 13.14 0.00
 7 17 50 20.52 0.00
 9 17 50 -1.86 0.00
 11 17 50 -1.02 0.00
 0 18 50 -2.88 0.00
 2 18 50 -5.53 0.00
 4 18 50 9.11 0.00
 6 18 50 -3.81 0.00
 8 18 50 -3.84 0.00
 10 18 50 1.82 0.00
 1 19 50 0.57 0.00
 3 19 50 -8.78 0.00
 5 19 50 -6.03 0.00
 7 19 50 -9.03 0.00
 9 19 50 8.97 0.00
 0 20 50 0.15 0.00
 2 20 50 -0.44 0.00
 4 20 50 -4.18 0.00
 6 20 50 5.17 0.00
 8 20 50 -9.59 0.00
 1 21 50 -14.47 0.00
 3 21 50 -19.31 0.00
 5 21 50 4.35 0.00
 7 21 50 -0.41 0.00
 9 21 50 -4.17 0.00
 0 22 50 -10.46 0.00
 2 22 50 -3.33 0.00
 4 22 50 -2.48 0.00
 6 22 50 6.24 0.00
 8 22 50 3.02 0.00
 1 23 50 -0.53 0.00
 3 23 50 3.90 0.00
 5 23 50 15.65 0.00
 7 23 50 4.93 0.00
 0 24 50 5.17 0.00
 2 24 50 2.11 0.00
 4 24 50 2.40 0.00
 6 24 50 -10.19 0.00
 1 25 50 8.16 0.00
 3 25 50 -2.46 0.00
 5 25 50 -3.99 0.00
 0 26 50 5.45 0.00
 2 26 50 -12.71 0.00
 4 26 50 -6.37 0.00
 1 27 50 14.71 0.00
 2 1 51 -6.25 0.00
 4 1 51 -3.81 0.00
 6 1 51 5.01 0.00
 8 1 51 7.14 0.00
 10 1 51 -7.74 0.00
 12 1 51 -10.79 0.00
 1 2 51 3.95 0.00
 3 2 51 8.87 0.00
 5 2 51 -11.84 0.00
 7 2 51 -8.16 0.00
 9 2 51 1.86 0.00
 11 2 51 13.61 0.00
 13 2 51 0.56 0.00
 2 3 51 -5.29 0.00
 4 3 51 -2.30 0.00
 6 3 51 -13.56 0.00
 8 3 51 7.64 0.00
 10 3 51 0.44 0.00
 12 3 51 9.34 0.00
 1 4 51 -17.23 0.00
 3 4 51 -1.63 0.00
 5 4 51 1.59 0.00
 7 4 51 -0.47 0.00
 9 4 51 -3.03 0.00
 11 4 51 -3.39 0.00
 13 4 51 7.37 0.00
 2 5 51 -5.36 0.00
 4 5 51 4.16 0.00
 6 5 51 -2.96 0.00
 8 5 51 -3.18 0.00
 10 5 51 -17.73 0.00
 12 5 51 2.28 0.00
 1 6 51 -7.10 0.00
 3 6 51 -15.99 0.00
 5 6 51 -3.03 0.00
 7 6 51 12.35 0.00
 9 6 51 -3.15 0.00
 11 6 51 -17.62 0.00
 13 6 51 9.67 0.00
 2 7 51 -4.39 0.00
 4 7 51 -12.84 0.00
 6 7 51 3.72 0.00
 8 7 51 -4.86 0.00
 10 7 51 -3.13 0.00
 12 7 51 4.40 0.00
 1 8 51 12.29 0.00
 3 8 51 14.85 0.00
 5 8 51 1.69 0.00
 7 8 51 5.70 0.00
 9 8 51 -10.00 0.00
 11 8 51 1.18 0.00
 13 8 51 0.54 0.00
 2 9 51 -1.44 0.00
 4 9 51 -3.30 0.00
 6 9 51 -1.04 0.00
 8 9 51 -3.15 0.00
 10 9 51 -13.80 0.00
 12 9 51 1.03 0.00
 1 10 51 4.71 0.00
 3 10 51 -3.41 0.00
 5 10 51 7.08 0.00
 7 10 51 3.93 0.00
 9 10 51 -3.91 0.00
 11 10 51 0.38 0.00
 2 11 51 -1.73 0.00
 4 11 51 -3.19 0.00
 6 11 51 -3.33 0.00
 8 11 51 3.91 0.00
 10 11 51 8.01 0.00
 12 11 51 -1.82 0.00
 1 12 51 6.59 0.00
 3 12 51 -7.96 0.00
 5 12 51 3.02 0.00
 7 12 51 6.90 0.00
 9 12 51 -4.78 0.00
 11 12 51 -22.55 0.00
 2 13 51 9.43 0.00
 4 13 51 -3.68 0.00
 6 13 51 5.35 0.00
 8 13 51 2.18 0.00
 10 13 51 -9.23 0.00
 1 14 51 -0.66 0.00
 3 14 51 3.53 0.00
 5 14 51 -2.81 0.00
 7 14 51 -7.28 0.00
 9 14 51 -8.50 0.00
 11 14 51 -1.29 0.00
 2 15 51 -5.10 0.00
 4 15 51 7.04 0.00
 6 15 51 -7.67 0.00
 8 15 51 2.46 0.00
 10 15 51 -6.20 0.00
 1 16 51 2.32 0.00
 3 16 51 2.84 0.00
 5 16 51 8.14 0.00
 7 16 51 2.66 0.00
 9 16 51 2.81 0.00
 2 17 51 3.27 0.00
 4 17 51 -4.03 0.00
 6 17 51 11.43 0.00
 8 17 51 -9.59 0.00
 10 17 51 -19.24 0.00
 1 18 51 -1.97 0.00
 3 18 51 -2.91 0.00
 5 18 51 4.71 0.00
 7 18 51 3.84 0.00
 9 18 51 -15.56 0.00
 2 19 51 -6.47 0.00
 4 19 51 8.86 0.00
 6 19 51 3.76 0.00
 8 19 51 -24.04 0.00
 1 20 51 -1.05 0.00
 3 20 51 -14.80 0.00
 5 20 51 16.10 0.00
 7 20 51 3.23 0.00
 2 21 51 -3.84 0.00
 4 21 51 -4.36 0.00
 6 21 51 0.54 0.00
 8 21 51 9.95 0.00
 1 22 51 -5.26 0.00
 3 22 51 4.71 0.00
 5 22 51 2.18 0.00
 7 22 51 -8.26 0.00
 2 23 51 3.65 0.00
 4 23 51 10.81 0.00
 6 23 51 7.25 0.00
 1 24 51 -0.05 0.00
 3 24 51 6.87 0.00
 5 24 51 -3.34 0.00
 2 25 51 10.33 0.00
 4 25 51 30.32 0.00
 1 26 51 12.21 0.00
 0 0 52 27.81 0.00
 2 0 52 8.83 0.00
 4 0 52 0.78 0.00
 6 0 52 -7.15 0.00
 8 0 52 1.42 0.00
 10 0 52 2.21 0.00
 12 0 52 -29.47 0.00
 1 1 52 20.26 0.00
 3 1 52 -3.00 0.00
 5 1 52 1.07 0.00
 7 1 52 4.68 0.00
 9 1 52 16.08 0.00
 11 1 52 -13.01 0.00
 13 1 52 5.84 0.00
 0 2 52 -3.64 0.00
 2 2 52 -2.57 0.00
 4 2 52 -6.80 0.00
 6 2 52 -8.06 0.00
 8 2 52 8.12 0.00
 10 2 52 -13.10 0.00
 12 2 52 -17.80 0.00
 1 3 52 -5.44 0.00
 3 3 52 9.24 0.00
 5 3 52 7.07 0.00
 7 3 52 -3.86 0.00
 9 3 52 -6.46 0.00
 11 3 52 0.74 0.00
 0 4 52 8.84 0.00
 2 4 52 1.50 0.00
 4 4 52 -2.03 0.00
 6 4 52 -14.68 0.00
 8 4 52 3.69 0.00
 10 4 52 -6.00 0.00
 12 4 52 -20.51 0.00
 1 5 52 -4.91 0.00
 3 5 52 4.10 0.00
 5 5 52 -0.88 0.00
 7 5 52 6.83 0.00
 9 5 52 -6.11 0.00
 11 5 52 14.98 0.00
 0 6 52 -13.12 0.00
 2 6 52 5.21 0.00
 4 6 52 -4.37 0.00
 6 6 52 -0.99 0.00
 8 6 52 -2.11 0.00
 10 6 52 3.65 0.00
 12 6 52 -12.73 0.00
 1 7 52 -12.98 0.00
 3 7 52 -9.95 0.00
 5 7 52 11.04 0.00
 7 7 52 9.77 0.00
 9 7 52 -3.58 0.00
 11 7 52 -12.70 0.00
 0 8 52 6.04 0.00
 2 8 52 4.60 0.00
 4 8 52 -5.63 0.00
 6 8 52 -5.75 0.00
 8 8 52 -3.85 0.00
 10 8 52 -8.07 0.00
 12 8 52 0.29 0.00
 1 9 52 28.55 0.00
 3 9 52 -2.46 0.00
 5 9 52 -0.18 0.00
 7 9 52 -5.39 0.00
 9 9 52 -5.27 0.00
 11 9 52 5.16 0.00
 0 10 52 1.88 0.00
 2 10 52 1.37 0.00
 4 10 52 -10.16 0.00
 6 10 52 18.00 0.00
 8 10 52 13.11 0.00
 10 10 52 25.57 0.00
 1 11 52 -1.83 0.00
 3 11 52 -9.87 0.00
 5 11 52 -2.27 0.00
 7 11 52 -6.24 0.00
 9 11 52 -7.22 0.00
 11 11 52 -2.54 0.00
 0 12 52 6.46 0.00
 2 12 52 5.84 0.00
 4 12 52 -1.03 0.00
 6 12 52 5.75 0.00
 8 12 52 -1.32 0.00
 10 12 52 -5.54 0.00
 1 13 52 -8.32 0.00
 3 13 52 -4.64 0.00
 5 13 52 7.88 0.00
 7 13 52 1.57 0.00
 9 13 52 -2.53 0.00
 11 13 52 -7.73 0.00
 0 14 52 3.32 0.00
 2 14 52 0.27 0.00
 4 14 52 9.17 0.00
 6 14 52 1.58 0.00
 8 14 52 -8.22 0.00
 10 14 52 0.13 0.00
 1 15 52 -28.95 0.00
 3 15 52 -2.71 0.00
 5 15 52 -12.82 0.00
 7 15 52 2.94 0.00
 9 15 52 3.97 0.00
 0 16 52 8.17 0.00
 2 16 52 -2.56 0.00
 4 16 52 6.76 0.00
 6 16 52 -15.50 0.00
 8 16 52 -12.77 0.00
 10 16 52 13.59 0.00
 1 17 52 4.45 0.00
 3 17 52 -1.51 0.00
 5 17 52 3.17 0.00
 7 17 52 -0.40 0.00
 9 17 52 -3.24 0.00
 0 18 52 -0.45 0.00
 2 18 52 9.29 0.00
 4 18 52 0.92 0.00
 6 18 52 4.61 0.00
 8 18 52 -14.44 0.00
 1 19 52 -7.04 0.00
 3 19 52 -5.26 0.00
 5 19 52 -9.22 0.00
 7 19 52 -7.74 0.00
 0 20 52 -7.50 0.00
 2 20 52 -5.45 0.00
 4 20 52 14.46 0.00
 6 20 52 8.60 0.00
 1 21 52 3.37 0.00
 3 21 52 2.82 0.00
 5 21 52 -2.03 0.00
 7 21 52 0.39 0.00
 0 22 52 -11.59 0.00
 2 22 52 -26.35 0.00
 4 22 52 15.56 0.00
 6 22 52 -0.53 0.00
 1 23 52 -32.56 0.00
 3 23 52 -13.19 0.00
 5 23 52 18.24 0.00
 0 24 52 -11.48 0.00
 2 24 52 13.00 0.00
 1 25 52 -12.06 0.00
 2 1 53 -2.59 0.00
 4 1 53 -9.25 0.00
 6 1 53 -3.89 0.00
 8 1 53 8.88 0.00
 10 1 53 -2.08 0.00
 12 1 53 -3.92 0.00
 1 2 53 3.84 0.00
 3 2 53 3.61 0.00
 5 2 53 11.22 0.00
 7 2 53 14.77 0.00
 9 2 53 12.80 0.00
 11 2 53 -18.12 0.00
 2 3 53 -15.27 0.00
 4 3 53 8.23 0.00
 6 3 53 -0.68 0.00
 8 3 53 7.70 0.00
 10 3 53 -10.83 0.00
 12 3 53 2.24 0.00
 1 4 53 -9.04 0.00
 3 4 53 -1.01 0.00
 5 4 53 -5.63 0.00
 7 4 53 5.22 0.00
 9 4 53 7.56 0.00
 11 4 53 7.97 0.00
 2 5 53 -3.64 0.00
 4 5 53 -5.30 0.00
 6 5 53 -8.15 0.00
 8 5 53 2.30 0.00
 10 5 53 17.66 0.00
 12 5 53 1.92 0.00
 1 6 53 -14.32 0.00
 3 6 53 9.41 0.00
 5 6 53 5.99 0.00
 7 6 53 3.59 0.00
 9 6 53 -1.31 0.00
 11 6 53 -1.83 0.00
 2 7 53 -8.24 0.00
 4 7 53 8.28 0.00
 6 7 53 -0.26 0.00
 8 7 53 -1.00 0.00
 10 7 53 -1.96 0.00
 1 8 53 -6.42 0.00
 3 8 53 -0.41 0.00
 5 8 53 6.10 0.00
 7 8 53 0.81 0.00
 9 8 53 -2.88 0.00
 11 8 53 10.64 0.00
 2 9 53 -10.01 0.00
 4 9 53 -1.88 0.00
 6 9 53 7.82 0.00
 8 9 53 -5.70 0.00
 10 9 53 6.55 0.00
 1 10 53 20.10 0.00
 3 10 53 18.54 0.00
 5 10 53 8.39 0.00
 7 10 53 21.29 0.00
 9 10 53 -10.22 0.00
 11 10 53 5.53 0.00
 2 11 53 -7.54 0.00
 4 11 53 -7.45 0.00
 6 11 53 2.66 0.00
 8 11 53 -0.77 0.00
 10 11 53 6.57 0.00
 1 12 53 8.52 0.00
 3 12 53 -1.14 0.00
 5 12 53 1.39 0.00
 7 12 53 1.84 0.00
 9 12 53 -2.00 0.00
 2 13 53 8.46 0.00
 4 13 53 18.14 0.00
 6 13 53 -5.34 0.00
 8 13 53 -3.22 0.00
 10 13 53 9.95 0.00
 1 14 53 11.83 0.00
 3 14 53 1.24 0.00
 5 14 53 -8.96 0.00
 7 14 53 -1.86 0.00
 9 14 53 -8.37 0.00
 2 15 53 0.39 0.00
 4 15 53 -4.09 0.00
 6 15 53 -7.08 0.00
 8 15 53 7.60 0.00
 1 16 53 -2.38 0.00
 3 16 53 6.89 0.00
 5 16 53 3.92 0.00
 7 16 53 8.50 0.00
 9 16 53 -3.74 0.00
 2 17 53 -1.78 0.00
 4 17 53 6.52 0.00
 6 17 53 -4.48 0.00
 8 17 53 0.00 0.00
 1 18 53 -0.53 0.00
 3 18 53 1.84 0.00
 5 18 53 -1.74 0.00
 7 18 53 5.95 0.00
 2 19 53 -9.76 0.00
 4 19 53 -10.99 0.00
 6 19 53 -12.97 0.00
 1 20 53 6.43 0.00
 3 20 53 1.14 0.00
 5 20 53 12.96 0.00
 2 21 53 -1.10 0.00
 4 21 53 -11.21 0.00
 1 22 53 3.96 0.00
 3 22 53 13.29 0.00
 2 23 53 -21.82 0.00
 0 0 54 24.93 0.00
 2 0 54 3.14 0.00
 4 0 54 -2.73 0.00
 6 0 54 1.39 0.00
 8 0 54 21.71 0.00
 10 0 54 14.07 0.00
 1 1 54 3.85 0.00
 3 1 54 -2.44 0.00
 5 1 54 7.97 0.00
 7 1 54 -7.31 0.00
 9 1 54 6.70 0.00
 11 1 54 -3.79 0.00
 0 2 54 7.34 0.00
 2 2 54 4.40 0.00
 4 2 54 2.70 0.00
 6 2 54 0.39 0.00
 8 2 54 2.25 0.00
 10 2 54 -6.91 0.00
 1 3 54 15.66 0.00
 3 3 54 7.37 0.00
 5 3 54 4.34 0.00
 7 3 54 -8.99 0.00
 9 3 54 -4.60 0.00
 11 3 54 1.10 0.00
 0 4 54 -16.05 0.00
 2 4 54 -5.77 0.00
 4 4 54 15.60 0.00
 6 4 54 3.49 0.00
 8 4 54 -3.26 0.00
 10 4 54 -5.97 0.00
 1 5 54 -9.37 0.00
 3 5 54 2.80 0.00
 5 5 54 1.12 0.00
 7 5 54 -5.28 0.00
 9 5 54 1.11 0.00
 11 5 54 8.64 0.00
 0 6 54 3.30 0.00
 2 6 54 11.61 0.00
 4 6 54 -3.57 0.00
 6 6 54 -11.87 0.00
 8 6 54 -4.42 0.00
 10 6 54 -3.95 0.00
 1 7 54 -5.69 0.00
 3 7 54 -12.21 0.00
 5 7 54 -7.81 0.00
 7 7 54 9.03 0.00
 9 7 54 -15.88 0.00
 11 7 54 -11.22 0.00
 0 8 54 11.81 0.00
 2 8 54 8.59 0.00
 4 8 54 -4.81 0.00
 6 8 54 -6.66 0.00
 8 8 54 1.09 0.00
 10 8 54 -4.51 0.00
 1 9 54 -5.08 0.00
 3 9 54 -6.35 0.00
 5 9 54 -3.79 0.00
 7 9 54 -1.27 0.00
 9 9 54 15.45 0.00
 0 10 54 -14.04 0.00
 2 10 54 4.39 0.00
 4 10 54 -10.68 0.00
 6 10 54 -9.83 0.00
 8 10 54 8.52 0.00
 10 10 54 2.78 0.00
 1 11 54 -8.54 0.00
 3 11 54 -9.64 0.00
 5 11 54 -10.89 0.00
 7 11 54 -12.45 0.00
 9 11 54 -5.05 0.00
 0 12 54 6.09 0.00
 2 12 54 -6.72 0.00
 4 12 54 4.51 0.00
 6 12 54 -0.44 0.00
 8 12 54 -0.70 0.00
 10 12 54 8.46 0.00
 1 13 54 -7.05 0.00
 3 13 54 -7.46 0.00
 5 13 54 2.69 0.00
 7 13 54 1.68 0.00
 9 13 54 10.12 0.00
 0 14 54 3.29 0.00
 2 14 54 4.61 0.00
 4 14 54 -4.95 0.00
 6 14 54 -14.01 0.00
 8 14 54 2.97 0.00
 1 15 54 9.07 0.00
 3 15 54 3.84 0.00
 5 15 54 -12.24 0.00
 7 15 54 -20.03 0.00
 0 16 54 -7.79 0.00
 2 16 54 1.14 0.00
 4 16 54 -15.68 0.00
 6 16 54 -0.64 0.00
 8 16 54 7.79 0.00
 1 17 54 9.85 0.00
 3 17 54 12.36 0.00
 5 17 54 -3.32 0.00
 7 17 54 8.88 0.00
 0 18 54 -4.76 0.00
 2 18 54 9.06 0.00
 4 18 54 5.78 0.00
 6 18 54 0.90 0.00
 1 19 54 4.32 0.00
 3 19 54 -8.94 0.00
 5 19 54 -16.38 0.00
 0 20 54 11.86 0.00
 2 20 54 -6.30 0.00
 4 20 54 -15.22 0.00
 1 21 54 -32.70 0.00
 3 21 54 -26.55 0.00
 0 22 54 27.78 0.00
 2 22 54 6.55 0.00
 2 1 55 -6.95 0.00
 4 1 55 -7.07 0.00
 6 1 55 -12.08 0.00
 8 1 55 9.41 0.00
 10 1 55 12.96 0.00
 1 2 55 -15.78 0.00
 3 2 55 6.18 0.00
 5 2 55 -3.91 0.00
 7 2 55 2.13 0.00
 9 2 55 9.69 0.00
 11 2 55 7.89 0.00
 2 3 55 8.86 0.00
 4 3 55 4.99 0.00
 6 3 55 -21.08 0.00
 8 3 55 15.54 0.00
 10 3 55 13.08 0.00
 1 4 55 -2.26 0.00
 3 4 55 6.04 0.00
 5 4 55 -6.02 0.00
 7 4 55 -12.22 0.00
 9 4 55 -1.29 0.00
 2 5 55 -3.24 0.00
 4 5 55 4.78 0.00
 6 5 55 -14.58 0.00
 8 5 55 9.64 0.00
 10 5 55 -3.67 0.00
 1 6 55 -0.28 0.00
 3 6 55 -10.20 0.00
 5 6 55 -8.21 0.00
 7 6 55 -3.01 0.00
 9 6 55 18.21 0.00
 2 7 55 1.18 0.00
 4 7 55 3.82 0.00
 6 7 55 -4.38 0.00
 8 7 55 -9.71 0.00
 10 7 55 4.62 0.00
 1 8 55 -0.73 0.00
 3 8 55 -0.04 0.00
 5 8 55 -4.39 0.00
 7 8 55 5.58 0.00
 9 8 55 2.41 0.00
 2 9 55 0.26 0.00
 4 9 55 -3.44 0.00
 6 9 55 -1.90 0.00
 8 9 55 -14.81 0.00
 10 9 55 -2.89 0.00
 1 10 55 -5.49 0.00
 3 10 55 -1.88 0.00
 5 10 55 14.38 0.00
 7 10 55 5.35 0.00
 9 10 55 -1.10 0.00
 2 11 55 7.26 0.00
 4 11 55 2.80 0.00
 6 11 55 1.26 0.00
 8 11 55 7.78 0.00
 1 12 55 -2.03 0.00
 3 12 55 -5.97 0.00
 5 12 55 5.04 0.00
 7 12 55 -2.77 0.00
 9 12 55 8.10 0.00
 2 13 55 5.96 0.00
 4 13 55 13.33 0.00
 6 13 55 9.33 0.00
 8 13 55 0.68 0.00
 1 14 55 -8.72 0.00
 3 14 55 -0.49 0.00
 5 14 55 -6.61 0.00
 7 14 55 10.60 0.00
 2 15 55 -6.85 0.00
 4 15 55 23.18 0.00
 6 15 55 5.62 0.00
 1 16 55 -8.43 0.00
 3 16 55 0.73 0.00
 5 16 55 6.65 0.00
 7 16 55 1.80 0.00
 2 17 55 -8.02 0.00
 4 17 55 0.31 0.00
 6 17 55 4.93 0.00
 1 18 55 7.43 0.00
 3 18 55 17.33 0.00
 5 18 55 16.33 0.00
 2 19 55 -17.98 0.00
 4 19 55 -11.39 0.00
 1 20 55 6.12 0.00
 3 20 55 -10.95 0.00
 0 0 56 50.80 0.00
 2 0 56 7.30 0.00
 4 0 56 1.49 0.00
 6 0 56 -20.28 0.00
 8 0 56 2.07 0.00
 10 0 56 9.36 0.00
 1 1 56 0.67 0.00
 3 1 56 8.13 0.00
 5 1 56 2.92 0.00
 7 1 56 -8.48 0.00
 9 1 56 15.26 0.00
 0 2 56 -29.66 0.00
 2 2 56 3.05 0.00
 4 2 56 9.73 0.00
 6 2 56 -4.38 0.00
 8 2 56 -6.03 0.00
 10 2 56 -10.87 0.00
 1 3 56 6.94 0.00
 3 3 56 16.03 0.00
 5 3 56 10.49 0.00
 7 3 56 2.94 0.00
 9 3 56 12.20 0.00
 0 4 56 -26.11 0.00
 2 4 56 -5.35 0.00
 4 4 56 10.25 0.00
 6 4 56 2.64 0.00
 8 4 56 -9.71 0.00
 10 4 56 2.17 0.00
 1 5 56 1.86 0.00
 3 5 56 -6.16 0.00
 5 5 56 -7.35 0.00
 7 5 56 0.16 0.00
 9 5 56 -8.96 0.00
 0 6 56 -7.73 0.00
 2 6 56 1.04 0.00
 4 6 56 0.76 0.00
 6 6 56 -2.33 0.00
 8 6 56 -17.29 0.00
 1 7 56 5.70 0.00
 3 7 56 15.51 0.00
 5 7 56 19.48 0.00
 7 7 56 20.08 0.00
 9 7 56 -0.58 0.00
 0 8 56 5.36 0.00
 2 8 56 -14.39 0.00
 4 8 56 -6.82 0.00
 6 8 56 0.23 0.00
 8 8 56 3.53 0.00
 1 9 56 11.57 0.00
 3 9 56 -1.49 0.00
 5 9 56 -8.28 0.00
 7 9 56 4.84 0.00
 9 9 56 6.64 0.00
 0 10 56 2.69 0.00
 2 10 56 -7.99 0.00
 4 10 56 -11.85 0.00
 6 10 56 7.95 0.00
 8 10 56 -11.40 0.00
 1 11 56 8.19 0.00
 3 11 56 -7.96 0.00
 5 11 56 -2.88 0.00
 7 11 56 -5.72 0.00
 0 12 56 -2.42 0.00
 2 12 56 0.92 0.00
 4 12 56 -6.94 0.00
 6 12 56 -8.94 0.00
 8 12 56 15.58 0.00
 1 13 56 -3.51 0.00
 3 13 56 -8.50 0.00
 5 13 56 -0.89 0.00
 7 13 56 12.21 0.00
 0 14 56 1.93 0.00
 2 14 56 6.88 0.00
 4 14 56 1.95 0.00
 6 14 56 -12.82 0.00
 1 15 56 -12.66 0.00
 3 15 56 -2.76 0.00
 5 15 56 -23.61 0.00
 0 16 56 -13.18 0.00
 2 16 56 -7.20 0.00
 4 16 56 9.25 0.00
 6 16 56 -1.98 0.00
 1 17 56 12.44 0.00
 3 17 56 1.16 0.00
 5 17 56 -3.07 0.00
 0 18 56 9.11 0.00
 2 18 56 9.05 0.00
 4 18 56 -1.83 0.00
 1 19 56 4.41 0.00
 2 1 57 1.39 0.00
 4 1 57 -12.41 0.00
 6 1 57 -3.06 0.00
 8 1 57 10.48 0.00
 1 2 57 11.24 0.00
 3 2 57 -4.32 0.00
 5 2 57 -12.57 0.00
 7 2 57 8.92 0.00
 9 2 57 5.11 0.00
 2 3 57 -4.56 0.00
 4 3 57 -7.86 0.00
 6 3 57 -1.57 0.00
 8 3 57 17.25 0.00
 1 4 57 6.57 0.00
 3 4 57 -2.21 0.00
 5 4 57 -7.91 0.00
 7 4 57 8.11 0.00
 9 4 57 8.71 0.00
 2 5 57 4.62 0.00
 4 5 57 -4.38 0.00
 6 5 57 1.38 0.00
 8 5 57 4.85 0.00
 1 6 57 -12.96 0.00
 3 6 57 -9.79 0.00
 5 6 57 -1.21 0.00
 7 6 57 -4.81 0.00
 2 7 57 -19.82 0.00
 4 7 57 -5.56 0.00
 6 7 57 -5.86 0.00
 8 7 57 14.31 0.00
 1 8 57 3.07 0.00
 3 8 57 -2.39 0.00
 5 8 57 0.16 0.00
 7 8 57 5.20 0.00
 2 9 57 0.42 0.00
 4 9 57 -8.55 0.00
 6 9 57 7.59 0.00
 8 9 57 3.71 0.00
 1 10 57 18.62 0.00
 3 10 57 13.39 0.00
 5 10 57 -8.84 0.00
 7 10 57 -3.32 0.00
 2 11 57 3.24 0.00
 4 11 57 -12.89 0.00
 6 11 57 1.85 0.00
 1 12 57 1.81 0.00
 3 12 57 -8.20 0.00
 5 12 57 -8.83 0.00
 7 12 57 -12.62 0.00
 2 13 57 22.43 0.00
 4 13 57 4.25 0.00
 6 13 57 -8.81 0.00
 1 14 57 -2.19 0.00
 3 14 57 -15.92 0.00
 5 14 57 -9.18 0.00
 2 15 57 5.52 0.00
 4 15 57 -5.93 0.00
 1 16 57 7.07 0.00
 3 16 57 -0.55 0.00
 2 17 57 -16.33 0.00
 0 0 58 -12.85 0.00
 2 0 58 20.84 0.00
 4 0 58 15.76 0.00
 6 0 58 5.82 0.00
 8 0 58 10.10 0.00
 1 1 58 -13.65 0.00
 3 1 58 -7.83 0.00
 5 1 58 -7.69 0.00
 7 1 58 4.43 0.00
 0 2 58 -21.28 0.00
 2 2 58 -7.90 0.00
 4 2 58 -0.69 0.00
 6 2 58 7.81 0.00
 8 2 58 8.90 0.00
 1 3 58 -20.84 0.00
 3 3 58 0.15 0.00
 5 3 58 2.85 0.00
 7 3 58 6.06 0.00
 0 4 58 3.98 0.00
 2 4 58 -11.89 0.00
 4 4 58 8.63 0.00
 6 4 58 15.32 0.00
 8 4 58 -2.79 0.00
 1 5 58 -4.09 0.00
 3 5 58 -4.60 0.00
 5 5 58 11.87 0.00
 7 5 58 2.45 0.00
 0 6 58 -8.06 0.00
 2 6 58 -10.57 0.00
 4 6 58 2.32 0.00
 6 6 58 0.09 0.00
 1 7 58 2.47 0.00
 3 7 58 -5.08 0.00
 5 7 58 3.80 0.00
 7 7 58 6.52 0.00
 0 8 58 1.61 0.00
 2 8 58 0.25 0.00
 4 8 58 11.78 0.00
 6 8 58 4.91 0.00
 1 9 58 -11.85 0.00
 3 9 58 0.60 0.00
 5 9 58 11.34 0.00
 7 9 58 5.17 0.00
 0 10 58 -6.62 0.00
 2 10 58 -12.58 0.00
 4 10 58 -6.14 0.00
 6 10 58 11.32 0.00
 1 11 58 9.35 0.00
 3 11 58 13.31 0.00
 5 11 58 18.04 0.00
 0 12 58 10.58 0.00
 2 12 58 -17.87 0.00
 4 12 58 -1.01 0.00
 1 13 58 -1.06 0.00
 3 13 58 -4.81 0.00
 5 13 58 -3.17 0.00
 0 14 58 -9.14 0.00
 2 14 58 -3.51 0.00
 4 14 58 10.86 0.00
 1 15 58 20.90 0.00
 3 15 58 -2.37 0.00
 0 16 58 -11.68 0.00
 2 1 59 -14.61 0.00
 4 1 59 -8.13 0.00
 6 1 59 -7.50 0.00
 1 2 59 12.55 0.00
 3 2 59 12.52 0.00
 5 2 59 -4.18 0.00
 7 2 59 -9.92 0.00
 2 3 59 11.97 0.00
 4 3 59 10.47 0.00
 6 3 59 6.24 0.00
 1 4 59 0.81 0.00
 3 4 59 -1.84 0.00
 5 4 59 9.49 0.00
 7 4 59 -11.31 0.00
 2 5 59 10.57 0.00
 4 5 59 17.50 0.00
 6 5 59 2.38 0.00
 1 6 59 -10.93 0.00
 3 6 59 -4.91 0.00
 5 6 59 10.57 0.00
 2 7 59 -19.18 0.00
 4 7 59 11.65 0.00
 6 7 59 10.64 0.00
 1 8 59 2.83 0.00
 3 8 59 14.43 0.00
 5 8 59 -4.07 0.00
 2 9 59 -19.90 0.00
 4 9 59 -11.20 0.00
 1 10 59 -2.80 0.00
 3 10 59 12.06 0.00
 5 10 59 7.12 0.00
 2 11 59 0.39 0.00
 4 11 59 -0.77 0.00
 1 12 59 -10.22 0.00
 3 12 59 -7.79 0.00
 2 13 59 -8.07 0.00
 0 0 60 34.41 0.00
 2 0 60 7.99 0.00
 4 0 60 -4.16 0.00
 6 0 60 5.69 0.00
 1 1 60 -22.95 0.00
 3 1 60 -21.98 0.00
 5 1 60 -10.75 0.00
 0 2 60 -14.33 0.00
 2 2 60 -1.33 0.00
 4 2 60 -4.70 0.00
 1 3 60 -0.03 0.00
 3 3 60 -3.39 0.00
 5 3 60 5.24 0.00
 0 4 60 -1.41 0.00
 2 4 60 -18.72 0.00
 4 4 60 2.60 0.00
 1 5 60 -0.40 0.00
 3 5 60 -14.80 0.00
 5 5 60 -0.37 0.00
 0 6 60 -12.22 0.00
 2 6 60 -2.75 0.00
 4 6 60 18.29 0.00
 1 7 60 18.18 0.00
 3 7 60 15.94 0.00
 0 8 60 13.82 0.00
 2 8 60 -7.44 0.00
 4 8 60 3.20 0.00
 1 9 60 -1.78 0.00
 3 9 60 11.92 0.00
 0 10 60 15.44 0.00
 2 10 60 11.44 0.00
 1 11 60 4.86 0.00
 2 1 61 3.87 0.00
 4 1 61 -11.58 0.00
 1 2 61 16.48 0.00
 3 2 61 1.54 0.00
 2 3 61 -3.49 0.00
 1 4 61 -9.49 0.00
 3 4 61 -5.02 0.00
 2 5 61 -6.59 0.00
 1 6 61 -21.59 0.00
 2 7 61 -0.31 0.00
 2 0 0 921.17 0.00
 4 0 0 -365.92 0.00
 1 1 0 139.95 0.00
 0 2 0 843.89 0.00
 1 3 0 201.38 0.00
 0 4 0 512.86 0.00
 4 4 0 451.98 0.00
 2 6 0 97.70 0.00
 24 6 0 2.31 0.00
 23 15 0 7.16 0.00
 21 23 0 -30.26 0.00
 20 26 0 -4.31 0.00
 19 29 0 27.24 0.00
 17 33 0 -6.45 0.00
 14 38 0 9.85 0.00
 13 39 0 -17.03 0.00
 9 43 0 -2.84 0.00
 8 44 0 -2.20 0.00
 2 46 0 -25.34 0.00
 4 46 0 -22.32 0.00
 2 1 1 -37.16 0.00
 1 2 1 -860.28 0.00
 2 3 1 242.60 0.00
 1 4 1 -268.19 0.00
 24 5 1 9.41 0.00
 3 6 1 -315.93 0.00
 24 7 1 7.21 0.00
 23 14 1 0.26 0.00
 22 19 1 -2.71 0.00
 18 31 1 4.21 0.00
 16 35 1 8.44 0.00
 6 45 1 7.85 0.00
 3 46 1 3.24 0.00
 0 0 2 585.48 0.00
 1 1 2 160.62 0.00
 0 2 2 233.70 0.00
 2 2 2 -33.17 0.00
 1 3 2 42.57 0.00
 0 4 2 -335.37 0.00
 24 4 2 -5.40 0.00
 24 6 2 3.61 0.00
 21 23 2 -10.71 0.00
 20 26 2 12.10 0.00
 19 29 2 21.37 0.00
 17 33 2 -12.20 0.00
 14 38 2 -5.11 0.00
 13 39 2 2.09 0.00
 9 43 2 9.16 0.00
 8 44 2 4.86 0.00
 2 46 2 -24.16 0.00
 4 46 2 -3.33 0.00
 2 1 3 -112.90 0.00
 1 2 3 226.27 0.00
 1 4 3 243.28 0.00
 24 5 3 -8.08 0.00
 23 14 3 -0.53 0.00
 22 19 3 -2.79 0.00
 18 31 3 -5.87 0.00
 16 35 3 8.26 0.00
 6 45 3 -17.94 0.00
 1 46 3 4.33 0.00
 3 46 3 -1.70 0.00
 0 0 4 156.73 0.00
 4 0 4 142.24 0.00
 1 1 4 77.65 0.00
 0 2 4 -1049.36 0.00
 2 2 4 -129.05 0.00
 1 3 4 -38.38 0.00
 24 4 4 -3.84 0.00
 0 6 4 -237.89 0.00
 2 6 4 -157.92 0.00
 24 6 4 -11.20 0.00
 21 23 4 18.67 0.00
 20 26 4 3.64 0.00
 17 33 4 5.61 0.00
 14 38 4 -5.94 0.00
 13 39 4 -4.78 0.00
 12 40 4 -5.51 0.00
 10 42 4 6.81 0.00
 9 43 4 3.04 0.00
 5 45 4 18.99 0.00
 0 46 4 -4.98 0.00
 2 46 4 -5.26 0.00
 2 1 5 19.46 0.00
 3 2 5 431.41 0.00
 24 3 5 -2.99 0.00
 24 5 5 9.54 0.00
 23 14 5 -10.25 0.00
 22 19 5 -9.01 0.00
 18 31 5 -5.11 0.00
 15 36 5 -10.44 0.00
 6 45 5 0.77 0.00
 1 46 5 2.03 0.00
 3 46 5 -6.48 0.00
 0 0 6 -619.03 0.00
 24 0 6 -29.37 0.00
 1 1 6 -207.40 0.00
 0 2 6 72.43 0.00
 24 2 6 3.36 0.00
 1 3 6 -0.96 0.00
 24 4 6 9.03 0.00
 21 23 6 21.63 0.00
 20 26 6 -7.60 0.00
 17 33 6 -7.30 0.00
 13 39 6 6.08 0.00
 12 40 6 1.21 0.00
 11 41 6 1.75 0.00
 10 42 6 7.59 0.00
 9 43 6 -6.43 0.00
 5 45 6 -3.30 0.00
 0 46 6 5.57 0.00
 2 46 6 -1.61 0.00
 24 1 7 -8.68 0.00
 24 3 7 -14.18 0.00
 24 5 7 6.14 0.00
 23 14 7 -15.66 0.00
 22 19 7 -4.15 0.00
 19 28 7 4.83 0.00
 15 36 7 -1.91 0.00
 7 44 7 5.48 0.00
 1 46 7 1.03 0.00
 3 46 7 8.74 0.00
 0 0 8 -65.63 0.00
 2 0 8 -325.74 0.00
 6 0 8 -12.63 0.00
 24 0 8 -7.49 0.00
 24 2 8 -13.35 0.00
 0 4 8 -339.95 0.00
 24 4 8 -0.92 0.00
 0 6 8 -20.25 0.00
 4 6 8 115.06 0.00
 23 13 8 2.79 0.00
 22 18 8 9.01 0.00
 12 40 8 -2.45 0.00
 11 41 8 14.67 0.00
 10 42 8 2.18 0.00
 5 45 8 0.24 0.00
 0 46 8 -14.43 0.00
 2 46 8 6.36 0.00
 24 1 9 -4.01 0.00
 1 2 9 154.40 0.00
 1 4 9 63.98 0.00
 21 22 9 -1.47 0.00
 20 25 9 -12.51 0.00
 19 28 9 -8.62 0.00
 15 36 9 -0.39 0.00
 7 44 9 -6.54 0.00
 4 45 9 11.35 0.00
 1 46 9 4.08 0.00
 0 10 10 -103.55 0.00
 23 13 10 -6.38 0.00
 22 18 10 -11.77 0.00
 18 30 10 13.77 0.00
 16 34 10 3.54 0.00
 5 45 10 0.66 0.00
 0 46 10 -14.51 0.00
 23 12 11 2.77 0.00
 22 17 11 -5.84 0.00
 21 22 11 -19.38 0.00
 20 25 11 -2.21 0.00
 17 32 11 -19.86 0.00
 14 37 11 14.61 0.00
 13 38 11 -1.59 0.00
 8 43 11 5.11 0.00
 4 45 11 14.44 0.00
 0 0 12 582.82 0.00
 23 11 12 -5.75 0.00
 21 21 12 30.36 0.00
 19 27 12 -17.80 0.00
 18 30 12 -4.03 0.00
 6 44 12 2.85 0.00
 3 45 12 -16.88 0.00
 1 4 13 -21.93 0.00
 23 10 13 15.17 0.00
 22 17 13 4.32 0.00
 13 38 13 21.00 0.00
 12 39 13 3.01 0.00
 11 40 13 0.94 0.00
 10 41 13 3.09 0.00
 9 42 13 8.78 0.00
 2 45 13 7.71 0.00
 2 0 14 246.62 0.00
 22 16 14 13.07 0.00
 21 21 14 30.87 0.00
 20 24 14 -0.30 0.00
 19 27 14 -4.35 0.00
 15 35 14 -11.18 0.00
 7 43 14 24.55 0.00
 1 45 14 8.38 0.00
 3 45 14 2.20 0.00
 23 10 15 -4.20 0.00
 21 20 15 9.94 0.00
 18 29 15 -15.46 0.00
 16 33 15 -6.97 0.00
 12 39 15 8.41 0.00
 11 40 15 -3.36 0.00
 10 41 15 20.53 0.00
 5 44 15 -0.44 0.00
 2 45 15 -16.27 0.00
 0 6 16 14.26 0.00
 23 9 16 11.99 0.00
 17 31 16 4.93 0.00
 14 36 16 -6.85 0.00
 13 37 16 -5.97 0.00
 8 42 16 11.73 0.00
 7 43 16 4.02 0.00
 4 44 16 4.05 0.00
 1 45 16 3.54 0.00
 23 6 17 8.64 0.00
 23 8 17 -6.42 0.00
 22 15 17 2.80 0.00
 20 23 17 -1.22 0.00
 19 26 17 -4.68 0.00
 15 34 17 5.94 0.00
 6 43 17 1.65 0.00
 23 5 18 -3.85 0.00
 22 14 18 -12.63 0.00
 21 19 18 3.94 0.00
 20 22 18 -4.04 0.00
 18 28 18 11.50 0.00
 16 32 18 15.10 0.00
 13 37 18 -21.05 0.00
 12 38 18 -9.04 0.00
 11 39 18 12.43 0.00
 10 40 18 -19.93 0.00
 9 41 18 1.24 0.00
 2 44 18 -8.38 0.00
 4 44 18 -1.24 0.00
 23 2 19 -7.13 0.00
 23 4 19 7.18 0.00
 22 13 19 9.26 0.00
 21 18 19 -2.21 0.00
 17 30 19 11.01 0.00
 14 35 19 -0.63 0.00
 7 42 19 -4.58 0.00
 1 44 19 6.70 0.00
 3 44 19 -3.27 0.00
 23 1 20 6.25 0.00
 22 12 20 1.12 0.00
 15 33 20 -6.34 0.00
 5 43 20 -0.44 0.00
 0 44 20 -7.47 0.00
 2 44 20 0.98 0.00
 22 11 21 17.79 0.00
 20 21 21 4.73 0.00
 19 24 21 -0.60 0.00
 18 27 21 -2.09 0.00
 16 31 21 5.49 0.00
 13 36 21 12.71 0.00
 12 37 21 6.00 0.00
 11 38 21 -4.47 0.00
 10 39 21 4.42 0.00
 9 40 21 -12.27 0.00
 8 41 21 6.78 0.00
 4 43 21 -6.97 0.00
 22 10 22 -16.21 0.00
 20 20 22 -1.46 0.00
 18 26 22 -10.02 0.00
 17 29 22 -10.01 0.00
 14 34 22 -6.65 0.00
 6 42 22 -1.00 0.00
 3 43 22 -1.03 0.00
 22 9 23 -13.17 0.00
 21 16 23 -11.08 0.00
 17 28 23 -5.77 0.00
 15 32 23 -1.81 0.00
 5 42 23 -6.39 0.00
 2 43 23 10.72 0.00
 22 8 24 -26.73 0.00
 21 15 24 -5.90 0.00
 16 30 24 5.55 0.00
 13 35 24 1.29 0.00
 12 36 24 12.11 0.00
 11 37 24 -9.17 0.00
 10 38 24 -3.78 0.00
 9 39 24 -1.60 0.00
 8 40 24 -9.13 0.00
 4 42 24 1.69 0.00
 1 43 24 11.15 0.00
 22 5 25 -7.22 0.00
 21 14 25 -25.36 0.00
 19 22 25 -10.71 0.00
 18 25 25 12.21 0.00
 14 33 25 -6.59 0.00
 6 41 25 -8.77 0.00
 3 42 25 1.81 0.00
 22 0 26 -9.80 0.00
 22 2 26 7.53 0.00
 22 4 26 -3.27 0.00
 21 13 26 -5.39 0.00
 20 18 26 1.67 0.00
 19 21 26 4.85 0.00
 18 24 26 1.20 0.00
 17 27 26 16.31 0.00
 15 31 26 -6.02 0.00
 5 41 26 11.29 0.00
 0 42 26 -2.94 0.00
 2 42 26 5.21 0.00
 21 12 27 0.59 0.00
 20 17 27 -18.63 0.00
 17 26 27 -2.25 0.00
 12 35 27 -1.72 0.00
 11 36 27 25.70 0.00
 10 37 27 -4.72 0.00
 9 38 27 -5.80 0.00
 8 39 27 -3.86 0.00
 4 41 27 -12.86 0.00
 1 42 27 1.15 0.00
 21 9 28 -6.57 0.00
 20 16 28 -8.28 0.00
 16 28 28 8.91 0.00
 13 33 28 -11.57 0.00
 7 39 28 -26.60 0.00
 6 40 28 -3.40 0.00
 3 41 28 10.23 0.00
 21 8 29 3.08 0.00
 20 15 29 3.17 0.00
 16 27 29 -0.02 0.00
 14 31 29 4.72 0.00
 5 40 29 -3.05 0.00
 2 41 29 -15.95 0.00
 21 5 30 7.04 0.00
 21 7 30 -11.20 0.00
 20 14 30 -2.16 0.00
 15 29 30 -2.94 0.00
 11 35 30 -8.95 0.00
 10 36 30 -1.17 0.00
 9 37 30 -7.45 0.00
 4 40 30 -15.49 0.00
 21 2 31 8.11 0.00
 21 4 31 -1.28 0.00
 20 13 31 8.11 0.00
 18 21 31 17.44 0.00
 17 24 31 15.87 0.00
 15 28 31 5.62 0.00
 12 33 31 -3.58 0.00
 11 34 31 -11.83 0.00
 8 37 31 3.52 0.00
 7 38 31 2.32 0.00
 1 40 31 -1.58 0.00
 3 40 31 2.04 0.00
 20 10 32 3.66 0.00
 18 20 32 11.05 0.00
 17 23 32 18.11 0.00
 13 31 32 -0.72 0.00
 6 38 32 -18.68 0.00
 0 40 32 2.66 0.00
 20 9 33 1.65 0.00
 18 19 33 -4.94 0.00
 17 22 33 20.03 0.00
 16 25 33 -6.15 0.00
 14 29 33 -16.42 0.00
 5 38 33 -7.26 0.00
 2 39 33 -7.97 0.00
 20 6 34 -8.52 0.00
 19 13 34 -2.37 0.00
 18 18 34 -0.70 0.00
 17 21 34 -2.87 0.00
 16 24 34 10.91 0.00
 14 28 34 -5.49 0.00
 11 33 34 2.77 0.00
 10 34 34 -6.79 0.00
 9 35 34 -4.21 0.00
 8 36 34 3.26 0.00
 4 38 34 5.71 0.00
 1 39 34 3.64 0.00
 20 1 35 4.75 0.00
 20 3 35 -11.74 0.00
 19 12 35 4.72 0.00
 18 17 35 -6.36 0.00
 17 20 35 -6.13 0.00
 16 23 35 -1.94 0.00
 12 31 35 7.47 0.00
 11 32 35 6.02 0.00
 10 33 35 3.94 0.00
 9 34 35 -4.39 0.00
 8 35 35 -6.48 0.00
 7 36 35 -3.95 0.00
 3 38 35 3.40 0.00
 19 11 36 7.55 0.00
 18 16 36 0.10 0.00
 17 19 36 -4.62 0.00
 16 22 36 9.23 0.00
 15 25 36 0.02 0.00
 12 30 36 1.29 0.00
 6 36 36 -3.44 0.00
 0 38 36 -0.51 0.00
 19 8 37 1.76 0.00
 17 18 37 -4.51 0.00
 16 21 37 -7.31 0.00
 15 24 37 3.64 0.00
 13 28 37 -1.62 0.00
 5 36 37 -6.26 0.00
 2 37 37 4.38 0.00
 19 1 38 -1.99 0.00
 19 3 38 -3.62 0.00
 19 5 38 -0.86 0.00
 18 12 38 -7.04 0.00
 17 17 38 -5.56 0.00
 16 20 38 3.55 0.00
 15 23 38 -11.10 0.00
 13 27 38 -1.93 0.00
 4 36 38 12.76 0.00
 1 37 38 -11.40 0.00
 18 11 39 8.54 0.00
 17 16 39 -6.28 0.00
 16 19 39 -20.09 0.00
 15 22 39 -3.50 0.00
 13 26 39 -1.88 0.00
 10 31 39 -0.73 0.00
 9 32 39 -2.31 0.00
 8 33 39 -3.27 0.00
 1 36 39 -16.36 0.00
 3 36 39 -7.98 0.00
 18 8 40 -2.48 0.00
 16 18 40 5.80 0.00
 15 21 40 0.32 0.00
 13 25 40 0.15 0.00
 11 29 40 7.71 0.00
 10 30 40 7.18 0.00
 9 31 40 -3.45 0.00
 8 32 40 -1.51 0.00
 7 33 40 -4.19 0.00
 6 34 40 -13.41 0.00
 3 35 40 2.61 0.00
 18 3 41 5.12 0.00
 18 5 41 9.06 0.00
 18 7 41 8.14 0.00
 17 12 41 4.97 0.00
 16 17 41 8.88 0.00
 15 20 41 1.85 0.00
 11 28 41 -18.14 0.00
 10 29 41 9.22 0.00
 9 30 41 -13.68 0.00
 7 32 41 -19.18 0.00
 6 33 41 -1.50 0.00
 2 35 41 8.74 0.00
 18 0 42 14.13 0.00
 18 2 42 14.00 0.00
 17 11 42 -7.09 0.00
 15 19 42 5.87 0.00
 11 27 42 -5.59 0.00
 10 28 42 16.16 0.00
 6 32 42 14.03 0.00
 5 33 42 -5.37 0.00
 0 34 42 -13.07 0.00
 2 34 42 -0.09 0.00
 17 8 43 -11.04 0.00
 16 13 43 -13.22 0.00
 11 26 43 4.19 0.00
 5 32 43 -14.92 0.00
 4 33 43 8.23 0.00
 17 1 44 -3.95 0.00
 17 3 44 9.76 0.00
 17 5 44 15.82 0.00
 16 12 44 4.40 0.00
 13 21 44 5.04 0.00
 11 25 44 0.02 0.00
 4 32 44 17.57 0.00
 1 33 44 -3.64 0.00
 16 9 45 6.72 0.00
 15 14 45 10.88 0.00
 14 17 45 3.92 0.00
 13 20 45 -4.39 0.00
 11 24 45 -1.41 0.00
 4 31 45 -4.70 0.00
 1 32 45 4.67 0.00
 0 0 46 26.47 0.00
 16 4 46 19.42 0.00
 16 6 46 -9.05 0.00
 15 13 46 -2.35 0.00
 14 16 46 -2.91 0.00
 13 19 46 -8.31 0.00
 11 23 46 8.67 0.00
 4 30 46 9.27 0.00
 1 31 46 -0.28 0.00
 3 31 46 -6.36 0.00
 16 1 47 -10.35 0.00
 15 10 47 -10.62 0.00
 14 15 47 -4.98 0.00
 13 18 47 7.79 0.00
 11 22 47 -14.02 0.00
 3 30 47 15.49 0.00
 15 5 48 5.94 0.00
 15 7 48 -11.18 0.00
 14 12 48 4.54 0.00
 12 18 48 -2.74 0.00
 11 21 48 -11.43 0.00
 3 29 48 -0.17 0.00
 15 2 49 -9.66 0.00
 14 9 49 12.81 0.00
 14 11 49 0.82 0.00
 13 14 49 -8.05 0.00
 12 17 49 8.10 0.00
 10 21 49 12.01 0.00
 3 28 49 3.31 0.00
 14 6 50 -0.13 0.00
 14 8 50 -0.81 0.00
 13 11 50 -2.29 0.00
 12 16 50 -7.15 0.00
 10 20 50 2.02 0.00
 3 27 50 9.01 0.00
 0 28 50 22.96 0.00
 14 1 51 -5.92 0.00
 14 3 51 3.71 0.00
 13 10 51 10.43 0.00
 12 13 51 -9.75 0.00
 11 16 51 -12.69 0.00
 10 19 51 -13.25 0.00
 9 20 51 6.62 0.00
 3 26 51 0.28 0.00
 13 3 52 12.34 0.00
 13 5 52 6.76 0.00
 13 7 52 -13.35 0.00
 12 10 52 -24.10 0.00
 12 12 52 -2.48 0.00
 11 15 52 0.42 0.00
 9 19 52 8.30 0.00
 8 20 52 -2.24 0.00
 4 24 52 12.99 0.00
 3 25 52 5.96 0.00
 0 26 52 -13.36 0.00
 12 7 53 -13.17 0.00
 12 9 53 14.31 0.00
 11 12 53 -3.90 0.00
 10 15 53 5.99 0.00
 8 19 53 -15.99 0.00
 7 20 53 2.34 0.00
 6 21 53 0.18 0.00
 5 22 53 5.65 0.00
 4 23 53 -7.30 0.00
 1 24 53 -7.76 0.00
 3 24 53 12.46 0.00
 12 0 54 -16.34 0.00
 12 2 54 -0.71 0.00
 12 4 54 0.25 0.00
 11 9 54 12.20 0.00
 9 15 54 8.00 0.00
 7 19 54 8.27 0.00
 6 20 54 6.81 0.00
 5 21 54 1.03 0.00
 4 22 54 3.15 0.00
 1 23 54 -5.18 0.00
 11 4 55 -1.35 0.00
 11 6 55 -4.51 0.00
 10 11 55 2.14 0.00
 9 14 55 6.47 0.00
 8 15 55 -4.96 0.00
 6 19 55 -2.83 0.00
 5 20 55 5.89 0.00
 2 21 55 0.79 0.00
 1 22 55 -8.52 0.00
 10 6 56 0.67 0.00
 10 8 56 -12.72 0.00
 9 11 56 2.35 0.00
 8 14 56 3.82 0.00
 7 15 56 -7.29 0.00
 3 19 56 8.22 0.00
 0 20 56 11.17 0.00
 2 20 56 3.36 0.00
 10 1 57 1.17 0.00
 9 6 57 6.24 0.00
 9 8 57 7.61 0.00
 8 11 57 11.37 0.00
 6 15 57 5.32 0.00
 5 16 57 -3.30 0.00
 4 17 57 -3.06 0.00
 1 18 57 7.50 0.00
 3 18 57 15.12 0.00
 9 1 58 6.81 0.00
 9 3 58 -1.62 0.00
 8 6 58 -1.73 0.00
 8 8 58 -8.00 0.00
 7 11 58 4.15 0.00
 6 12 58 10.37 0.00
 2 16 58 0.71 0.00
 1 17 58 -3.04 0.00
 8 1 59 -1.25 0.00
 8 3 59 10.31 0.00
 7 6 59 -0.19 0.00
 7 8 59 4.62 0.00
 6 9 59 6.94 0.00
 5 12 59 6.76 0.00
 4 13 59 -6.47 0.00
 1 14 59 -13.28 0.00
 3 14 59 4.65 0.00
 2 15 59 -14.81 0.00
 6 2 60 15.01 0.00
 6 4 60 7.72 0.00
 6 6 60 2.26 0.00
 5 7 60 7.15 0.00
 5 9 60 -0.58 0.00
 4 10 60 -7.63 0.00
 3 11 60 1.26 0.00
 0 12 60 -10.88 0.00
 2 12 60 8.65 0.00
 1 13 60 3.08 0.00
 5 2 61 6.38 0.00
 4 3 61 3.16 0.00
 5 4 61 5.31 0.00
 4 5 61 5.87 0.00
 3 6 61 -6.12 0.00
 4 7 61 20.22 0.00
 1 8 61 -3.93 0.00
 3 8 61 5.04 0.00
 2 9 61 -2.25 0.00
 1 10 61 -6.72 0.00
 0 0 0 0.00 0.00
# SQUEEZE RESULTS (Version = 160117)
# Note: Data are Listed for all Voids in the P1 Unit Cell
# i.e. Centre of Gravity, Solvent Accessible Volume,
# Recovered number of Electrons in the Void and
# Details about the Squeezed Material
;
_platon_squeeze_void_probe_radius 1.20
_olex2_submission_special_instructions 'No special instructions were received'
loop_
_space_group_symop_operation_xyz
'x, y, z'
'-x, -y, z'
'-x+1/2, y+1/2, -z'
'x+1/2, -y+1/2, -z'
'x+1/2, y+1/2, z+1/2'
'-x+1/2, -y+1/2, z+1/2'
'-x+1, y+1, -z+1/2'
'x+1, -y+1, -z+1/2'
'-x, -y, -z'
'x, y, -z'
'x-1/2, -y-1/2, z'
'-x-1/2, y-1/2, z'
'-x+1/2, -y+1/2, -z+1/2'
'x+1/2, y+1/2, -z+1/2'
'x, -y, z+1/2'
'-x, y, z+1/2'
loop_
_atom_site_label
_atom_site_type_symbol
_atom_site_fract_x
_atom_site_fract_y
_atom_site_fract_z
_atom_site_U_iso_or_equiv
_atom_site_adp_type
_atom_site_occupancy
_atom_site_site_symmetry_order
_atom_site_calc_flag
_atom_site_refinement_flags_posn
_atom_site_refinement_flags_adp
_atom_site_refinement_flags_occupancy
_atom_site_disorder_assembly
_atom_site_disorder_group
Mo2 Mo 0.90644(4) 0.34198(2) 0.58168(2) 0.0674(2) Uani 1 1 d . . . . .
Mo12 Mo 0.81505(4) 0.29913(2) 0.56556(2) 0.0681(2) Uani 1 1 d . . . . .
Mo11 Mo 0.70263(4) 0.25930(2) 0.60473(2) 0.0692(2) Uani 1 1 d D . . . .
Mo1 Mo 0.87534(4) 0.42359(2) 0.60369(2) 0.0716(2) Uani 1 1 d . . . . .
Mo8 Mo 0.72313(4) 0.44567(2) 0.60381(2) 0.0758(2) Uani 1 1 d . . . . .
Mo3 Mo 0.91833(4) 0.36219(2) 0.64818(2) 0.0765(2) Uani 1 1 d . . . . .
Mo5 Mo 0.71217(4) 0.27772(2) 0.66436(2) 0.0756(2) Uani 1 1 d D . . . .
Mo10 Mo 0.64664(4) 0.32391(2) 0.56518(2) 0.0742(2) Uani 1 1 d D . . . .
Mo9 Mo 0.61144(4) 0.38529(2) 0.58221(2) 0.0773(2) Uani 1 1 d . . . . .
Mo7 Mo 0.62081(4) 0.40538(2) 0.64728(2) 0.0831(3) Uani 1 1 d . . . . .
Mo4 Mo 0.83553(5) 0.33424(2) 0.68064(2) 0.0823(3) Uani 1 1 d . . . . .
Mo6 Mo 0.66351(5) 0.35968(2) 0.68084(2) 0.0854(3) Uani 1 1 d D . . . .
Zn4 Zn 0.86000(5) 0.27617(3) 0.62908(2) 0.0699(3) Uani 1 1 d . . . . .
Zn2 Zn 0.77304(5) 0.38990(3) 0.55534(2) 0.0719(3) Uani 1 1 d . . . . .
Zn3 Zn 0.58580(5) 0.31649(3) 0.62880(2) 0.0763(3) Uani 1 1 d . . . . .
Zn1 Zn 0.78973(6) 0.42231(3) 0.66245(2) 0.0813(3) Uani 1 1 d . . . . .
P1 P 0.75518(10) 0.35113(5) 0.61925(4) 0.0564(5) Uani 1 1 d . . . . .
O40 O 0.7470(2) 0.33692(14) 0.64710(9) 0.0606(13) Uani 1 1 d . . . . .
O39 O 0.7388(2) 0.32251(13) 0.59944(10) 0.0590(13) Uani 1 1 d . . . . .
O37 O 0.8279(2) 0.36230(13) 0.61536(9) 0.0590(13) Uani 1 1 d . . . . .
O32 O 0.8752(2) 0.29787(14) 0.59543(11) 0.0671(14) Uani 1 1 d . . . . .
O22 O 0.7933(3) 0.42357(14) 0.58179(10) 0.0665(14) Uani 1 1 d . . . . .
O29 O 0.6524(3) 0.28084(15) 0.63395(12) 0.0727(15) Uani 1 1 d . . . . .
O38 O 0.7073(3) 0.38136(14) 0.61516(10) 0.0632(13) Uani 1 1 d . . . . .
O25 O 0.8280(3) 0.34879(15) 0.55976(10) 0.0692(14) Uani 1 1 d . . . . .
O31 O 0.7669(3) 0.26451(15) 0.63403(11) 0.0717(15) Uani 1 1 d . . . . .
O33 O 0.7727(3) 0.25790(14) 0.58324(11) 0.0707(15) Uani 1 1 d . . . . .
O26 O 0.6858(3) 0.36973(16) 0.55969(10) 0.0734(16) Uani 1 1 d . . . . .
O28 O 0.5950(2) 0.33847(15) 0.59556(12) 0.0755(17) Uani 1 1 d . . . . .
O19 O 0.8855(3) 0.31481(16) 0.65185(11) 0.0740(16) Uani 1 1 d . . . . .
O7 O 0.8480(3) 0.38155(16) 0.66865(10) 0.0794(17) Uani 1 1 d . . . . .
O36 O 0.6430(3) 0.27753(16) 0.58315(12) 0.0770(17) Uani 1 1 d D . . . .
H36 H 0.6058(11) 0.2674(13) 0.5859(13) 0.115 Uiso 1 1 d DR . . . .
O5 O 0.7545(4) 0.35447(18) 0.69960(11) 0.091(2) Uani 1 1 d . . . . .
O20 O 0.9621(3) 0.34522(16) 0.61468(12) 0.0763(16) Uani 1 1 d . . . . .
O3 O 0.7012(3) 0.40313(16) 0.66871(11) 0.0824(18) Uani 1 1 d . . . . .
O11 O 0.8015(3) 0.43715(15) 0.62713(11) 0.0738(16) Uani 1 1 d . . . . .
O35 O 0.7279(3) 0.30500(16) 0.54807(11) 0.0768(16) Uani 1 1 d D . . . .
O9 O 0.9209(3) 0.40953(16) 0.63181(12) 0.0800(17) Uani 1 1 d . . . . .
O17 O 0.6599(3) 0.30791(17) 0.68097(12) 0.0853(19) Uani 1 1 d D . . . .
H17 H 0.6229(15) 0.2977(6) 0.6837(15) 0.128 Uiso 1 1 d DR . . . .
N4 N 0.7823(4) 0.4120(2) 0.52060(14) 0.0741(19) Uani 1 1 d . . . . .
O21 O 0.9126(3) 0.39385(16) 0.58095(11) 0.0730(15) Uani 1 1 d . . . . .
O24 O 0.9688(3) 0.33215(18) 0.56226(13) 0.0896(19) Uani 1 1 d . . . . .
O1 O 0.8053(4) 0.45720(19) 0.68802(14) 0.105(2) Uani 1 1 d . . . . .
N5 N 0.7787(6) 0.3926(3) 0.5000 0.080(3) Uani 1 2 d S T P . .
O41 O 0.6781(3) 0.21792(15) 0.60777(14) 0.0866(19) Uani 1 1 d . . . . .
N3 N 0.4731(3) 0.26937(19) 0.63157(10) 0.075(2) Uani 1 1 d D . . . .
O16 O 0.6034(3) 0.35602(15) 0.65141(12) 0.0784(17) Uani 1 1 d . . . . .
O13 O 0.6695(3) 0.44644(15) 0.63190(13) 0.0846(18) Uani 1 1 d . . . . .
O18 O 0.7890(3) 0.28852(17) 0.68109(12) 0.0854(18) Uani 1 1 d . . . . .
O34 O 0.8562(3) 0.28003(18) 0.54175(12) 0.0894(19) Uani 1 1 d . . . . .
O23 O 0.6633(3) 0.43093(16) 0.58063(12) 0.0824(17) Uani 1 1 d . . . . .
O10 O 0.9106(4) 0.46227(18) 0.59645(14) 0.099(2) Uani 1 1 d . . . . .
O15 O 0.5771(3) 0.40248(16) 0.61463(14) 0.0881(19) Uani 1 1 d . . . . .
O2 O 0.7880(5) 0.4161(3) 0.71852(15) 0.129(3) Uani 1 1 d . . . . .
O8 O 0.9860(3) 0.3641(2) 0.66644(14) 0.108(2) Uani 1 1 d . . . . .
O30 O 0.6918(4) 0.23906(18) 0.67608(15) 0.103(2) Uani 1 1 d . . . . .
O4 O 0.6171(4) 0.3689(2) 0.70627(14) 0.116(3) Uani 1 1 d . . . . .
O42 O 0.5922(3) 0.3193(2) 0.54150(14) 0.101(2) Uani 1 1 d . . . . .
N1 N 0.4933(4) 0.30177(19) 0.63407(16) 0.085(2) Uani 1 1 d . . . . .
O12 O 0.7330(4) 0.48773(17) 0.59589(14) 0.101(2) Uani 1 1 d . . . . .
N2 N 0.4083(3) 0.2674(2) 0.63451(16) 0.082(2) Uani 1 1 d . . . . .
O27 O 0.5493(4) 0.39399(19) 0.56226(15) 0.104(2) Uani 1 1 d . . . . .
O14 O 0.5642(4) 0.4253(2) 0.66547(16) 0.114(3) Uani 1 1 d . . . . .
O6 O 0.8845(4) 0.3299(2) 0.70614(13) 0.116(3) Uani 1 1 d . . . . .
O2W O 0.7466(11) 0.3241(4) 0.5000 0.174(7) Uani 1 2 d DS T P . .
O1W O 0.5401(4) 0.2058(3) 0.6218(2) 0.158(4) Uani 1 1 d D . . . .
C7 C 0.7873(5) 0.4447(3) 0.51364(18) 0.085(3) Uani 1 1 d . . . . .
C10 C 0.7981(6) 0.4468(4) 0.7110(2) 0.102(4) Uani 1 1 d . . . . .
C11 C 0.8008(5) 0.4742(3) 0.73175(19) 0.090(3) Uani 1 1 d . . . . .
C13 C 0.8014(7) 0.5078(4) 0.7247(2) 0.120(5) Uani 1 1 d . . . . .
H13 H 0.8016 0.5135 0.7073 0.144 Uiso 1 1 calc R . . . .
C12 C 0.8016(7) 0.4657(3) 0.7568(2) 0.117(4) Uani 1 1 d . . . . .
H12 H 0.8024 0.4427 0.7619 0.140 Uiso 1 1 calc R . . . .
C1 C 0.4402(5) 0.3216(3) 0.6382(3) 0.138(6) Uani 1 1 d . . . . .
C8 C 0.7891(8) 0.4752(3) 0.5282(3) 0.136(5) Uani 1 1 d . . . . .
H8 H 0.7894 0.4748 0.5461 0.163 Uiso 1 1 calc R . . . .
C2 C 0.3855(6) 0.2999(3) 0.6392(4) 0.142(6) Uani 1 1 d . . . . .
C9 C 0.7905(9) 0.5054(4) 0.5148(3) 0.174(7) Uani 1 1 d . . . . .
H9 H 0.7915 0.5263 0.5236 0.208 Uiso 1 1 calc R . . . .
C3 C 0.3215(7) 0.3124(4) 0.6451(5) 0.227(13) Uani 1 1 d . . . . .
H3 H 0.2849 0.2978 0.6459 0.272 Uiso 1 1 calc R . . . .
C6 C 0.4327(8) 0.3584(4) 0.6396(6) 0.283(17) Uani 1 1 d . . . . .
H6 H 0.4675 0.3736 0.6367 0.339 Uiso 1 1 calc R . . . .
C4 C 0.3160(8) 0.3466(5) 0.6496(7) 0.34(2) Uani 1 1 d . U . . .
H4 H 0.2758 0.3553 0.6555 0.404 Uiso 1 1 calc R . . . .
C5 C 0.3690(8) 0.3692(5) 0.6457(7) 0.33(2) Uani 1 1 d . . . . .
H5 H 0.3611 0.3928 0.6472 0.394 Uiso 1 1 calc R . . . .
H1WA H 0.581(2) 0.206(3) 0.621(2) 0.10(3) Uiso 1 1 d D . . . .
H1WB H 0.518(5) 0.2235(15) 0.6248(5) 0.116 Uiso 1 1 d DR . . . .
H2W H 0.735(4) 0.318(3) 0.4862(8) 0.116 Uiso 1 1 d DR . . A 1
loop_
_atom_site_aniso_label
_atom_site_aniso_U_11
_atom_site_aniso_U_22
_atom_site_aniso_U_33
_atom_site_aniso_U_23
_atom_site_aniso_U_13
_atom_site_aniso_U_12
Mo2 0.0560(4) 0.0847(5) 0.0617(4) -0.0070(4) 0.0095(3) -0.0002(4)
Mo12 0.0626(4) 0.0814(5) 0.0601(4) -0.0213(4) 0.0083(3) 0.0056(4)
Mo11 0.0539(4) 0.0722(5) 0.0815(5) -0.0233(4) 0.0048(3) -0.0035(3)
Mo1 0.0738(5) 0.0770(5) 0.0640(5) -0.0085(4) 0.0037(4) -0.0146(4)
Mo8 0.0842(5) 0.0701(5) 0.0731(5) -0.0165(4) 0.0049(4) 0.0034(4)
Mo3 0.0695(5) 0.0946(6) 0.0653(5) -0.0065(4) -0.0138(4) -0.0176(4)
Mo5 0.0736(5) 0.0825(5) 0.0705(5) -0.0030(4) 0.0127(4) -0.0100(4)
Mo10 0.0618(4) 0.0911(6) 0.0696(5) -0.0282(4) -0.0118(4) 0.0036(4)
Mo9 0.0623(4) 0.0881(6) 0.0816(5) -0.0180(4) -0.0066(4) 0.0115(4)
Mo7 0.0800(5) 0.0816(5) 0.0877(6) -0.0313(4) 0.0251(4) 0.0026(4)
Mo4 0.0933(6) 0.1010(6) 0.0527(4) -0.0046(4) -0.0089(4) -0.0185(5)
Mo6 0.0962(6) 0.0963(6) 0.0638(5) -0.0249(4) 0.0273(4) -0.0133(5)
Zn4 0.0547(5) 0.0777(6) 0.0773(7) -0.0008(5) 0.0009(5) 0.0010(5)
Zn2 0.0791(7) 0.0879(7) 0.0487(5) -0.0093(5) -0.0002(5) 0.0066(5)
Zn3 0.0513(5) 0.0833(7) 0.0943(8) -0.0236(6) 0.0120(5) -0.0032(5)
Zn1 0.1018(8) 0.0881(7) 0.0540(6) -0.0289(5) 0.0054(5) -0.0185(6)
P1 0.0524(10) 0.0697(12) 0.0473(10) -0.0175(9) 0.0027(8) -0.0011(9)
O40 0.058(3) 0.081(3) 0.042(3) -0.017(2) 0.003(2) -0.009(3)
O39 0.051(3) 0.072(3) 0.053(3) -0.021(2) -0.001(2) 0.000(2)
O37 0.056(3) 0.074(3) 0.047(3) -0.011(2) -0.002(2) -0.008(3)
O32 0.048(3) 0.077(4) 0.076(4) -0.016(3) 0.005(3) 0.003(3)
O22 0.075(3) 0.074(3) 0.051(3) -0.012(3) 0.004(3) -0.005(3)
O29 0.058(3) 0.079(4) 0.082(4) -0.014(3) 0.012(3) -0.008(3)
O38 0.061(3) 0.076(3) 0.052(3) -0.019(3) 0.005(2) 0.004(3)
O25 0.072(3) 0.082(4) 0.054(3) -0.013(3) 0.004(3) 0.003(3)
O31 0.059(3) 0.080(4) 0.077(4) -0.006(3) 0.009(3) 0.000(3)
O33 0.062(3) 0.072(4) 0.077(4) -0.024(3) 0.005(3) 0.005(3)
O26 0.069(3) 0.095(4) 0.056(3) -0.017(3) -0.007(3) 0.011(3)
O28 0.046(3) 0.083(4) 0.098(4) -0.031(3) -0.007(3) -0.001(3)
O19 0.063(3) 0.095(4) 0.065(4) -0.003(3) -0.016(3) -0.004(3)
O7 0.094(4) 0.096(4) 0.048(3) -0.013(3) -0.006(3) -0.028(4)
O36 0.056(3) 0.085(4) 0.090(4) -0.039(3) -0.001(3) -0.005(3)
O5 0.116(5) 0.109(5) 0.050(3) -0.019(3) 0.005(3) -0.021(4)
O20 0.048(3) 0.097(4) 0.084(4) 0.004(3) -0.002(3) -0.015(3)
O3 0.094(4) 0.087(4) 0.066(4) -0.034(3) 0.019(3) -0.016(3)
O11 0.085(4) 0.077(4) 0.059(3) -0.020(3) 0.002(3) -0.012(3)
O35 0.075(4) 0.094(4) 0.061(3) -0.030(3) -0.006(3) 0.011(3)
O9 0.074(4) 0.093(4) 0.073(4) -0.013(3) -0.012(3) -0.023(3)
O17 0.088(4) 0.102(5) 0.066(4) -0.013(3) 0.027(3) -0.022(4)
N4 0.080(5) 0.083(5) 0.059(4) 0.000(4) 0.003(4) -0.002(4)
O21 0.062(3) 0.094(4) 0.063(3) -0.007(3) 0.011(3) -0.004(3)
O24 0.068(4) 0.109(5) 0.093(5) -0.007(4) 0.026(3) -0.004(3)
O1 0.147(7) 0.105(5) 0.063(4) -0.040(4) 0.009(4) -0.027(5)
N5 0.112(9) 0.087(7) 0.042(5) 0.000 0.000 -0.004(6)
O41 0.068(4) 0.066(4) 0.126(6) -0.027(4) 0.013(4) -0.007(3)
N3 0.054(4) 0.083(5) 0.088(5) -0.020(4) 0.006(4) -0.002(4)
O16 0.072(4) 0.076(4) 0.088(4) -0.024(3) 0.021(3) -0.005(3)
O13 0.093(4) 0.070(4) 0.091(4) -0.028(3) 0.019(4) -0.001(3)
O18 0.092(4) 0.094(4) 0.071(4) 0.012(3) -0.006(3) -0.014(4)
O34 0.089(4) 0.105(5) 0.074(4) -0.032(4) 0.017(3) 0.011(4)
O23 0.080(4) 0.080(4) 0.088(4) 0.000(3) 0.001(3) 0.015(3)
O10 0.108(5) 0.085(4) 0.102(5) 0.000(4) 0.013(4) -0.018(4)
O15 0.061(4) 0.086(4) 0.117(5) -0.024(4) 0.014(3) 0.015(3)
O2 0.191(9) 0.118(6) 0.077(5) -0.050(5) 0.005(5) -0.025(6)
O8 0.085(5) 0.145(6) 0.092(5) 0.003(4) -0.034(4) -0.029(4)
O30 0.105(5) 0.090(5) 0.113(6) 0.008(4) 0.028(4) -0.014(4)
O4 0.144(7) 0.116(6) 0.088(5) -0.030(4) 0.053(5) -0.010(5)
O42 0.085(4) 0.121(6) 0.097(5) -0.037(4) -0.028(4) 0.000(4)
N1 0.060(4) 0.073(5) 0.124(7) -0.033(5) 0.020(4) -0.002(4)
O12 0.124(6) 0.082(4) 0.097(5) -0.012(4) 0.009(4) 0.014(4)
N2 0.047(4) 0.083(5) 0.114(6) -0.015(5) 0.016(4) -0.001(3)
O27 0.081(5) 0.111(5) 0.120(6) -0.006(4) -0.028(4) 0.016(4)
O14 0.118(6) 0.107(5) 0.117(6) -0.042(5) 0.041(5) 0.016(5)
O6 0.135(6) 0.149(7) 0.065(4) 0.004(4) -0.035(4) -0.029(5)
O2W 0.34(2) 0.133(11) 0.053(6) 0.000 0.000 -0.046(13)
O1W 0.067(5) 0.120(7) 0.287(14) -0.035(8) 0.038(7) -0.002(5)
C7 0.099(7) 0.079(6) 0.078(6) -0.004(5) 0.009(5) -0.007(5)
C10 0.106(8) 0.120(10) 0.081(8) -0.053(7) -0.007(6) 0.002(7)
C11 0.107(8) 0.092(7) 0.070(6) -0.043(6) 0.004(5) -0.006(6)
C13 0.171(12) 0.126(10) 0.063(6) -0.043(7) 0.026(7) -0.030(9)
C12 0.165(12) 0.115(9) 0.072(7) -0.036(6) -0.026(7) 0.011(8)
C1 0.065(6) 0.099(8) 0.250(17) -0.064(10) 0.049(9) -0.009(6)
C8 0.220(16) 0.073(7) 0.114(10) -0.018(7) 0.024(10) -0.011(9)
C2 0.067(7) 0.113(10) 0.247(18) -0.061(11) 0.046(9) -0.001(7)
C9 0.246(19) 0.096(10) 0.178(16) -0.032(9) -0.005(13) -0.035(11)
C3 0.085(9) 0.107(10) 0.49(4) -0.093(16) 0.119(15) -0.011(8)
C6 0.117(12) 0.113(12) 0.62(5) -0.14(2) 0.11(2) -0.008(10)
C4 0.094(11) 0.142(14) 0.77(6) -0.16(2) 0.17(2) -0.018(10)
C5 0.084(10) 0.139(14) 0.76(6) -0.16(3) 0.11(2) -0.013(10)
loop_
_atom_type_symbol
_atom_type_description
_atom_type_scat_dispersion_real
_atom_type_scat_dispersion_imag
_atom_type_scat_source
C C 0.0033 0.0016 'International Tables Vol C Tables 4.2.6.8 and 6.1.1.4'
H H 0.0000 0.0000 'International Tables Vol C Tables 4.2.6.8 and 6.1.1.4'
Mo Mo -1.6832 0.6857 'International Tables Vol C Tables 4.2.6.8 and 6.1.1.4'
N N 0.0061 0.0033 'International Tables Vol C Tables 4.2.6.8 and 6.1.1.4'
O O 0.0106 0.0060 'International Tables Vol C Tables 4.2.6.8 and 6.1.1.4'
P P 0.1023 0.0942 'International Tables Vol C Tables 4.2.6.8 and 6.1.1.4'
Zn Zn 0.2839 1.4301 'International Tables Vol C Tables 4.2.6.8 and 6.1.1.4'
loop_
_geom_angle_atom_site_label_1
_geom_angle_atom_site_label_2
_geom_angle_atom_site_label_3
_geom_angle
_geom_angle_site_symmetry_1
_geom_angle_site_symmetry_3
O32 Mo2 O37 79.30(19) . .
O32 Mo2 O25 94.0(2) . .
O32 Mo2 O20 85.6(2) . .
O32 Mo2 O21 153.9(2) . .
O25 Mo2 O37 81.58(19) . .
O25 Mo2 O20 156.2(2) . .
O25 Mo2 O21 84.6(2) . .
O20 Mo2 O37 75.0(2) . .
O21 Mo2 O37 74.8(2) . .
O21 Mo2 O20 85.5(2) . .
O24 Mo2 O37 169.8(3) . .
O24 Mo2 O32 105.4(3) . .
O24 Mo2 O25 106.7(3) . .
O24 Mo2 O20 96.2(3) . .
O24 Mo2 O21 99.8(3) . .
O32 Mo12 O39 80.40(19) . .
O32 Mo12 O33 83.3(2) . .
O32 Mo12 O35 154.9(2) . .
O25 Mo12 O39 80.6(2) . .
O25 Mo12 O32 93.6(2) . .
O25 Mo12 O33 153.6(2) . .
O25 Mo12 O35 86.3(3) . .
O33 Mo12 O39 73.03(19) . .
O35 Mo12 O39 74.83(19) . .
O35 Mo12 O33 85.7(3) . .
O34 Mo12 O39 171.5(3) . .
O34 Mo12 O32 105.5(3) . .
O34 Mo12 O25 104.8(3) . .
O34 Mo12 O33 101.4(3) . .
O34 Mo12 O35 98.7(3) . .
O29 Mo11 O39 80.1(2) . .
O29 Mo11 O31 73.1(2) . .
O31 Mo11 O39 78.6(2) . .
O33 Mo11 O39 74.9(2) . .
O33 Mo11 O29 151.3(2) . .
O33 Mo11 O31 88.1(2) . .
O36 Mo11 O39 75.4(2) . .
O36 Mo11 O29 88.4(3) . .
O36 Mo11 O31 150.3(2) . .
O36 Mo11 O33 98.6(3) . .
O41 Mo11 O39 179.0(3) . .
O41 Mo11 O29 100.1(3) . .
O41 Mo11 O31 102.4(3) . .
O41 Mo11 O33 105.1(3) . .
O41 Mo11 O36 103.7(3) . .
O22 Mo1 O37 80.3(2) . .
O11 Mo1 O37 79.9(2) . .
O11 Mo1 O22 74.4(2) . .
O9 Mo1 O37 74.2(2) . .
O9 Mo1 O22 151.1(2) . .
O9 Mo1 O11 88.0(3) . .
O9 Mo1 O21 97.2(3) . .
O21 Mo1 O37 74.2(2) . .
O21 Mo1 O22 88.4(2) . .
O21 Mo1 O11 151.0(2) . .
O10 Mo1 O37 176.6(3) . .
O10 Mo1 O22 102.7(3) . .
O10 Mo1 O11 102.4(3) . .
O10 Mo1 O9 103.3(3) . .
O10 Mo1 O21 104.0(3) . .
O22 Mo8 O38 78.8(2) . .
O22 Mo8 O11 73.8(2) . .
O11 Mo8 O38 78.6(2) . .
O13 Mo8 O22 152.0(3) . .
O13 Mo8 O38 76.0(2) . .
O13 Mo8 O11 89.2(3) . .
O23 Mo8 O22 87.4(2) . .
O23 Mo8 O38 76.3(2) . .
O23 Mo8 O11 151.1(3) . .
O23 Mo8 O13 98.3(3) . .
O12 Mo8 O22 100.9(3) . .
O12 Mo8 O38 179.1(3) . .
O12 Mo8 O11 102.2(3) . .
O12 Mo8 O13 104.5(3) . .
O12 Mo8 O23 102.8(3) . .
O19 Mo3 O37 79.7(2) . .
O19 Mo3 O20 85.9(2) . .
O19 Mo3 O9 154.0(2) . .
O7 Mo3 O37 80.7(2) . .
O7 Mo3 O19 93.5(3) . .
O7 Mo3 O20 155.1(2) . .
O7 Mo3 O9 84.2(3) . .
O20 Mo3 O37 74.67(19) . .
O9 Mo3 O37 74.3(2) . .
O9 Mo3 O20 85.5(3) . .
O8 Mo3 O37 171.3(3) . .
O8 Mo3 O19 105.2(3) . .
O8 Mo3 O7 105.8(3) . .
O8 Mo3 O20 98.4(3) . .
O8 Mo3 O9 100.3(3) . .
O29 Mo5 O40 80.4(2) . .
O31 Mo5 O40 78.5(2) . .
O31 Mo5 O29 73.9(2) . .
O17 Mo5 O40 75.3(2) . .
O17 Mo5 O29 89.2(3) . .
O17 Mo5 O31 150.8(3) . .
O17 Mo5 O18 96.9(3) . .
O18 Mo5 O40 74.3(2) . .
O18 Mo5 O29 151.4(3) . .
O18 Mo5 O31 88.1(3) . .
O30 Mo5 O40 178.2(3) . .
O30 Mo5 O29 101.3(3) . .
O30 Mo5 O31 101.3(3) . .
O30 Mo5 O17 105.3(3) . .
O30 Mo5 O18 103.9(4) . .
O26 Mo10 O39 80.2(2) . .
O26 Mo10 O28 94.0(2) . .
O26 Mo10 O36 152.0(2) . .
O26 Mo10 O35 86.4(2) . .
O28 Mo10 O39 80.40(19) . .
O28 Mo10 O36 82.3(2) . .
O28 Mo10 O35 153.0(2) . .
O36 Mo10 O39 71.9(2) . .
O35 Mo10 O39 73.09(19) . .
O35 Mo10 O36 84.9(2) . .
O42 Mo10 O39 171.3(3) . .
O42 Mo10 O26 104.8(3) . .
O42 Mo10 O28 106.0(3) . .
O42 Mo10 O36 102.8(3) . .
O42 Mo10 O35 99.9(3) . .
O26 Mo9 O38 79.01(19) . .
O26 Mo9 O23 81.6(3) . .
O28 Mo9 O38 80.7(2) . .
O28 Mo9 O26 93.2(2) . .
O28 Mo9 O23 153.0(2) . .
O23 Mo9 O38 72.3(2) . .
O15 Mo9 O38 73.2(2) . .
O15 Mo9 O26 151.8(2) . .
O15 Mo9 O28 87.1(3) . .
O15 Mo9 O23 85.5(3) . .
O27 Mo9 O38 171.5(3) . .
O27 Mo9 O26 105.2(3) . .
O27 Mo9 O28 106.3(3) . .
O27 Mo9 O23 100.6(3) . .
O27 Mo9 O15 101.8(3) . .
O3 Mo7 O38 78.1(2) . .
O3 Mo7 O13 81.9(3) . .
O16 Mo7 O38 80.8(2) . .
O16 Mo7 O3 92.4(3) . .
O16 Mo7 O13 153.4(2) . .
O13 Mo7 O38 72.6(2) . .
O15 Mo7 O38 73.6(2) . .
O15 Mo7 O3 151.3(2) . .
O15 Mo7 O16 87.6(3) . .
O15 Mo7 O13 85.4(3) . .
O14 Mo7 O38 172.5(3) . .
O14 Mo7 O3 105.2(3) . .
O14 Mo7 O16 105.5(3) . .
O14 Mo7 O13 101.0(3) . .
O14 Mo7 O15 102.4(4) . .
O19 Mo4 O40 81.37(19) . .
O19 Mo4 O5 157.0(2) . .
O19 Mo4 O18 84.9(3) . .
O7 Mo4 O40 80.2(2) . .
O7 Mo4 O19 92.9(3) . .
O7 Mo4 O5 84.1(3) . .
O7 Mo4 O18 153.3(3) . .
O5 Mo4 O40 75.6(2) . .
O18 Mo4 O40 73.1(2) . .
O18 Mo4 O5 87.6(3) . .
O6 Mo4 O40 170.4(3) . .
O6 Mo4 O19 105.4(4) . .
O6 Mo4 O7 105.9(3) . .
O6 Mo4 O5 97.4(4) . .
O6 Mo4 O18 100.3(3) . .
O5 Mo6 O40 73.2(2) . .
O3 Mo6 O40 79.7(2) . .
O3 Mo6 O5 83.8(3) . .
O3 Mo6 O17 151.3(2) . .
O3 Mo6 O16 92.9(3) . .
O17 Mo6 O40 71.7(2) . .
O17 Mo6 O5 86.2(3) . .
O16 Mo6 O40 81.3(2) . .
O16 Mo6 O5 154.5(2) . .
O16 Mo6 O17 84.7(3) . .
O4 Mo6 O40 168.9(4) . .
O4 Mo6 O5 98.3(4) . .
O4 Mo6 O3 106.9(3) . .
O4 Mo6 O17 101.1(3) . .
O4 Mo6 O16 106.8(4) . .
O32 Zn4 O19 99.7(2) . .
O32 Zn4 N2 114.6(3) . 11_665
O31 Zn4 O32 111.5(2) . .
O31 Zn4 O19 110.3(2) . .
O31 Zn4 N2 105.0(3) . 11_665
N2 Zn4 O19 115.8(3) 11_665 .
O22 Zn2 O25 110.2(2) . .
O22 Zn2 O26 112.3(2) . .
O22 Zn2 N4 109.3(3) . .
O25 Zn2 N4 113.6(3) . .
O26 Zn2 O25 100.0(3) . .
O26 Zn2 N4 111.2(3) . .
O29 Zn3 O16 110.2(3) . .
O29 Zn3 N1 115.4(3) . .
O28 Zn3 O29 111.6(2) . .
O28 Zn3 O16 100.0(3) . .
O28 Zn3 N1 110.0(3) . .
O16 Zn3 N1 108.3(3) . .
O3 Zn1 O7 102.1(3) . .
O11 Zn1 O7 108.4(2) . .
O11 Zn1 O3 112.4(3) . .
O1 Zn1 O7 110.4(3) . .
O1 Zn1 O3 107.5(3) . .
O1 Zn1 O11 115.3(3) . .
O39 P1 O40 110.0(3) . .
O37 P1 O40 108.7(3) . .
O37 P1 O39 108.4(3) . .
O38 P1 O40 109.4(3) . .
O38 P1 O39 108.7(3) . .
O38 P1 O37 111.5(3) . .
Mo5 O40 Mo6 83.62(15) . .
Mo4 O40 Mo5 85.09(17) . .
Mo4 O40 Mo6 90.36(15) . .
P1 O40 Mo5 132.1(3) . .
P1 O40 Mo4 126.0(3) . .
P1 O40 Mo6 125.4(3) . .
Mo12 O39 Mo11 84.56(15) . .
Mo12 O39 Mo10 87.95(15) . .
Mo11 O39 Mo10 83.62(14) . .
P1 O39 Mo12 126.5(3) . .
P1 O39 Mo11 132.2(3) . .
P1 O39 Mo10 126.8(3) . .
Mo2 O37 Mo1 83.77(15) . .
Mo2 O37 Mo3 90.89(17) . .
Mo3 O37 Mo1 83.90(15) . .
P1 O37 Mo2 127.5(3) . .
P1 O37 Mo1 129.0(3) . .
P1 O37 Mo3 127.2(3) . .
Mo2 O32 Mo12 83.6(2) . .
Mo2 O32 Zn4 138.5(3) . .
Zn4 O32 Mo12 128.0(3) . .
Mo1 O22 Mo8 104.9(2) . .
Zn2 O22 Mo1 125.2(3) . .
Zn2 O22 Mo8 122.8(3) . .
Mo5 O29 Mo11 105.7(3) . .
Zn3 O29 Mo11 122.6(3) . .
Zn3 O29 Mo5 124.8(3) . .
Mo8 O38 Mo9 83.34(17) . .
Mo8 O38 Mo7 83.34(15) . .
Mo9 O38 Mo7 84.41(16) . .
P1 O38 Mo8 133.7(3) . .
P1 O38 Mo9 127.4(3) . .
P1 O38 Mo7 127.6(3) . .
Mo12 O25 Mo2 83.5(2) . .
Zn2 O25 Mo2 129.3(3) . .
Zn2 O25 Mo12 137.8(3) . .
Mo5 O31 Mo11 105.6(2) . .
Zn4 O31 Mo11 123.0(3) . .
Zn4 O31 Mo5 125.4(3) . .
Mo11 O33 Mo12 125.9(3) . .
Mo10 O26 Mo9 83.4(2) . .
Zn2 O26 Mo10 138.3(3) . .
Zn2 O26 Mo9 129.0(3) . .
Mo9 O28 Mo10 83.8(3) . .
Zn3 O28 Mo10 129.8(3) . .
Zn3 O28 Mo9 137.4(3) . .
Mo3 O19 Zn4 137.6(3) . .
Mo4 O19 Mo3 83.6(2) . .
Mo4 O19 Zn4 128.0(3) . .
Mo3 O7 Mo4 84.6(3) . .
Mo3 O7 Zn1 130.8(3) . .
Mo4 O7 Zn1 136.0(3) . .
Mo11 O36 Mo10 127.9(3) . .
Mo11 O36 H36 107.5(17) . .
Mo10 O36 H36 120.9(18) . .
Mo4 O5 Mo6 120.6(3) . .
Mo2 O20 Mo3 119.5(3) . .
Mo6 O3 Mo7 84.3(2) . .
Mo6 O3 Zn1 137.3(4) . .
Zn1 O3 Mo7 129.7(3) . .
Mo1 O11 Mo8 105.1(3) . .
Zn1 O11 Mo1 126.3(3) . .
Zn1 O11 Mo8 121.4(3) . .
Mo12 O35 Mo10 124.1(3) . .
Mo1 O9 Mo3 126.8(3) . .
Mo5 O17 Mo6 128.9(3) . .
Mo5 O17 H17 106.8(17) . .
Mo6 O17 H17 119.7(19) . .
N5 N4 Zn2 118.9(6) . .
N5 N4 C7 109.4(8) . .
C7 N4 Zn2 131.5(6) . .
Mo1 O21 Mo2 126.6(3) . .
C10 O1 Zn1 114.1(7) . .
N4 N5 N4 109.4(10) . 10_556
N2 N3 N1 110.4(7) . .
Mo7 O16 Mo6 84.5(2) . .
Mo7 O16 Zn3 136.8(4) . .
Mo6 O16 Zn3 129.6(3) . .
Mo8 O13 Mo7 126.2(3) . .
Mo5 O18 Mo4 126.5(3) . .
Mo8 O23 Mo9 126.0(3) . .
Mo7 O15 Mo9 128.8(3) . .
N3 N1 Zn3 123.5(5) . .
N3 N1 C1 108.2(8) . .
C1 N1 Zn3 128.0(7) . .
N3 N2 Zn4 121.5(6) . 11_565
N3 N2 C2 107.6(8) . .
C2 N2 Zn4 130.6(7) . 11_565
H1WA O1W H1WB 122(10) . .
N4 C7 C7 105.9(5) . 10_556
N4 C7 C8 131.3(10) . .
C8 C7 C7 122.7(7) . 10_556
O1 C10 O2 127.5(9) . .
O1 C10 C11 116.3(12) . .
O2 C10 C11 116.1(11) . .
C13 C11 C10 118.8(11) . .
C12 C11 C10 121.3(12) . .
C12 C11 C13 119.9(9) . .
C11 C13 H13 119.4 . .
C11 C13 C12 121.2(11) . 8_456
C12 C13 H13 119.4 8_456 .
C11 C12 C13 118.9(12) . 8_456
C11 C12 H12 120.6 . .
C13 C12 H12 120.6 8_456 .
N1 C1 C2 107.2(10) . .
N1 C1 C6 131.6(11) . .
C2 C1 C6 121.1(12) . .
C7 C8 H8 121.7 . .
C9 C8 C7 116.5(13) . .
C9 C8 H8 121.7 . .
N2 C2 C1 106.6(9) . .
N2 C2 C3 131.6(12) . .
C1 C2 C3 121.7(12) . .
C8 C9 C9 120.8(8) . 10_556
C8 C9 H9 119.6 . .
C9 C9 H9 119.6 10_556 .
C2 C3 H3 121.6 . .
C4 C3 C2 116.7(13) . .
C4 C3 H3 121.6 . .
C1 C6 H6 122.9 . .
C5 C6 C1 114.2(15) . .
C5 C6 H6 122.9 . .
C3 C4 H4 119.1 . .
C3 C4 C5 121.8(14) . .
C5 C4 H4 119.1 . .
C6 C5 C4 123.4(17) . .
C6 C5 H5 118.3 . .
C4 C5 H5 118.3 . .
loop_
_geom_bond_atom_site_label_1
_geom_bond_atom_site_label_2
_geom_bond_distance
_geom_bond_site_symmetry_2
Mo2 O37 2.490(5) .
Mo2 O32 1.956(6) .
Mo2 O25 1.968(6) .
Mo2 O20 2.055(6) .
Mo2 O21 2.014(6) .
Mo2 O24 1.657(6) .
Mo12 O39 2.508(5) .
Mo12 O32 1.972(6) .
Mo12 O25 1.965(6) .
Mo12 O33 2.031(6) .
Mo12 O35 1.993(6) .
Mo12 O34 1.664(6) .
Mo11 O39 2.570(5) .
Mo11 O29 2.008(6) .
Mo11 O31 2.010(6) .
Mo11 O33 1.803(5) .
Mo11 O36 1.791(6) .
Mo11 O41 1.685(6) .
Mo1 O37 2.631(5) .
Mo1 O22 2.009(6) .
Mo1 O11 1.996(6) .
Mo1 O9 1.812(6) .
Mo1 O21 1.814(6) .
Mo1 O10 1.701(7) .
Mo8 O22 2.013(5) .
Mo8 O38 2.580(6) .
Mo8 O11 2.020(6) .
Mo8 O13 1.818(6) .
Mo8 O23 1.798(7) .
Mo8 O12 1.692(7) .
Mo3 O37 2.498(5) .
Mo3 O19 1.961(6) .
Mo3 O7 1.927(7) .
Mo3 O20 2.061(6) .
Mo3 O9 2.022(7) .
Mo3 O8 1.664(6) .
Mo5 O40 2.561(6) .
Mo5 O29 1.993(6) .
Mo5 O31 1.992(6) .
Mo5 O17 1.796(6) .
Mo5 O18 1.825(6) .
Mo5 O30 1.668(7) .
Mo10 O39 2.576(5) .
Mo10 O26 1.964(6) .
Mo10 O28 1.974(6) .
Mo10 O36 2.027(7) .
Mo10 O35 2.004(6) .
Mo10 O42 1.660(6) .
Mo9 O38 2.589(5) .
Mo9 O26 1.996(6) .
Mo9 O28 1.970(7) .
Mo9 O23 2.057(7) .
Mo9 O15 1.941(6) .
Mo9 O27 1.661(7) .
Mo7 O38 2.589(5) .
Mo7 O3 1.970(7) .
Mo7 O16 1.956(6) .
Mo7 O13 2.034(7) .
Mo7 O15 1.917(7) .
Mo7 O14 1.672(6) .
Mo4 O40 2.498(5) .
Mo4 O19 1.956(6) .
Mo4 O7 1.952(6) .
Mo4 O5 2.064(7) .
Mo4 O18 2.005(6) .
Mo4 O6 1.663(7) .
Mo6 O40 2.587(5) .
Mo6 O5 2.088(7) .
Mo6 O3 1.951(6) .
Mo6 O17 2.007(7) .
Mo6 O16 1.957(7) .
Mo6 O4 1.659(6) .
Zn4 O32 1.966(6) .
Zn4 O31 1.950(6) .
Zn4 O19 1.977(6) .
Zn4 N2 1.969(7) 11_665
Zn2 O22 1.939(5) .
Zn2 O25 1.954(6) .
Zn2 O26 1.940(6) .
Zn2 N4 2.009(7) .
Zn3 O29 1.946(6) .
Zn3 O28 1.936(7) .
Zn3 O16 1.963(6) .
Zn3 N1 1.970(7) .
Zn1 O7 1.994(7) .
Zn1 O3 1.962(6) .
Zn1 O11 1.940(6) .
Zn1 O1 1.922(6) .
P1 O40 1.559(5) .
P1 O39 1.549(5) .
P1 O37 1.543(5) .
P1 O38 1.533(6) .
O36 H36 0.858(10) .
O17 H17 0.857(10) .
N4 N5 1.313(9) .
N4 C7 1.319(12) .
O1 C10 1.267(14) .
N5 N4 1.313(9) 10_556
N3 N1 1.326(9) .
N3 N2 1.319(9) .
O2 C10 1.269(15) .
N1 C1 1.336(12) .
N2 Zn4 1.969(7) 11_565
N2 C2 1.361(14) .
O2W H2W 0.783(18) .
O1W H1WA 0.83(5) .
O1W H1WB 0.831(16) .
C7 C7 1.419(19) 10_556
C7 C8 1.405(14) .
C10 C11 1.518(13) .
C11 C13 1.351(16) .
C11 C12 1.346(15) .
C13 H13 0.9300 .
C13 C12 1.405(14) 8_456
C12 C13 1.405(14) 8_456
C12 H12 0.9300 .
C1 C2 1.388(16) .
C1 C6 1.435(19) .
C8 H8 0.9300 .
C8 C9 1.364(19) .
C2 C3 1.415(15) .
C9 C9 1.54(3) 10_556
C9 H9 0.9300 .
C3 H3 0.9300 .
C3 C4 1.35(2) .
C6 H6 0.9300 .
C6 C5 1.39(2) .
C4 H4 0.9300 .
C4 C5 1.40(2) .
C5 H5 0.9300 .
loop_
_platon_squeeze_void_nr
_platon_squeeze_void_average_x
_platon_squeeze_void_average_y
_platon_squeeze_void_average_z
_platon_squeeze_void_volume
_platon_squeeze_void_count_electrons
_platon_squeeze_void_content
1 -0.003 -0.007 -0.006 24442 4237 ' '
loop_
_platon_missing_refln_index_h
_platon_missing_refln_index_k
_platon_missing_refln_index_l
_platon_missing_refln_theta
2 0 0 2.019
4 0 0 4.040
1 1 0 1.138
0 2 0 1.051
1 3 0 1.872
0 4 0 2.103
4 4 0 4.556
2 6 0 3.747
2 1 1 2.123
1 2 1 1.509
2 3 1 2.592
1 4 1 2.365
3 6 1 4.394
0 0 2 0.783
1 1 2 1.381
0 2 2 1.311
2 2 2 2.407
1 3 2 2.030
0 4 2 2.244
2 1 3 2.394
1 2 3 1.872
1 4 3 2.612
0 0 4 1.566
4 0 4 4.334
1 1 4 1.936
0 2 4 1.886
2 2 4 2.764
1 3 4 2.441
0 6 4 3.523
2 6 4 4.062
2 1 5 2.862
3 2 5 3.758
0 0 6 2.350
1 1 6 2.611
0 2 6 2.574
1 3 6 3.005
0 0 8 3.133
2 0 8 3.729
6 0 8 6.833
0 4 8 3.775
0 6 8 4.449
4 6 8 6.015
1 2 9 3.816
1 4 9 4.229
0 10 10 6.568
0 0 12 4.703
1 4 13 5.607
2 0 14 5.851
0 6 16 7.030
