#------------------------------------------------------------------------------
#$Date: 2017-06-14 04:30:35 +0300 (Wed, 14 Jun 2017) $
#$Revision: 197784 $
#$URL: file:///home/coder/svn-repositories/cod/cif/7/12/02/7120267.cif $
#------------------------------------------------------------------------------
#
# This file is available in the Crystallography Open Database (COD),
# http://www.crystallography.net/
#
# All data on this site have been placed in the public domain by the
# contributors.
#
data_7120267
loop_
_publ_author_name
'Shen, Cheng'
'liu, yang'
'Zhu, Zhongqin'
'Xu, Yuangang'
'Lu, Ming'
_publ_section_title
;
 Self-assembly of silver(I)-based high-energy metal-organic frameworks
 (HE-MOFs) at ambient temperature and pressure: synthesis, structure and
 superior explosive performance
;
_journal_name_full               'Chem. Commun.'
_journal_paper_doi               10.1039/C7CC03869K
_journal_year                    2017
_chemical_formula_moiety         'C3 H2 Ag N5 O6'
_chemical_formula_sum            'C3 H2 Ag N5 O6'
_chemical_formula_weight         311.97
_space_group_crystal_system      monoclinic
_space_group_IT_number           14
_space_group_name_Hall           '-P 2ybc'
_space_group_name_H-M_alt        'P 1 21/c 1'
_symmetry_space_group_name_Hall  '-P 2ybc'
_symmetry_space_group_name_H-M   'P 1 21/c 1'
_atom_sites_solution_hydrogens   difmap
_audit_creation_date             2017-04-19
_audit_creation_method
;
Olex2 1.2-beta
(compiled 2016.09.09 svn.r3337 for OlexSys, GUI svn.r5227)
;
_audit_update_record
;
2017-04-19 deposited with the CCDC.
2017-06-12 downloaded from the CCDC.
;
_cell_angle_alpha                90
_cell_angle_beta                 101.245(3)
_cell_angle_gamma                90
_cell_formula_units_Z            4
_cell_length_a                   10.346(2)
_cell_length_b                   5.3225(11)
_cell_length_c                   14.977(3)
_cell_measurement_reflns_used    2903
_cell_measurement_temperature    205
_cell_measurement_theta_max      27.657
_cell_measurement_theta_min      2.773
_cell_volume                     808.9(3)
_computing_cell_refinement       'SAINT v7.68A (Bruker, 2009)'
_computing_data_reduction        'SAINT v7.68A (Bruker, 2009)'
_computing_molecular_graphics    'Olex2 (Dolomanov et al., 2009)'
_computing_publication_material  'Olex2 (Dolomanov et al., 2009)'
_computing_structure_refinement  'ShelXL (Sheldrick, 2015)'
_computing_structure_solution    'ShelXT (Sheldrick, 2015)'
_diffrn_ambient_temperature      205.0
_diffrn_measured_fraction_theta_full 0.988
_diffrn_measured_fraction_theta_max 0.990
_diffrn_measurement_device_type  'Bruker APEX-II CCD'
_diffrn_measurement_method       '\f and \w scans'
_diffrn_radiation_monochromator  graphite
_diffrn_radiation_type           MoK\a
_diffrn_radiation_wavelength     0.71073
_diffrn_reflns_av_R_equivalents  0.0276
_diffrn_reflns_av_unetI/netI     0.0314
_diffrn_reflns_Laue_measured_fraction_full 0.988
_diffrn_reflns_Laue_measured_fraction_max 0.990
_diffrn_reflns_limit_h_max       13
_diffrn_reflns_limit_h_min       -13
_diffrn_reflns_limit_k_max       6
_diffrn_reflns_limit_k_min       -6
_diffrn_reflns_limit_l_max       19
_diffrn_reflns_limit_l_min       -19
_diffrn_reflns_number            5618
_diffrn_reflns_point_group_measured_fraction_full 0.988
_diffrn_reflns_point_group_measured_fraction_max 0.990
_diffrn_reflns_theta_full        25.242
_diffrn_reflns_theta_max         27.737
_diffrn_reflns_theta_min         2.007
_diffrn_standards_number         0
_exptl_absorpt_coefficient_mu    2.516
_exptl_absorpt_correction_T_max  0.7456
_exptl_absorpt_correction_T_min  0.5098
_exptl_absorpt_correction_type   multi-scan
_exptl_absorpt_process_details
;
SADABS-2008/1 (Bruker,2008) was used for absorption correction.
wR2(int) was 0.1188 before and 0.0439 after correction.
The Ratio of minimum to maximum transmission is 0.6837.
The \l/2 correction factor is 0.0015.
;
_exptl_crystal_colour            colourless
_exptl_crystal_colour_primary    colourless
_exptl_crystal_density_diffrn    2.562
_exptl_crystal_description       block
_exptl_crystal_F_000             600
_exptl_crystal_size_max          0.26
_exptl_crystal_size_mid          0.14
_exptl_crystal_size_min          0.13
_refine_diff_density_max         0.814
_refine_diff_density_min         -0.847
_refine_diff_density_rms         0.125
_refine_ls_extinction_method     none
_refine_ls_goodness_of_fit_ref   1.144
_refine_ls_hydrogen_treatment    constr
_refine_ls_matrix_type           full
_refine_ls_number_parameters     136
_refine_ls_number_reflns         1873
_refine_ls_number_restraints     0
_refine_ls_restrained_S_all      1.144
_refine_ls_R_factor_all          0.0310
_refine_ls_R_factor_gt           0.0270
_refine_ls_shift/su_max          0.002
_refine_ls_shift/su_mean         0.000
_refine_ls_structure_factor_coef Fsqd
_refine_ls_weighting_details
'w=1/[\s^2^(Fo^2^)+(0.0463P)^2^+0.1452P] where P=(Fo^2^+2Fc^2^)/3'
_refine_ls_weighting_scheme      calc
_refine_ls_wR_factor_gt          0.0791
_refine_ls_wR_factor_ref         0.0823
_reflns_Friedel_coverage         0.000
_reflns_number_gt                1675
_reflns_number_total             1873
_reflns_threshold_expression     'I > 2\s(I)'
_cod_data_source_file            c7cc03869k2.cif
_cod_data_source_block           mo_2017264-nlg-x-87_0m
_cod_database_code               7120267
_shelx_space_group_comment
;
The symmetry employed for this shelxl refinement is uniquely defined
by the following loop, which should always be used as a source of
symmetry information in preference to the above space-group names.
They are only intended as comments.
;
_olex2_refinement_description
;
1. Fixed Uiso
 At 1.5 times of:
  All O(H,H) groups
2.a Riding coordinates:
 O1(H1A,H1B)
;
_shelx_res_file
;
    mo_2017264-nlg-x-87_0m.res created by SHELXL-2014/7

TITL mo_2017264-nlg-x-87_0m_a.res in P2(1)/c
REM Old TITL mo_2017264-NLG-X-87_0m in P2(1)/c
REM SHELXT solution in P2(1)/c
REM R1 0.161, Rweak 0.003, Alpha 0.034, Orientation as input
REM Formula found by SHELXT: C10 O2 N2 Ag
CELL 0.71073 10.346 5.3225 14.9775 90 101.245 90
ZERR 4 0.002 0.0011 0.0031 0 0.003 0
LATT 1
SYMM -X,0.5+Y,0.5-Z
SFAC C H Ag N O
UNIT 12 8 4 20 24
EQIV $1 +X,0.5-Y,0.5+Z
EQIV $2 -X,0.5+Y,1.5-Z

L.S. 4
PLAN  20 0 0
TEMP -68.15
HTAB O1 O4_$1
HTAB O1 O5_$1
HTAB O1 O3_$2
HTAB O1 O4_$2
HTAB O1 N4_$2
BOND $H
list 4
MORE -1
CONF
htab
fmap 2
acta
OMIT 1 0 10
OMIT -1 0 2
OMIT -3 0 2
OMIT -2 0 4
OMIT 0 0 10
OMIT -5 3 1
REM <olex2.extras>
REM <HklSrc "%.\\mo_2017264-NLG-X-87_0m.hkl">
REM </olex2.extras>

WGHT    0.046300    0.145200
FVAR       0.48487
AG1   3    0.173844    0.642805    0.773748    11.00000    0.03851    0.05247 =
         0.02108   -0.00852    0.01340   -0.00238
O1    5    0.000521    0.404603    0.820745    11.00000    0.03524    0.03091 =
         0.02463    0.00026    0.00670    0.00625
AFIX   3
H1A   2    0.036241    0.317123    0.863745    11.00000   -1.50000
H1B   2   -0.051759    0.509323    0.843135    11.00000   -1.50000
AFIX   0
O2    5    0.458738    0.821574    0.721991    11.00000    0.03221    0.03179 =
         0.01921   -0.00796    0.00551   -0.00331
O3    5    0.183842    0.279875    0.651496    11.00000    0.04066    0.03480 =
         0.01791    0.00605    0.00751   -0.00594
PART -1
O4    5    0.070224    0.228990    0.514994    11.00000    0.03374    0.03814 =
         0.02587   -0.00348    0.00647   -0.01170
PART 0
O5    5    0.127212    0.530305    0.391905    11.00000    0.03329    0.04205 =
         0.01551    0.00076   -0.00117   -0.00487
O6    5    0.269902    0.819583    0.442614    11.00000    0.02999    0.03310 =
         0.02449    0.00885    0.00588   -0.00320
N1    4    0.332348    0.738886    0.685230    11.00000    0.02640    0.02910 =
         0.01850   -0.00187    0.00619    0.00147
N2    4    0.542787    0.776840    0.664215    11.00000    0.02765    0.02836 =
         0.02293   -0.00556    0.00685   -0.00364
N3    4    0.535701    0.574030    0.526961    11.00000    0.02061    0.02967 =
         0.01949   -0.00403    0.00634   -0.00245
N4    4    0.156074    0.342504    0.569174    11.00000    0.02235    0.02680 =
         0.01726   -0.00070    0.00687   -0.00014
N5    4    0.204577    0.628787    0.456147    11.00000    0.01975    0.03135 =
         0.01662    0.00396    0.00514    0.00314
C1    1    0.471883    0.663133    0.594220    11.00000    0.02227    0.02339 =
         0.01744   -0.00068    0.00549   -0.00244
C2    1    0.338425    0.642921    0.606361    11.00000    0.02088    0.02210 =
         0.01685    0.00254    0.00524    0.00230
C3    1    0.226214    0.540264    0.543739    11.00000    0.01833    0.02785 =
         0.01549    0.00346    0.00409    0.00001
HKLF 4

REM  mo_2017264-nlg-x-87_0m_a.res in P2(1)/c
REM R1 =  0.0270 for    1675 Fo > 4sig(Fo)  and  0.0310 for all    1873 data
REM    136 parameters refined using      0 restraints

END

WGHT      0.0463      0.1452

REM Instructions for potential hydrogen bonds
HTAB O1 O4_$1
HTAB O1 O5_$1
HTAB O1 O3_$2
HTAB O1 O4_$2
HTAB O1 N4_$2

REM Highest difference peak  0.814,  deepest hole -0.847,  1-sigma level  0.125
Q1    1   0.1826  0.7715  0.7569  11.00000  0.05    0.81
Q2    1   0.2222  0.5660  0.7882  11.00000  0.05    0.57
Q3    1   0.1161  0.5953  0.7449  11.00000  0.05    0.52
Q4    1   0.1974  0.9026  0.4820  11.00000  0.05    0.46
Q5    1   0.2086  0.5772  0.4996  11.00000  0.05    0.41
Q6    1   0.3202  0.8216  0.5029  11.00000  0.05    0.40
Q7    1   0.1199  0.1396  0.4756  11.00000  0.05    0.39
Q8    1   0.0853  0.6705  0.7210  11.00000  0.05    0.37
Q9    1   0.2797  0.9924  0.4945  11.00000  0.05    0.37
Q10   1   0.2827  0.5862  0.5775  11.00000  0.05    0.36
Q11   1   0.6740  0.6882  0.5960  11.00000  0.05    0.34
Q12   1   0.4785  0.6809  0.5579  11.00000  0.05    0.34
Q13   1   0.1170  0.1757  0.8240  11.00000  0.05    0.32
Q14   1   0.4076  0.6364  0.5944  11.00000  0.05    0.32
Q15   1   0.0587  0.3460  0.8073  11.00000  0.05    0.32
Q16   1   0.0516  0.0136  0.4599  11.00000  0.05    0.32
Q17   1  -0.0423  0.3187  0.5441  11.00000  0.05    0.32
Q18   1   0.3067  1.1809  0.5011  11.00000  0.05    0.31
Q19   1   0.1989  0.3205  0.8439  11.00000  0.05    0.31
Q20   1   0.0071  0.7038  0.7936  11.00000  0.05    0.31
;
_shelx_res_checksum              78259
_shelx_hkl_file
;
  -1   0   0 1263.37   44.20
   1   0   0 1258.67   44.10
  -1   0   0 1229.38   44.90
  -2   0   0 1295.47   48.20
  -2   0   0 1392.26   47.40
   2   0   0 1308.17   47.20
  -3   0   0 9999.00  349.07
   3   0   0 9598.24  346.67
   4   0   0   -0.10    0.80
  -4   0   0   -0.60    0.80
  -5   0   0 1162.18   43.90
   5   0   0 1189.18   42.80
  -6   0   0 4046.10  147.99
   6   0   0 4155.98  145.19
   7   0   0   57.99    3.80
  -7   0   0   56.79    4.50
  -8   0   0  966.20   37.90
   8   0   0  986.40   36.60
   9   0   0  209.48   10.00
  -9   0   0  213.78   10.90
  10   0   0   64.69    7.70
 -10   0   0   74.59    5.90
 -11   0   0  477.85   20.70
  11   0   0  445.96   22.90
 -12   0   0  103.39    7.50
  12   0   0   86.79    9.80
  13   0   0   16.00    4.50
   0  -1   0   -1.80    0.60
   0   1   0   -1.50    0.50
   0   1   0   -2.30    0.20
   1  -1   0 4777.32  171.08
  -1  -1   0 4983.60  170.58
   1   1   0 4703.23  169.78
  -2  -1   0   80.09    3.10
  -2  -1   0   79.49    3.10
  -2   1   0   82.09    3.90
   3  -1   0  879.01   30.90
  -3  -1   0  813.92   28.90
   3   1   0  804.22   28.90
  -3   1   0  787.42   30.40
  -4  -1   0 1155.18   39.60
   4  -1   0 1124.19   41.20
   4   1   0 1085.19   39.30
  -4   1   0 1075.89   41.10
   5  -1   0  897.91   33.20
  -5  -1   0  868.31   32.90
  -5   1   0  836.12   33.20
   5   1   0  882.91   31.30
   6  -1   0    7.40    1.80
  -6  -1   0   10.00    2.10
   6   1   0    9.40    1.30
  -6   1   0    5.50    1.90
   7  -1   0  717.83   27.20
  -7  -1   0  657.53   27.30
  -7   1   0  729.73   28.00
   7   1   0  666.93   25.50
  -8  -1   0   50.39    5.20
   8  -1   0   61.99    4.70
  -8   1   0   63.79    5.00
   9  -1   0   10.80    3.10
  -9  -1   0   10.70    2.70
   9  -1   0   18.90    3.00
  -9   1   0   10.80    2.70
  10  -1   0   93.09    8.50
 -10  -1   0  114.09    7.60
  10  -1   0  109.59    6.80
  10   1   0  103.09    9.00
 -10   1   0  109.19    7.40
  11  -1   0   15.30    4.20
 -11  -1   0   18.90    3.90
  11   1   0   17.10    4.30
 -11   1   0   25.40    4.10
  12  -1   0   44.90    6.90
 -12   1   0   50.89    5.80
  12   1   0   43.60    6.80
  13  -1   0   77.79    9.30
  13   1   0   91.89   10.10
   0  -2   0 2361.16   84.29
  -1  -2   0   75.89    3.90
   1   2   0   68.59    3.50
   2  -2   0   61.19    4.20
  -2  -2   0   56.99    3.00
   2  -2   0   52.19    2.70
  -2   2   0   57.39    3.60
  -3  -2   0  158.08    6.40
   3  -2   0  165.38    8.50
  -3   2   0  162.98    7.80
   4  -2   0    8.20    2.00
  -4   2   0    6.30    1.50
   5  -2   0    1.10    1.40
  -5   2   0    0.50    1.00
   6  -2   0  147.89    8.40
  -6   2   0  142.89    7.80
   7  -2   0    4.60    2.10
   7  -2   0    3.40    1.80
  -7   2   0    6.50    2.10
   8  -2   0  293.17   14.90
   8  -2   0  299.37   13.70
  -8   2   0  283.67   14.00
   8   2   0  252.37   15.10
   9  -2   0   95.09    7.90
   9  -2   0   90.69    6.60
  -9   2   0   85.79    7.00
   9   2   0   95.19    8.50
  10  -2   0   32.50    5.40
  10  -2   0   30.60    4.20
  10   2   0   21.10    4.70
 -10   2   0   28.90    4.60
  11  -2   0   76.79    6.10
  11  -2   0   78.09    8.50
 -11   2   0   63.69    6.80
  11   2   0   65.69    8.40
  12  -2   0   37.90    6.40
  12  -2   0   21.90    3.90
  12   2   0   28.20    5.90
 -12   2   0   23.00    4.40
   0  -3   0    3.70    1.60
   0   3   0   -1.50    0.90
   1  -3   0  823.42   30.90
  -1  -3   0  713.93   29.80
   1   3   0  794.52   27.20
   1   3   0  812.92   30.20
   2  -3   0 1120.29   41.70
  -2   3   0 1079.69   41.00
   2   3   0 1082.19   40.80
   2   3   0 1055.79   38.30
  -3  -3   0    1.80    1.00
   3  -3   0    2.30    0.60
   3  -3   0    2.00    1.50
   3   3   0    1.40    1.10
  -3   3   0    0.70    1.20
   3   3   0    1.50    1.20
  -4  -3   0  443.86   16.30
   4  -3   0  428.26   16.10
  -4   3   0  435.06   18.30
   4   3   0  395.96   18.00
   5   3   0   49.00    5.50
   6  -3   0  138.39    7.60
   6  -3   0  134.29    8.50
  -6   3   0  131.19    7.70
   6   3   0  106.49    8.30
   7  -3   0   88.59    6.50
   7  -3   0   76.99    6.40
  -7   3   0   76.49    6.10
   7   3   0   83.29    8.30
   8  -3   0   10.30    2.80
   8  -3   0   11.90    3.20
  -8   3   0   13.70    3.30
   8   3   0    5.70    3.10
   9  -3   0   61.09    5.60
  -9   3   0   57.39    6.40
   9   3   0   69.99    8.10
  10  -3   0   20.30    4.10
 -10   3   0   25.40    4.90
  10   3   0   28.10    5.60
  11  -3   0    0.60    2.00
 -11   3   0    0.60    3.00
  11   3   0    1.20    2.80
   1  -4   0  105.29    7.20
  -1  -4   0   85.79    6.30
   1   4   0  103.89    6.30
   2  -4   0  200.28   11.00
  -2  -4   0  184.88    9.50
  -2   4   0  189.68    9.90
   2   4   0  180.78    9.50
   3  -4   0  595.54   25.30
  -3  -4   0  568.14   22.70
  -3   4   0  573.84   24.00
   3   4   0  551.84   23.40
   3   4   0  573.24   21.40
   4  -4   0    9.60    2.90
   4   4   0    5.30    2.00
   4   4   0    6.60    2.00
  -4   4   0    4.70    2.20
   5  -4   0  330.97   16.70
  -5   4   0  338.77   15.90
   5   4   0  331.97   15.20
   5   4   0  323.67   15.20
   6  -4   0  494.65   22.80
  -6   4   0  503.25   22.00
   6   4   0  494.65   21.50
   6   4   0  486.05   21.80
   7  -4   0   27.20    4.60
  -7   4   0   30.50    4.50
   7   4   0   21.40    4.30
   8  -4   0   49.80    6.10
  -8   4   0   51.79    6.00
   8   4   0   43.30    6.20
   9  -4   0   90.49    7.50
   9   4   0   86.39    9.20
  -9   4   0  100.09    8.00
  10  -4   0    4.00    2.50
  10   4   0    2.00    3.10
 -10   4   0    0.30    2.90
   0  -5   0    1.90    2.10
   0   5   0   -1.90    1.60
   1  -5   0  314.77   16.10
  -1  -5   0  292.77   15.10
   1   5   0  322.97   15.10
  -1   5   0  317.27   15.10
   2  -5   0   96.89    7.90
   2   5   0   97.79    7.00
  -2   5   0   98.89    7.30
   3  -5   0    2.30    2.30
  -3   5   0    0.00    2.10
   3   5   0    1.60    2.10
   4  -5   0  291.87   15.80
   4   5   0  277.37   14.10
  -4   5   0  282.37   14.70
   5  -5   0    7.00    3.00
   5   5   0    4.10    2.40
  -5   5   0    4.70    2.60
   6  -5   0    6.70    3.00
   6   5   0    2.70    2.30
  -6   5   0    1.60    2.60
   7  -5   0  306.87   16.80
  -7   5   0  324.87   16.60
   7   5   0  312.07   16.10
   8  -5   0    4.80    2.70
   8   5   0    4.60    3.00
  -8   5   0    5.30    3.00
   9  -5   0    4.90    2.90
   9   5   0    7.80    3.50
  -9   5   0    4.00    3.20
   0   6   0   58.99    6.50
   1  -6   0    0.00    2.20
  -1   6   0    0.40    2.20
   1   6   0   -3.50    1.70
   2  -6   0   34.50    5.70
   2   6   0   42.70    5.50
  -2   6   0   33.80    5.20
   3  -6   0  110.89    9.00
  -3   6   0  104.89    8.50
   3   6   0   95.09    7.70
   4  -6   0   14.70    4.00
   4   6   0   11.40    3.40
  -4   6   0    9.10    3.60
   5  -6   0    0.10    2.30
   5   6   0    3.90    2.60
  -5   6   0    3.80    3.20
   6  -6   0   20.60    4.70
  -6   6   0   20.30    4.70
   6   6   0   20.20    4.40
  13   0  -1    2.40    2.80
 -12   0   1   -1.90    1.90
  12   0  -1   -1.70    2.00
 -11   0   1    0.00    2.10
 -10   0   1   -0.70    1.60
  -9   0   1    1.40    1.70
   9   0  -1    0.40    1.30
   8   0  -1    0.30    1.30
  -8   0   1   -0.30    1.30
   7   0  -1    0.80    1.00
  -7   0   1   -0.30    1.10
  -6   0   1    0.80    1.30
   6   0  -1   -2.60    0.90
   5   0  -1    7.70    1.50
  -5   0   1    1.90    1.20
  -4   0   1    0.80    0.90
   4   0  -1    0.50    0.80
   3   0  -1    5.70    1.20
  -1   0   1    0.40    0.20
   1   0  -1    1.80    0.30
  -1   0   1   -0.20    0.20
   0   0  -1   -1.30    0.30
   1   0   1    1.20    0.50
  -1   0  -1    1.00    0.60
  -2   0  -1    0.40    0.50
   2   0   1    1.40    0.50
   2   0   1    1.50    0.80
   3   0   1    7.70    1.40
   4   0   1   20.10    2.10
  -5   0  -1    1.10    1.00
   5   0   1    2.10    1.00
   6   0   1    0.80    1.10
  -6   0  -1    0.20    1.00
   7   0   1   -0.30    1.00
   7   0   1    1.00    1.60
  -7   0  -1   -0.60    1.10
  -8   0  -1    0.80    1.60
   8   0   1   -1.90    1.00
   8   0   1    3.30    2.50
   9   0   1    0.70    1.40
  -9   0  -1    2.00    1.80
   9   0   1   -0.20    1.80
 -10   0  -1    0.80    1.80
  10   0   1    0.50    2.00
 -11   0  -1   -0.60    2.00
  11   0   1   -2.50    1.70
  12   0   1   -0.70    2.30
  13   0   1    0.10    2.50
  13  -1  -1  103.99   10.90
 -13   1   1  120.69    8.60
  13   1  -1   97.39   10.80
 -12  -1   1    1.50    2.50
  12  -1  -1    0.80    2.50
 -12   1   1   -0.50    2.10
  12   1  -1   -0.30    1.90
 -11  -1   1  163.58    9.80
  11  -1  -1  132.59   10.50
 -11   1   1  160.78    9.50
  11   1  -1  144.99   11.10
 -10  -1   1  258.87   13.30
  10  -1  -1  249.58   12.40
 -10   1   1  276.57   13.40
   9  -1  -1    2.10    1.40
  -9  -1   1    5.40    2.30
  -9   1   1   -0.10    1.70
   8  -1  -1  234.88   10.70
  -8  -1   1  199.68   10.90
  -8   1   1  216.68   11.10
  -7  -1   1  324.57   15.00
   7  -1  -1  347.87   14.80
  -7   1   1  352.96   15.50
   7   1  -1  336.27   13.10
  -6  -1   1  230.28   10.30
   6  -1  -1  226.98   10.30
  -6   1   1  212.28   10.60
   6   1  -1  200.88    8.40
   5  -1  -1  820.82   30.70
  -5  -1   1  796.62   30.70
   5   1  -1  792.62   28.70
  -5   1   1  804.62   31.10
  -4  -1   1 1302.57   45.90
   4  -1  -1 1304.57   47.70
  -4  -1   1 1301.67   47.90
  -4   1   1 1308.87   48.20
   3  -1  -1 1573.84   55.49
  -3   1   1 1502.45   55.99
   1  -1  -1 1288.17   43.80
  -1  -1   1 1316.77   45.60
   1  -1  -1 1328.97   46.10
  -1   1   1 1275.27   46.70
   1   1  -1 1322.37   45.70
  -1   1   1 1211.28   43.80
   0  -1  -1  981.70   34.60
   0  -1  -1  970.50   33.00
   0  -1   1  908.31   34.80
   0  -1   1  987.00   32.90
   0   1  -1  986.50   32.90
   0   1   1  972.70   33.00
   0   1   1  974.30   35.10
   1  -1   1 2828.12  109.19
  -1  -1  -1 3176.08  108.89
   1  -1   1 3150.08  104.79
  -1   1  -1 3021.10  104.59
   1   1   1 3090.49  104.89
   1   1   1 3139.39  110.19
  -1   1  -1 3220.88  110.29
   2  -1   1 1242.18   42.80
   2   1   1 1238.58   43.50
  -2   1  -1 1225.18   44.80
   3  -1   1   55.99    3.70
   3  -1   1   56.89    3.70
   3   1   1   50.59    3.90
  -3   1  -1   57.29    3.20
   3   1   1   57.09    2.60
   4  -1   1  738.23   27.60
  -4   1  -1  702.73   27.20
   4   1   1  727.73   26.00
   5  -1   1  438.36   17.40
   5  -1   1  397.86   17.90
   5   1   1  420.16   15.80
  -5   1  -1  432.36   17.20
   6  -1   1  105.49    6.10
   6  -1   1   99.49    7.00
  -6  -1  -1  108.09    5.80
  -6   1  -1  102.79    6.20
   6   1   1  106.09    4.90
   6   1   1   92.29    7.20
   7  -1   1  875.01   32.10
   7  -1   1  859.01   33.50
  -7  -1  -1  795.92   31.80
  -7   1  -1  812.02   32.20
   7   1   1  799.72   30.30
   7   1   1  805.22   33.70
   8  -1   1  107.19    6.30
  -8  -1  -1   92.49    6.20
   8  -1   1   93.09    7.70
   8   1   1  101.29    8.40
  -8   1  -1   97.69    6.40
  -9  -1  -1  189.58   10.30
   9  -1   1  203.78   12.50
   9  -1   1  191.78   10.10
  -9   1  -1  210.38   10.50
   9   1   1  208.08   13.00
  10  -1   1  124.49    9.60
 -10  -1  -1  114.59    7.60
  10  -1   1  116.79    7.30
 -10   1  -1  110.29    7.40
  10   1   1  111.59    9.50
  11  -1   1    7.20    3.20
 -11   1  -1    4.40    2.60
  11   1   1    8.10    3.50
  12  -1   1   70.29    8.30
  12   1   1   68.09    8.60
  13  -1   1   30.10    5.80
  13   1   1   34.40    6.30
  12  -2  -1  152.28    9.40
  12  -2  -1  166.98   12.00
 -12   2   1  154.58   10.20
  12   2  -1  168.18   12.60
  11  -2  -1   37.40    6.00
  11  -2  -1   31.20    4.50
 -11   2   1   39.80    5.30
  11   2  -1   26.70    5.30
  10  -2  -1  113.89    7.40
  10  -2  -1  111.39    8.70
 -10   2   1   99.99    7.70
   9  -2  -1  386.06   17.30
  -9   2   1  376.06   18.10
   8  -2  -1   62.99    5.20
  -8   2   1   51.89    5.60
   7  -2  -1   18.30    3.00
  -7   2   1   13.30    2.80
   6  -2  -1  532.85   21.80
  -6   2   1  495.95   21.10
   5  -2  -1  252.07   12.10
  -5   2   1  258.57   11.50
   4  -2  -1  959.40   36.10
  -4   2   1  933.11   35.80
  -3  -2   1 2280.77   80.09
   3  -2  -1 2305.67   82.29
  -3   2   1 2248.08   82.89
   2  -2  -1 1688.03   60.19
  -2  -2   1 1630.04   59.09
  -1  -2   1  431.46   16.80
   1  -2  -1  434.86   14.80
   0  -2  -1 2004.00   69.89
   0  -2   1 1820.12   70.39
   0   2   1 2038.80   66.29
  -1  -2  -1  134.39    5.80
   1   2   1  126.49    5.20
  -1   2  -1  132.79    6.10
  -2  -2  -1 2744.63   96.19
   2  -2   1 2702.53   92.29
   2  -2   1 2731.13   98.09
  -2   2  -1 2724.13   98.39
   2   2   1 2725.83   93.59
  -3  -2  -1 1680.73   59.19
   3  -2   1 1668.23   57.69
   3  -2   1 1699.73   61.59
   3   2   1 1664.23   59.19
  -3   2  -1 1642.84   61.19
   4  -2   1  110.69    6.10
  -4  -2  -1  127.19    5.00
   4  -2   1  136.69    7.30
  -4   2  -1  115.19    6.20
   4   2   1  109.69    7.10
   5  -2   1  456.15   18.80
   5  -2   1  488.45   19.70
  -5   2  -1  458.95   18.70
   5   2   1  440.76   20.00
   6  -2   1 1214.08   45.70
   6  -2   1 1303.47   46.90
   6   2   1 1109.29   46.70
  -6   2  -1 1283.87   46.50
   7  -2   1   28.20    4.40
   7  -2   1   26.40    3.70
  -7   2  -1   20.70    3.20
   7   2   1   20.20    4.10
   8  -2   1  996.60   38.30
   8  -2   1 1021.40   38.90
   8   2   1  921.61   39.70
  -8   2  -1  964.20   38.60
   9  -2   1  526.25   23.50
   9  -2   1  516.25   22.10
  -9   2  -1  488.65   22.40
   9   2   1  526.85   24.80
  10  -2   1   27.60    4.00
  10  -2   1   30.50    5.20
 -10   2  -1   30.00    4.50
  10   2   1   27.30    5.60
  11  -2   1  156.98    9.50
  11  -2   1  163.68   11.20
  11   2   1  145.09   11.60
 -11   2  -1  166.68   10.00
  12  -2   1   80.69    6.60
  12  -2   1   72.89    8.40
  12   2   1   79.29    9.50
  12  -3  -1   23.30    4.20
 -12   3   1   21.40    4.90
  12   3  -1   27.10    5.80
  11  -3  -1   87.89    7.10
  11   3  -1   96.89   10.10
 -11   3   1   96.89    8.40
  10  -3  -1  194.58   11.30
  10   3  -1  207.48   13.60
 -10   3   1  194.38   12.20
   9  -3  -1    5.10    2.40
   9   3  -1    8.20    3.20
  -9   3   1    5.40    2.80
   8  -3  -1  145.49    9.30
   8  -3  -1  146.89    9.40
  -8   3   1  143.39    9.10
   7  -3  -1  347.17   17.10
   7  -3  -1  364.66   16.50
  -7   3   1  372.36   16.70
   6  -3  -1  140.49    8.90
  -6   3   1  140.99    8.20
   5  -3  -1  285.77   14.00
  -4  -3   1 1038.60   37.20
  -4   3   1 1050.89   40.20
   3  -3  -1   21.20    3.10
  -3  -3   1   18.90    2.00
  -3   3   1   21.10    3.00
   3   3  -1   17.60    2.60
  -2  -3   1 1295.97   51.79
   2  -3  -1 1546.95   53.49
   2   3  -1 1444.16   52.99
   1  -3  -1 1560.84   56.69
  -1   3   1 1540.75   56.89
   1   3  -1 1533.55   56.79
   1   3  -1 1518.65   52.89
   0  -3   1   60.29    4.60
   0  -3  -1   62.79    4.20
   0   3   1   50.89    3.90
   1  -3   1 2507.45   92.09
  -1  -3  -1 2559.24   90.79
  -1   3  -1 2548.84   92.19
   1   3   1 2505.55   91.99
   1   3   1 2542.45   86.09
   2  -3   1 1077.89   40.00
   2   3   1 1006.40   36.00
   2   3   1 1006.40   38.60
  -2   3  -1 1024.70   38.90
   3  -3   1   21.20    1.40
  -3  -3  -1   22.70    2.10
   3  -3   1   20.80    3.30
  -3   3  -1   20.30    2.90
   3   3   1   22.10    2.70
   3   3   1   24.10    2.80
  -4  -3  -1  517.85   21.20
   4  -3   1  590.84   20.60
  -4   3  -1  594.14   23.50
   4   3   1  581.84   22.90
   4   3   1  588.84   22.90
   5  -3   1  994.20   35.10
  -5   3  -1 1017.50   38.10
   5   3   1  914.21   37.30
   6  -3   1   21.30    3.60
   6  -3   1   19.40    2.80
   6   3   1   25.80    4.20
  -6   3  -1   19.20    3.10
   7  -3   1  654.93   26.50
   7  -3   1  698.83   28.30
  -7   3  -1  692.13   27.80
   7   3   1  647.24   28.80
   8  -3   1  242.18   12.80
   8  -3   1  240.58   12.40
  -8   3  -1  241.88   12.60
   8   3   1  248.08   14.40
   9  -3   1   21.90    4.00
   9   3   1   34.10    5.70
  -9   3  -1   30.20    4.60
  10  -3   1  182.08   10.70
  10   3   1  153.28   11.90
 -10   3  -1  183.18   11.40
  11  -3   1   25.30    4.20
 -11   3  -1   24.30    4.90
  11   3   1   23.40    5.30
  10  -4  -1    9.60    3.10
  10   4  -1    3.40    3.30
 -10   4   1    8.00    3.80
   9  -4  -1   30.10    5.10
   9   4  -1   30.20    5.50
  -9   4   1   27.80    5.00
   8  -4  -1   46.90    6.00
  -8   4   1   41.80    5.60
   8   4  -1   43.50    6.20
   7  -4  -1    0.40    2.00
  -7   4   1    1.90    2.10
   7   4  -1    0.00    1.90
   6  -4  -1  129.59    9.00
  -6   4   1  127.79    8.40
   6   4  -1  114.29    8.70
   5  -4  -1   -1.30    1.60
  -5   4   1    3.00    2.30
   5   4  -1   -0.90    1.60
   5   4  -1    0.40    1.50
   4  -4  -1   48.80    5.70
  -4   4   1   43.50    5.00
   4   4  -1   55.99    4.70
   4   4  -1   42.40    4.60
  -3  -4   1  109.89    6.10
   3  -4  -1  102.19    7.70
   3   4  -1  112.79    6.20
   3   4  -1  116.99    7.00
  -3   4   1  117.29    7.40
   2  -4  -1    6.20    2.40
  -2  -4   1    0.90    1.60
   2   4  -1   -2.20    1.20
  -2   4   1   -0.50    0.90
   0  -4  -1  113.79    7.20
   0  -4   1  101.89    7.20
   0   4   1  113.59    6.80
   1  -4   1    7.50    2.50
  -1  -4  -1   12.80    2.70
  -1   4  -1    6.80    2.10
   1   4   1   10.90    2.50
  -2  -4  -1  220.98   11.30
   2  -4   1  247.58   13.10
  -2   4  -1  252.97   12.10
   2   4   1  265.57   11.90
  -3  -4  -1   43.50    4.00
   3  -4   1   51.89    5.90
  -3   4  -1   40.00    4.60
   3   4   1   50.09    3.30
   3   4   1   51.79    4.50
   4  -4   1   10.50    3.00
  -4   4  -1    8.10    2.50
   4   4   1    9.10    2.30
   4   4   1    8.90    2.00
   5  -4   1   67.19    6.40
  -5   4  -1   75.59    6.30
   5   4   1   81.69    5.90
   5   4   1   83.69    5.90
   6  -4   1   55.49    6.30
  -6   4  -1   49.30    5.60
   6   4   1   58.49    5.20
   6   4   1   60.39    6.10
   7  -4   1   55.99    6.30
  -7   4  -1   61.19    6.30
   7   4   1   46.00    5.90
   7   4   1   56.59    5.30
   8  -4   1   50.49    6.20
  -8   4  -1   55.79    6.20
   8   4   1   50.69    6.50
   9  -4   1   24.70    4.40
  -9   4  -1   17.40    4.20
   9   4   1   21.70    4.70
  10  -4   1    0.50    2.00
  10   4   1    4.10    2.90
 -10   4  -1   -2.50    2.50
   9  -5  -1    1.60    2.30
   9   5  -1    1.80    2.60
  -9   5   1   -2.40    2.40
   8  -5  -1   -1.10    2.20
  -8   5   1    0.40    2.70
   8   5  -1    3.30    2.70
   7  -5  -1    2.00    2.60
   7   5  -1    2.30    2.40
  -7   5   1    1.70    2.90
   6  -5  -1   15.00    3.90
   6   5  -1   11.80    3.30
  -6   5   1   13.60    3.80
   5  -5  -1   30.70    5.20
  -5   5   1   31.50    4.90
   5   5  -1   38.40    5.00
   4  -5  -1   -2.10    2.40
   4   5  -1    1.30    2.00
  -4   5   1    0.00    2.20
   3  -5  -1    4.80    2.60
   3   5  -1    1.80    2.10
  -3   5   1    3.00    2.50
   2  -5  -1   11.30    3.50
  -2   5   1   18.40    3.70
   2   5  -1   15.30    3.30
   1  -5  -1    8.00    3.10
  -1  -5   1    6.30    2.40
  -1   5   1    8.80    2.90
   1   5  -1    3.20    2.20
   0  -5   1    5.10    2.40
   0  -5  -1    3.90    2.30
   0   5   1    1.00    2.10
   0   5  -1    3.80    2.30
   1  -5   1   17.80    3.90
  -1  -5  -1   23.70    4.00
   1   5   1   25.60    4.00
  -1   5  -1   24.60    4.00
   2  -5   1    5.90    2.70
   2   5   1    6.10    2.50
  -2   5  -1    4.50    2.40
   3  -5   1    0.90    2.20
  -3   5  -1   -0.90    1.80
   3   5   1   -0.20    1.70
   4  -5   1   22.10    4.50
  -4   5  -1   24.60    4.20
   4   5   1   22.00    3.80
   5  -5   1    0.90    2.30
  -5   5  -1    5.70    2.90
   5   5   1    2.30    2.20
   6  -5   1   16.10    3.90
   6   5   1   14.20    3.40
  -6   5  -1   16.10    4.00
   7  -5   1    4.60    2.60
   7   5   1   10.30    3.30
  -7   5  -1    3.70    3.00
   8  -5   1    6.90    3.20
  -8   5  -1    4.50    3.10
   8   5   1    4.30    2.90
   9  -5   1   -0.60    2.30
   9   5   1    1.50    2.70
  -9   5  -1   -0.40    2.80
   6  -6  -1   47.10    6.90
   6   6  -1   40.40    5.80
  -6   6   1   38.50    6.20
   5  -6  -1   17.80    4.40
  -5   6   1   12.40    4.00
   5   6  -1   14.00    3.80
   4  -6  -1   17.60    4.40
  -4   6   1   15.70    4.20
   4   6  -1   20.20    4.20
   3  -6  -1   78.89    8.60
  -3   6   1   88.39    7.70
   3   6  -1   81.39    7.00
   2  -6  -1    1.40    2.60
   2   6  -1   -2.00    1.90
  -2   6   1   -0.20    2.30
   1  -6  -1    9.40    3.40
  -1   6   1    9.10    3.20
   1   6  -1    5.50    2.70
   0  -6  -1  107.19    8.70
   0   6  -1  113.79    8.20
   0   6   1  113.49    8.30
   1  -6   1    4.00    2.60
   1   6   1    8.20    2.80
  -1   6  -1   -0.30    2.20
   2  -6   1   50.99    6.40
  -2   6  -1   44.80    6.00
   2   6   1   51.89    6.10
   3  -6   1  166.48   11.30
  -3   6  -1  169.18   11.00
   3   6   1  154.98   10.10
   4  -6   1   12.10    3.60
   4   6   1   12.50    3.50
  -4   6  -1    5.50    3.20
   5  -6   1    9.50    3.70
   5   6   1   10.70    3.40
  -5   6  -1    9.10    3.70
   6  -6   1   51.69    6.90
  -6   6  -1   42.50    6.40
   6   6   1   41.60    5.80
 -13   0   2   18.90    4.20
  13   0  -2   16.40    4.60
 -12   0   2  422.96   19.70
 -11   0   2  471.35   21.20
 -10   0   2   37.90    4.90
  -9   0   2  418.56   18.50
   9   0  -2  405.96   16.80
   8   0  -2  200.78    9.20
  -8   0   2  202.28   10.50
  -7   0   2  208.98   10.60
   7   0  -2  215.98    9.50
   6   0  -2 2788.82   97.59
  -6   0   2 2681.23   99.99
  -5   0   2 2244.58   81.89
   5   0  -2 2225.18   79.59
  -4   0   2 1629.34   61.49
   4   0  -2 1714.33   59.59
  -3   0   2 1088.59   40.40
   2   0  -2   69.19    3.00
  -2   0   2   62.09    3.60
  -1   0   2  257.27    9.20
   0   0   2 2540.75   81.39
   0   0   2 2075.99   76.49
   0   0   2 2151.08   79.29
   1   0   2  203.58    7.70
   1   0   2  202.08    8.00
   2   0   2 1940.71   66.49
  -2   0  -2 1763.22   66.99
   2   0   2 1920.81   64.49
   3   0   2 2093.89   74.09
  -3   0  -2 2077.69   76.49
   3   0   2 2215.88   75.69
  -4   0  -2   29.00    2.40
   4   0   2   26.30    3.50
   4   0   2   34.00    2.50
  -5   0  -2 1353.36   48.30
   5   0   2 1319.37   47.70
   5   0   2 1242.08   48.30
   6   0   2 3447.05  122.99
   6   0   2 3240.08  121.49
  -6   0  -2 3663.93  124.79
   7   0   2  363.16   17.80
  -7   0  -2  379.66   15.60
   7   0   2  359.06   15.30
   8   0   2 1021.70   39.80
  -8   0  -2 1105.99   40.60
   8   0   2 1048.90   42.40
  -9   0  -2  229.68   11.10
   9   0   2  225.18   13.70
   9   0   2  219.78   10.80
 -10   0  -2   18.50    3.30
  10   0   2   18.70    4.40
  11   0   2  159.38   11.70
  12   0   2   52.89    7.40
  13  -1  -2  140.99   11.60
  13   1  -2  149.29   11.90
 -13   1   2  163.18   10.20
 -12  -1   2   -0.50    2.40
 -12   1   2    0.70    2.30
 -11  -1   2  250.97   13.40
 -11   1   2  245.28   13.00
 -10  -1   2  472.25   20.80
  10  -1  -2  444.36   19.30
 -10   1   2  453.65   20.40
   9  -1  -2  130.39    7.40
  -9  -1   2  123.39    8.10
  -9   1   2  128.79    8.10
  -8  -1   2  346.77   16.40
   8  -1  -2  370.56   15.90
  -8   1   2  369.16   16.60
   7  -1  -2  965.60   36.40
  -7  -1   2  883.81   36.90
  -7   1   2 1000.00   37.60
   7   1  -2  959.80   34.40
   6  -1  -2    5.20    1.50
  -6  -1   2    2.30    1.40
   6   1  -2    3.10    0.80
  -6   1   2    3.90    1.80
  -5  -1   2 2320.97   83.09
   5  -1  -2 2251.27   81.79
   5   1  -2 2231.38   79.99
  -5   1   2 2300.47   83.59
   4  -1  -2  415.56   16.50
  -4  -1   2  425.26   16.80
  -4   1   2  425.66   17.20
  -2  -1   2 8544.04  294.57
   2   1  -2 8346.67  294.77
  -2   1   2 8305.47  301.97
  -1  -1   2   22.20    1.30
  -1  -1   2   20.00    1.20
   1  -1  -2   20.00    1.50
  -1   1   2   17.60    1.10
  -1   1   2   19.10    1.60
   0  -1   2   66.19    2.70
   0  -1   2   66.99    3.20
   0  -1  -2   67.99    3.10
   0   1  -2   70.29    3.20
   0   1   2   65.49    2.80
   0   1  -2   66.19    2.70
   0   1   2   59.69    3.00
   1  -1   2 7012.90  268.87
   1  -1   2 7895.81  258.87
   1   1   2 7677.33  259.77
  -1   1  -2 7830.82  272.57
   1   1   2 7635.74  272.67
   2  -1   2    1.00    0.50
   2  -1   2   -0.10    0.30
  -2   1  -2    2.30    0.70
   2   1   2    2.60    0.80
   3  -1   2  153.18    6.70
   3  -1   2  142.09    7.00
  -3   1  -2  140.09    6.40
   3   1   2  156.38    7.30
   3   1   2  148.39    6.00
   4  -1   2 1842.42   63.89
   4  -1   2 1784.52   65.59
  -4   1  -2 1790.92   65.69
   4   1   2 1764.32   64.59
   4   1   2 1863.01   64.29
   5  -1   2  118.79    7.30
   5  -1   2  123.89    6.50
   5   1   2  103.99    7.50
  -5   1  -2  116.19    6.10
   5   1   2  117.59    5.30
   6  -1   2   39.60    3.50
   6  -1   2   35.20    4.60
  -6   1  -2   39.20    3.60
   6   1   2   42.70    2.80
   6   1   2   43.40    5.40
   7  -1   2 1207.58   47.00
   7  -1   2 1295.17   46.40
   7   1   2 1105.49   47.30
   7   1   2 1234.28   44.90
  -7   1  -2 1290.27   46.80
   8  -1   2   24.20    3.40
   8  -1   2   29.10    4.80
   8   1   2   24.70    4.70
  -8   1  -2   28.90    3.70
   8   1   2   32.70    2.90
   9  -1   2  479.55   22.40
   9  -1   2  481.35   20.10
   9   1   2  441.46   22.60
  -9   1  -2  468.95   20.00
  10  -1   2  143.19   10.50
  10  -1   2  148.49    8.60
  10   1   2  156.48   11.30
 -10   1  -2  150.78    8.70
  11  -1   2   49.50    6.90
  11   1   2   61.89    7.90
  12  -1   2   26.40    5.30
  12   1   2   24.70    5.20
  12  -2  -2    0.40    2.80
  12  -2  -2    2.00    2.10
 -12   2   2    3.20    2.70
  12   2  -2    2.50    2.90
  11  -2  -2    6.30    2.40
 -11   2   2    7.00    2.90
  10  -2  -2   22.80    3.70
 -10   2   2   24.70    4.40
   9  -2  -2    8.40    2.60
  -9   2   2    8.40    3.00
   8  -2  -2   11.80    2.90
  -8   2   2   12.60    3.10
   7  -2  -2   13.80    2.80
  -7   2   2    7.00    2.40
   6  -2  -2  276.97   13.00
  -6   2   2  274.47   12.80
   5  -2  -2  514.35   20.80
  -5   2   2  494.05   20.50
   4  -2  -2    6.30    1.60
  -4   2   2    6.90    1.70
  -3  -2   2 1112.19   39.40
   3   2  -2 1122.09   39.40
   2  -2  -2  339.97   13.70
  -2  -2   2  341.67   12.60
  -2   2   2  324.77   13.80
  -1   2   2  664.23   25.20
   0  -2   2  482.65   17.00
   0  -2   2  502.45   19.10
   0  -2  -2  420.46   18.50
   0   2  -2  506.95   17.00
   0   2   2  530.65   17.30
   0   2  -2  508.05   19.00
   1  -2   2   11.30    2.00
   1  -2   2   16.80    1.00
  -1  -2  -2   15.60    1.70
  -1   2  -2   15.20    1.10
   1   2   2   16.50    1.40
  -1   2  -2   16.40    1.90
   2  -2   2    3.10    0.60
   2  -2   2    2.60    1.30
  -2  -2  -2    4.60    0.90
  -2   2  -2    3.50    1.10
   2   2   2    3.20    0.90
   2   2   2    1.00    0.60
   3  -2   2  208.78    8.20
  -3  -2  -2  213.68    8.40
   3  -2   2  210.08   10.10
   3   2   2  208.08    9.40
  -3   2  -2  198.88    9.20
   4  -2   2    3.10    1.40
   4   2   2    2.40    1.50
  -4   2  -2    3.90    1.40
   5  -2   2   27.60    3.20
   5  -2   2   28.10    3.60
   5   2   2   24.70    3.80
  -5   2  -2   30.60    3.20
   6  -2   2  151.88    8.40
   6  -2   2  135.89    8.00
   6   2   2  131.99    9.10
  -6   2  -2  145.79    7.50
   7  -2   2   26.50    3.80
   7  -2   2   26.90    4.00
  -7   2  -2   32.10    3.80
   7   2   2   27.20    4.70
   8  -2   2   51.59    5.30
   8  -2   2   57.29    6.20
  -8   2  -2   46.70    5.10
   8   2   2   39.70    6.00
   9  -2   2   13.80    3.10
   9  -2   2   17.40    3.80
  -9   2  -2    8.40    2.80
   9   2   2   10.90    3.80
  10  -2   2    0.20    1.60
  10  -2   2    2.50    2.30
  10   2   2    0.20    2.00
 -10   2  -2   -0.80    2.00
  11  -2   2    6.30    2.50
  11  -2   2    6.90    3.20
  11   2   2    2.70    2.80
  12  -2   2    4.60    2.90
  12  -2   2   -1.20    1.70
  12   2   2   -1.60    2.40
  12  -3  -2   20.70    4.10
  12   3  -2   30.20    5.90
 -12   3   2   26.80    5.20
  11  -3  -2   -2.10    1.40
  11   3  -2   -0.60    2.00
 -11   3   2   -1.20    2.60
  10  -3  -2   43.40    5.60
 -10   3   2   39.80    5.80
   9  -3  -2    0.70    1.80
  -9   3   2    0.30    2.10
   8  -3  -2  118.49    8.30
  -8   3   2  121.79    8.20
   7  -3  -2  123.49    8.40
  -7   3   2  123.79    7.90
   6  -3  -2   37.20    4.70
  -6   3   2   42.30    4.60
   5  -3  -2   14.10    2.80
  -5   3   2   19.40    3.10
  -4  -3   2  188.78    7.30
  -4   3   2  202.38    9.90
   3  -3  -2   61.79    4.70
  -3  -3   2   65.29    3.40
   2  -3  -2  184.78    8.80
   2  -3  -2  164.68    6.10
   2   3  -2  166.88    8.20
  -2   3   2  159.48    8.40
   1  -3  -2  189.28    7.10
   1  -3  -2  195.18    9.20
  -1  -3   2  183.78    8.80
  -1   3   2  193.28    9.10
  -1   3   2  190.98    6.80
   0  -3  -2    9.60    1.80
   0  -3   2    8.90    2.10
   0   3   2    7.60    0.80
   0   3  -2    3.60    1.60
   0   3   2    6.50    1.60
  -1  -3  -2   17.30    2.30
   1  -3   2    9.20    2.40
   1   3   2   14.20    2.20
   1   3   2   15.00    1.40
  -1   3  -2   16.10    2.40
  -2  -3  -2   22.30    2.40
   2  -3   2   23.20    3.50
   2   3   2   15.90    2.30
  -2   3  -2   25.30    3.00
   2   3   2   24.20    2.00
   3  -3   2  140.89    8.10
   3  -3   2  126.99    5.10
   3   3   2  123.89    6.60
  -3   3  -2  128.09    7.00
   3   3   2  125.39    6.20
  -4  -3  -2  889.21   33.60
   4  -3   2  935.71   32.30
   4   3   2  911.01   35.10
  -4   3  -2  943.81   35.80
   4   3   2  926.91   34.10
   5  -3   2  120.59    5.70
   5  -3   2   95.29    7.00
   5   3   2  118.69    6.70
  -5   3  -2  118.19    7.00
   5   3   2  121.09    7.40
   6  -3   2    4.20    2.00
   6  -3   2    8.10    1.80
  -6   3  -2    2.90    2.00
   6   3   2    8.40    2.60
   7  -3   2  106.59    6.70
   7  -3   2  109.49    7.80
  -7   3  -2  118.39    7.40
   7   3   2  110.59    8.50
   8  -3   2    9.50    2.90
  -8   3  -2   13.30    3.00
   8   3   2   10.50    3.40
   9  -3   2   -1.20    1.50
  -9   3  -2    3.30    2.50
   9   3   2    1.70    2.30
  10  -3   2  101.89    7.70
  10   3   2  106.89    9.30
 -10   3  -2  103.09    8.30
  11  -3   2   -0.50    1.90
  11   3   2    0.80    2.60
  11  -4  -2   33.90    5.30
 -11   4   2   35.30    6.30
  11   4  -2   23.30    5.40
  10  -4  -2   13.80    3.70
  10   4  -2   10.90    4.10
 -10   4   2   13.20    4.10
   9  -4  -2  317.57   16.90
   9   4  -2  310.87   17.70
  -9   4   2  335.57   17.00
   8  -4  -2   35.40    5.30
  -8   4   2   28.70    4.70
   8   4  -2   29.70    5.20
   7  -4  -2   70.89    7.50
  -7   4   2   62.99    5.90
   6  -4  -2  418.26   20.60
  -6   4   2  458.05   20.20
   5  -4  -2   85.99    7.00
  -5   4   2   82.99    6.50
   5   4  -2   83.89    6.20
   4  -4  -2  143.89    9.20
  -4   4   2  146.49    8.80
   4   4  -2  147.69    8.40
   3  -4  -2  697.93   29.00
  -3  -4   2  699.33   26.30
  -3   4   2  658.83   28.30
   3   4  -2  724.33   28.20
   2  -4  -2   -0.70    1.40
  -2  -4   2    1.60    1.30
   2   4  -2    0.00    0.80
  -2   4   2   -0.60    1.00
   1  -4  -2  768.02   29.90
  -1  -4   2  720.33   29.20
  -1   4   2  747.33   29.80
   0  -4   2  454.45   19.80
   0  -4  -2  457.35   19.50
   0   4  -2  473.35   19.60
   0   4   2  458.15   19.40
  -1  -4  -2   98.29    6.30
   1  -4   2  103.79    7.20
  -1   4  -2  106.99    6.60
   1   4   2  104.99    6.40
   2  -4   2  227.28   12.30
  -2  -4  -2  227.48   10.90
  -2   4  -2  234.38   11.40
   2   4   2  244.28    9.20
   2   4   2  228.58   11.20
  -3  -4  -2   83.89    5.50
   3  -4   2   91.49    7.10
   3   4   2   88.79    4.80
   3   4   2   91.19    6.00
  -3   4  -2   97.09    6.50
   4  -4   2    3.10    2.00
   4   4   2   -0.40    1.50
  -4   4  -2    0.20    1.60
   4   4   2   -1.10    1.20
   5  -4   2  242.38   13.00
   5   4   2  218.78   11.40
  -5   4  -2  219.88   12.00
   5   4   2  241.48   11.00
   6  -4   2    3.30    2.30
   6   4   2    7.00    2.40
   6   4   2    1.80    2.00
  -6   4  -2    3.20    2.40
   7  -4   2    0.80    1.80
  -7   4  -2   -0.40    2.00
   7   4   2   -0.70    1.70
   7   4   2    1.30    1.90
   8  -4   2   95.69    7.80
   8   4   2   93.59    7.80
   8   4   2  100.09    7.30
  -8   4  -2   92.39    7.40
   9  -4   2   15.20    3.80
  -9   4  -2   15.50    4.00
   9   4   2   18.20    4.30
  10  -4   2    3.70    2.50
 -10   4  -2    7.60    3.50
  10   4   2    4.00    2.80
   9  -5  -2    1.10    2.40
  -9   5   2    1.70    2.90
   9   5  -2    2.60    2.60
   8  -5  -2  125.39    9.90
  -8   5   2  124.29    9.50
   8   5  -2  133.19    9.40
   7  -5  -2   50.09    6.70
  -7   5   2   47.50    6.30
   7   5  -2   46.90    6.00
   6  -5  -2    3.10    2.50
   6   5  -2   -1.70    1.80
  -6   5   2   -0.50    2.20
   5  -5  -2  296.67   16.10
   5   5  -2  288.47   14.60
  -5   5   2  265.57   14.70
   4  -5  -2  362.46   18.70
  -4   5   2  362.36   17.90
   4   5  -2  376.06   17.40
   3  -5  -2   10.80    3.10
   3   5  -2    3.20    2.20
  -3   5   2    6.10    2.50
   2  -5  -2  452.05   21.40
  -2   5   2  474.75   20.90
   2   5  -2  452.95   20.30
  -1  -5   2  124.99    7.80
   1  -5  -2  124.89    8.70
  -1   5   2  117.99    8.10
   1   5  -2  130.29    8.20
   0  -5   2   24.80    3.90
   0  -5  -2   32.00    4.60
   0   5   2   28.80    4.20
   0   5  -2   28.80    4.30
  -1  -5  -2  256.37   13.40
   1  -5   2  242.28   13.50
  -1   5  -2  277.37   13.40
   1   5   2  273.67   13.30
   2  -5   2   97.69    7.70
  -2   5  -2   96.99    7.20
   2   5   2   97.09    6.90
   3  -5   2   42.40    5.60
   3   5   2   35.00    4.50
  -3   5  -2   36.60    4.90
   4  -5   2  268.87   15.20
  -4   5  -2  285.57   14.70
   4   5   2  295.57   14.20
   5  -5   2   43.70    5.90
   5   5   2   30.30    4.40
  -5   5  -2   35.70    5.10
   6  -5   2   14.30    3.80
  -6   5  -2   15.30    3.80
   6   5   2   18.70    3.60
   7  -5   2  112.39    8.90
   7   5   2  118.19    8.50
  -7   5  -2  110.39    8.60
   8  -5   2   34.90    5.60
  -8   5  -2   32.30    5.20
   8   5   2   28.80    5.10
   6  -6  -2   29.90    5.60
   6   6  -2   24.60    4.60
  -6   6   2   21.00    4.90
   5  -6  -2    0.40    2.40
   5   6  -2   -2.40    1.90
  -5   6   2   -1.70    2.60
   4  -6  -2    2.90    2.90
   4   6  -2   -0.20    2.00
  -4   6   2    1.80    2.60
   3  -6  -2  130.69   10.30
  -3   6   2  132.49    9.50
   3   6  -2  118.79    8.70
   2  -6  -2   10.50    3.70
  -2   6   2    5.50    3.00
   2   6  -2   10.40    3.30
   1  -6  -2    6.70    3.30
   1   6  -2   29.20    4.70
  -1   6   2    5.20    2.80
   0  -6  -2    9.50    3.60
   0   6  -2   17.10    3.70
   0   6   2   21.60    4.20
   1  -6   2   -0.80    1.80
  -1   6  -2    0.40    2.20
   1   6   2   -2.20    1.70
   2  -6   2    2.20    2.40
  -2   6  -2    2.10    2.70
   2   6   2    0.80    2.20
   3  -6   2   19.90    4.40
  -3   6  -2   27.90    5.00
   3   6   2   17.30    3.90
   4  -6   2   13.00    3.80
   4   6   2    9.30    3.30
  -4   6  -2   10.00    3.70
   5  -6   2   15.10    4.30
   5   6   2   14.90    3.80
  -5   6  -2   21.90    4.90
   6  -6   2   -1.60    2.30
  -6   6  -2   -2.20    2.70
 -13   0   3   -1.10    2.20
 -12   0   3   -1.40    2.00
 -11   0   3    2.10    2.20
 -10   0   3   -1.50    1.80
  -9   0   3    1.30    1.70
   9   0  -3    0.60    1.30
   8   0  -3    1.50    1.20
  -8   0   3    0.80    1.50
  -7   0   3   -0.80    1.20
   7   0  -3    1.00    1.00
  -6   0   3   -0.40    1.20
   6   0  -3    2.30    1.10
  -5   0   3   -1.10    1.00
   5   0  -3    0.00    0.90
  -4   0   3   -0.20    0.60
   4   0  -3    3.50    0.70
   3   0  -3    1.20    0.50
  -3   0   3   -0.20    0.50
  -2   0   3   -6.40    0.40
  -2   0   3   -5.30    0.80
  -1   0   3   -0.10    0.30
  -1   0   3    0.20    0.50
   0   0   3   -1.30    0.30
   0   0   3   -0.80    0.40
   0   0   3   -0.60    0.30
   1   0   3   -3.10    0.60
   2   0   3    0.40    0.50
   2   0   3    0.50    0.60
  -3   0  -3    0.40    0.60
   3   0   3    5.00    1.10
   3   0   3    0.00    0.50
  -4   0  -3    0.90    0.80
   4   0   3    0.90    1.20
   4   0   3    2.60    1.10
   5   0   3    0.80    1.30
   5   0   3   -0.20    0.90
  -5   0  -3   -0.80    0.80
   6   0   3   -1.30    1.00
  -6   0  -3   -0.40    1.00
   6   0   3   -1.10    1.30
  -7   0  -3    0.50    1.10
   7   0   3   -0.40    1.30
   7   0   3    1.90    1.30
  -8   0  -3    0.80    1.50
   8   0   3   -2.20    1.60
   8   0   3    0.30    1.40
   9   0   3    0.10    1.50
   9   0   3    1.90    2.20
  10   0   3   -2.40    1.30
  11   0   3    0.20    2.20
  12   0   3    0.80    2.70
 -13  -1   3   -0.80    2.70
 -13   1   3    1.60    2.50
 -12  -1   3   17.00    3.90
 -12   1   3   15.40    3.60
 -11  -1   3   60.19    6.70
 -11   1   3   71.59    6.20
  10  -1  -3  121.99    7.50
 -10  -1   3  132.29    8.80
 -10   1   3  129.69    8.50
  -9  -1   3   60.19    6.20
   9  -1  -3   53.49    4.50
  -9   1   3   43.60    5.20
  -8  -1   3  333.57   16.20
   8  -1  -3  340.37   15.40
  -8   1   3  377.26   16.50
  -7  -1   3  245.88   12.50
   7  -1  -3  252.67   11.80
   7   1  -3  268.77   10.20
  -7   1   3  267.67   12.90
  -6  -1   3  100.09    6.20
   6  -1  -3   90.09    5.50
   6   1  -3  102.69    4.40
  -6   1   3   99.19    6.60
  -5  -1   3 2752.72   95.39
   5  -1  -3 2561.44   93.39
   5   1  -3 2551.84   91.99
  -5   1   3 2595.74   95.89
  -4  -1   3 2304.17   81.49
   4  -1  -3 2229.18   79.89
   4   1  -3 2241.78   78.59
   4   1  -3 2186.28   78.59
  -2  -1   3 1863.11   64.69
  -2   1   3 1800.62   62.69
  -2   1   3 1841.92   66.49
  -1  -1   3  490.25   17.10
   1  -1  -3  481.85   18.00
  -1  -1   3  479.75   17.60
  -1   1   3  486.55   17.10
  -1   1   3  477.15   18.20
   0  -1   3 1837.62   61.09
   0  -1   3 1742.73   63.59
   0   1   3 1844.02   61.19
   0   1   3 1744.43   64.39
   1  -1   3 1412.46   50.49
   1  -1   3 1410.16   48.10
   1   1   3 1413.36   48.30
   1   1   3 1382.46   50.39
  -1   1  -3 1399.66   50.49
   2  -1   3 2170.08   75.09
   2   1   3 2194.08   78.59
   2   1   3 2189.58   75.39
  -2   1  -3 2240.38   78.89
   3  -1   3  247.08   10.70
  -3   1  -3  235.38    9.80
   3   1   3  253.37   10.40
   3   1   3  248.98    9.70
   4  -1   3  189.28    9.10
   4  -1   3  206.58    8.90
  -4   1  -3  183.28    8.20
   4   1   3  198.08    8.20
   4   1   3  201.58    9.60
   5  -1   3   16.90    2.50
   5  -1   3   15.90    2.60
   5   1   3   18.50    3.10
  -5   1  -3   13.70    2.00
   5   1   3   14.50    1.80
   6  -1   3  353.86   15.60
   6  -1   3  352.86   15.00
  -6   1  -3  338.17   14.50
   6   1   3  334.47   13.70
   6   1   3  322.97   16.00
   7  -1   3  233.48   11.30
   7  -1   3  225.18   12.20
   7   1   3  219.18   12.80
  -7   1  -3  234.48   10.80
   7   1   3  226.18   10.00
   8  -1   3   18.90    3.10
   8  -1   3   17.30    3.80
   8   1   3   15.40    2.30
   8   1   3   16.20    4.10
  -8   1  -3   21.70    3.10
   9  -1   3   62.29    5.20
   9  -1   3   82.69    7.20
  -9   1  -3   64.69    5.10
   9   1   3   48.80    6.90
  10  -1   3   60.29    7.10
  10  -1   3   50.09    5.30
  10   1   3   40.40    6.30
  11  -1   3   19.20    3.60
  11  -1   3   23.30    4.80
  11   1   3   19.30    4.70
  12  -1   3   32.80    5.70
  12   1   3   26.50    5.50
 -12   2   3  183.78   11.40
  11  -2  -3   38.70    4.90
 -11   2   3   39.90    5.50
  10  -2  -3   25.30    4.00
 -10   2   3   24.70    4.40
   9  -2  -3 1001.40   39.20
  -9   2   3  981.40   40.30
   8  -2  -3  204.08   10.90
  -8   2   3  204.28   11.50
   7  -2  -3  381.26   16.90
  -7   2   3  380.36   17.40
   6  -2  -3 2415.76   88.39
  -6   2   3 2446.16   89.69
   5  -2  -3  489.65   19.50
  -5   2   3  463.05   19.60
   4  -2  -3 3129.29  111.89
  -3  -2   3 4230.88  147.09
  -3   2   3 4164.68  151.08
   2  -2  -3  110.79    5.70
  -2  -2   3  114.29    4.90
  -2   2   3  114.49    5.90
  -2   2   3  120.49    4.80
  -1  -2   3 4871.71  172.48
   1  -2  -3 4956.90  172.98
  -1   2   3 4803.62  175.58
  -1   2   3 4982.50  165.88
   0  -2   3 1483.65   50.39
   0   2   3 1482.55   50.59
   0   2  -3 1458.45   53.89
   1  -2   3  539.55   18.70
   1  -2   3  542.45   20.90
  -1   2  -3  526.85   20.50
   1   2   3  523.05   19.00
   2  -2   3 4534.15  148.09
  -2  -2  -3 4204.48  153.88
   2  -2   3 4232.28  155.28
  -2   2  -3 4440.66  156.58
   2   2   3 4438.46  148.59
   3  -2   3 1891.11   70.99
   3  -2   3 1944.81   66.69
  -3   2  -3 1962.90   70.79
   3   2   3 1972.40   67.59
   4  -2   3   23.20    3.20
   4  -2   3   24.60    2.30
   4   2   3   20.80    2.90
  -4   2  -3   19.30    2.50
   5  -2   3 1861.81   69.09
   5  -2   3 1906.01   65.59
   5   2   3 1897.41   67.29
  -5   2  -3 1823.52   68.59
   6  -2   3  303.57   13.90
   6  -2   3  298.97   13.10
   6   2   3  281.97   14.30
  -6   2  -3  292.67   12.90
   7  -2   3   17.20    3.10
   7  -2   3   16.80    3.00
   7   2   3    8.00    2.80
  -7   2  -3   11.80    2.50
   8  -2   3  469.35   20.40
   8  -2   3  448.96   20.20
  -8   2  -3  466.25   20.10
   8   2   3  457.15   21.90
   9  -2   3   93.19    6.80
   9  -2   3   95.89    7.30
  -9   2  -3   85.99    6.70
   9   2   3   96.29    8.50
  10  -2   3   59.79    6.80
  10  -2   3   63.89    5.60
  10   2   3   50.29    7.10
  11  -2   3   59.19    6.30
  11  -2   3   67.39    7.50
  11   2   3   60.99    7.90
  12  -2   3   19.90    3.90
  12  -2   3   25.50    4.90
  12   2   3   20.90    5.00
  12  -3  -3   18.90    4.00
  12   3  -3   15.00    4.60
 -12   3   3   12.70    4.00
  11  -3  -3   82.39    7.00
 -11   3   3   74.19    8.40
  10  -3  -3   69.79    6.50
 -10   3   3   68.99    7.70
   9  -3  -3   79.09    6.80
  -9   3   3   75.09    6.80
   8  -3  -3  256.77   13.70
  -8   3   3  260.67   13.70
   7  -3  -3   65.99    5.90
  -7   3   3   80.89    6.20
   6  -3  -3   48.90    5.40
  -6   3   3   58.39    5.00
   5  -3  -3  857.21   35.20
  -5   3   3  941.01   35.50
   3  -3  -3   83.49    5.30
  -3  -3   3   74.39    3.60
  -3   3   3   60.49    4.70
   2  -3  -3  937.11   32.90
   2   3  -3  726.73   32.40
  -2   3   3  900.41   33.10
   1  -3  -3  132.69    7.10
  -1  -3   3  151.58    7.10
  -1   3   3  135.59    7.20
   1   3  -3  133.29    7.10
  -1   3   3  141.29    5.50
   0  -3  -3  213.58    9.70
   0  -3   3  219.48   10.10
   0   3   3  219.48    8.20
   0   3   3  198.98    9.70
   0   3  -3  225.78   10.00
  -1  -3  -3  576.34   21.80
   1  -3   3  533.35   22.70
   1  -3   3  552.74   19.40
   1   3   3  555.24   22.00
   1   3   3  574.44   20.10
  -1   3  -3  568.94   22.30
   2  -3   3  764.72   26.80
  -2  -3  -3  803.12   29.20
   2  -3   3  739.73   30.60
   2   3   3  776.22   29.70
   2   3   3  780.72   27.60
  -2   3  -3  789.92   30.00
   3  -3   3  910.61   35.80
  -3  -3  -3  913.91   33.60
   3  -3   3  894.11   31.50
   3   3   3  901.31   32.50
   3   3   3  912.51   34.50
  -3   3  -3  914.71   34.90
  -4  -3  -3  422.76   16.50
   5  -3   3   64.79    5.50
   5  -3   3   61.39    3.70
   5   3   3   60.19    4.50
  -5   3  -3   63.19    4.90
   5   3   3   65.99    5.00
   6  -3   3  878.11   34.60
   6  -3   3  850.91   31.00
  -6   3  -3  839.42   33.50
   6   3   3  856.21   33.10
   6   3   3  820.92   33.10
   7  -3   3  307.57   13.20
   7  -3   3  317.57   15.20
   7   3   3  283.67   15.00
  -7   3  -3  292.77   14.10
   8  -3   3   20.10    3.70
   8   3   3   18.30    4.10
  -8   3  -3   21.90    3.70
   9  -3   3  255.97   13.60
  -9   3  -3  272.07   13.80
   9   3   3  235.38   14.40
  10  -3   3   58.59    6.50
  10   3   3   52.29    6.90
  11  -3   3   -0.10    2.10
  11   3   3   -1.20    2.20
  11  -4  -3    1.00    2.30
 -11   4   3    2.90    3.50
  11   4  -3    0.00    2.60
  10  -4  -3   21.20    4.50
 -10   4   3   24.90    5.20
  10   4  -3   24.40    5.30
   9  -4  -3   49.80    6.50
  -9   4   3   47.50    6.40
   8  -4  -3   16.90    4.00
  -8   4   3   22.40    4.30
   7  -4  -3   38.80    5.50
  -7   4   3   43.00    5.40
   6  -4  -3   98.79    7.80
  -6   4   3  105.69    7.60
   5  -4  -3  108.99    7.90
  -5   4   3  115.59    7.70
   4  -4  -3  164.48    9.60
  -4   4   3  146.59    9.00
   4   4  -3  145.29    8.60
   3  -4  -3   42.00    4.80
   3   4  -3   29.00    3.80
  -3   4   3   31.80    4.20
  -2  -4   3    0.50    1.20
   2  -4  -3    1.50    1.60
   2   4  -3    0.30    1.30
  -2   4   3   -0.30    1.60
  -1  -4   3  202.48   10.00
   1  -4  -3  218.18   10.70
   1   4  -3  201.78   10.30
  -1   4   3  198.48   10.40
   0  -4   3   40.80    4.40
   0   4   3   38.20    4.30
   0   4  -3   37.80    4.30
   1  -4   3   56.09    5.00
  -1  -4  -3   57.29    4.40
   1   4   3   54.59    4.60
  -1   4  -3   56.39    4.70
   2  -4   3  214.18   12.30
  -2  -4  -3  240.98   11.20
  -2   4  -3  252.27   11.90
   2   4   3  254.47    9.70
   2   4   3  246.08   11.60
   3  -4   3  252.77   13.10
  -3  -4  -3  232.98   10.90
   3   4   3  233.08    9.90
   3   4   3  239.98   11.60
  -3   4  -3  254.77   12.10
   4  -4   3   -0.90    1.60
  -4   4  -3    0.40    1.70
   4   4   3    1.50    1.30
   4   4   3    0.70    1.60
   5  -4   3  192.48   11.50
   5   4   3  196.08   10.10
   5   4   3  190.48    9.40
  -5   4  -3  191.38   10.60
   6  -4   3  109.79    8.10
   6   4   3  100.69    7.00
  -6   4  -3  101.29    7.30
   6   4   3   97.99    6.60
   7  -4   3   11.10    3.20
  -7   4  -3   11.10    3.10
   7   4   3   10.70    2.90
   7   4   3   11.30    2.80
   8  -4   3   26.70    4.70
  -8   4  -3   34.40    4.80
   8   4   3   31.90    4.80
   9  -4   3   17.70    3.90
   9   4   3   12.20    3.50
  -9   4  -3   14.80    4.00
  10  -4   3   11.10    3.50
  10   4   3    7.20    3.20
   9  -5  -3    3.40    2.70
  -9   5   3    2.40    3.00
   9   5  -3    4.10    2.90
   8  -5  -3    1.40    2.60
  -8   5   3    0.60    2.70
   8   5  -3    3.10    2.60
   7  -5  -3   10.40    3.70
  -7   5   3   18.10    4.20
   7   5  -3   19.20    4.00
   6  -5  -3   30.10    5.20
   6   5  -3   28.90    4.60
  -6   5   3   31.10    5.10
   5  -5  -3   -2.10    1.90
  -5   5   3    3.80    2.70
   5   5  -3    0.70    2.10
   4  -5  -3   56.29    6.80
  -4   5   3   68.19    6.30
   4   5  -3   59.29    5.60
   3  -5  -3   14.50    3.60
   3   5  -3   -3.70    1.60
  -3   5   3    2.10    2.20
   2  -5  -3   16.10    3.90
   2   5  -3   15.90    3.30
  -2   5   3   17.70    3.70
  -1  -5   3    0.20    1.60
   1  -5  -3   -0.40    1.90
   1   5  -3   -0.40    1.80
  -1   5   3    1.00    2.00
   0  -5  -3   93.89    7.10
   0  -5   3   96.19    7.00
   0   5   3   99.09    7.10
   0   5  -3   98.89    7.10
   1  -5   3  164.68   10.20
  -1  -5  -3  164.38    9.80
   1   5   3  174.38    9.80
  -1   5  -3  185.38   10.10
   2  -5   3   -2.90    1.40
  -2   5  -3   -0.20    1.90
   2   5   3   -0.50    1.80
   3  -5   3    8.50    3.10
   3   5   3   11.40    3.10
  -3   5  -3    6.90    2.80
   4  -5   3   43.20    5.80
   4   5   3   35.50    4.70
  -4   5  -3   41.00    5.30
   5  -5   3   33.90    5.40
  -5   5  -3   31.30    4.80
   5   5   3   34.00    4.60
   6  -5   3   11.50    3.50
   6   5   3   11.10    3.20
  -6   5  -3   12.40    3.60
   7  -5   3   15.50    3.90
  -7   5  -3   21.70    4.40
   7   5   3   24.40    4.40
   8  -5   3    2.30    2.40
  -8   5  -3    0.10    2.60
   6  -6  -3    7.20    3.70
  -6   6   3    3.20    3.30
   6   6  -3   -1.00    2.20
   5  -6  -3   17.70    4.60
  -5   6   3   27.00    5.10
   5   6  -3   18.30    4.00
   4  -6  -3   11.90    4.00
   4   6  -3   12.70    3.50
  -4   6   3   10.10    3.60
   3  -6  -3   92.59    8.60
  -3   6   3   89.09    7.90
   3   6  -3   95.59    7.60
   2  -6  -3   19.20    4.50
  -2   6   3   15.60    4.00
   2   6  -3   16.40    3.70
   1  -6  -3   46.40    6.30
  -1   6   3   42.50    5.70
   1   6  -3   37.30    5.30
   0  -6  -3   98.19    8.10
   0   6   3   80.29    7.20
   0   6  -3   87.09    7.30
   1  -6   3    1.10    2.30
  -1   6  -3   -2.90    1.90
   1   6   3    1.60    2.30
   2  -6   3   48.60    6.30
  -2   6  -3   52.59    6.30
   2   6   3   38.60    5.20
   3  -6   3   75.89    8.30
   3   6   3   85.29    7.20
  -3   6  -3   94.99    7.90
   4  -6   3   24.10    4.80
  -4   6  -3   25.30    4.90
   4   6   3   21.50    4.40
   5  -6   3   55.39    7.20
   5   6   3   47.80    6.30
  -5   6  -3   53.99    6.80
   6  -6   3   22.80    5.00
  -6   6  -3   18.90    4.70
   6   6   3   22.30    4.60
 -13   0   4  108.99    8.40
 -12   0   4   66.59    6.30
 -11   0   4   43.90    5.50
 -10   0   4  222.98   12.20
  -9   0   4  799.02   32.00
   9   0  -4  754.12   29.70
   8   0  -4  223.68   10.40
  -8   0   4  247.58   12.10
  -7   0   4  376.56   17.10
   7   0  -4  392.76   15.50
   6   0  -4 1019.20   37.30
  -6   0   4 1018.80   39.50
   5   0  -4   37.90    2.50
  -5   0   4   31.20    3.70
  -4   0   4 1266.77   49.99
   4   0  -4 1409.26   48.00
  -2   0   4   98.89    4.50
  -1   0   4 1606.64   58.39
  -1   0   4 1795.42   61.49
   0   0   4 3100.79  109.89
   0   0   4 3104.09  111.99
   0   0   4 3145.89  105.99
   1   0   4   21.40    1.80
   2   0   4 3909.51  137.89
   3   0   4 3241.98  113.29
   3   0   4 3146.39  109.39
  -4   0  -4  774.12   30.70
   4   0   4  871.11   31.50
   4   0   4  881.31   30.90
  -5   0  -4 1760.72   68.09
   5   0   4 1889.31   68.19
   5   0   4 2013.60   67.19
  -6   0  -4   61.09    3.90
   6   0   4   61.69    4.30
   6   0   4   59.69    5.20
   7   0   4  296.47   14.90
  -7   0  -4  313.67   12.90
   7   0   4  293.07   13.40
   8   0   4  964.10   36.60
   8   0   4  929.31   38.00
   9   0   4  272.27   12.90
   9   0   4  267.57   14.90
  10   0   4   68.59    7.80
  11   0   4  351.86   18.70
  12   0   4   67.09    8.10
 -13  -1   4   80.69    7.50
 -13   1   4   80.69    7.20
 -12  -1   4    9.90    3.40
 -12   1   4    8.00    2.90
 -11  -1   4   69.79    7.40
 -11   1   4   79.69    6.60
  10  -1  -4  325.17   15.30
 -10  -1   4  352.56   16.90
 -10   1   4  335.67   16.40
   9  -1  -4   32.20    4.00
  -9  -1   4   31.10    4.70
  -9   1   4   26.70    4.10
  -8  -1   4  719.93   30.30
   8  -1  -4  697.53   28.80
  -8   1   4  795.02   30.60
  -7  -1   4 1098.29   44.70
   7  -1  -4 1121.69   43.10
  -7   1   4 1222.68   45.30
   7   1  -4 1179.78   41.70
   6  -1  -4  117.99    6.20
  -6  -1   4  109.29    6.90
   6   1  -4  117.99    5.10
  -6   1   4  124.69    7.50
  -5  -1   4 2040.00   72.59
   5  -1  -4 1899.51   70.49
   5   1  -4 1956.90   69.29
   4  -1  -4 2109.79   76.29
   4   1  -4 2124.39   75.29
  -4   1   4 2178.88   78.69
   3  -1  -4  339.07   13.30
  -3  -1   4  335.17   13.60
  -3   1   4  333.57   14.10
  -3   1   4  344.07   12.70
  -2  -1   4 3213.38  112.69
  -2  -1   4 3156.98  109.09
  -2   1   4 3196.78  108.99
  -2   1   4 3249.27  115.29
  -1  -1   4 1272.87   45.30
  -1  -1   4 1287.97   43.80
  -1   1   4 1237.28   43.70
  -1   1   4 1280.17   46.30
   0  -1   4  115.99    4.90
   0  -1   4  117.49    5.30
   0   1   4  121.09    5.00
   0   1   4  120.69    5.20
   1  -1   4 3268.27  109.89
   1   1   4 3240.38  110.09
  -1   1  -4 3243.48  115.39
   1   1   4 3176.28  115.29
   2  -1   4  371.36   14.50
   2   1   4  395.06   15.00
   2   1   4  401.76   14.80
   2   1   4  401.56   14.60
  -2   1  -4  402.16   14.90
   3  -1   4 2152.18   77.89
   3  -1   4 2167.58   74.49
  -3   1  -4 2159.68   77.79
   3   1   4 2250.47   74.99
   3   1   4 2098.99   76.99
   4  -1   4 4075.49  148.69
   4  -1   4 4160.48  142.99
  -4   1  -4 4058.59  149.49
   4   1   4 4244.78  147.69
   4   1   4 4375.46  143.79
   5  -1   4   19.00    2.80
   5  -1   4   24.90    3.00
   5   1   4   16.00    2.10
   5   1   4   16.60    2.70
  -5   1  -4   17.40    2.20
   6  -1   4  390.66   17.10
   6  -1   4  398.26   17.00
  -6   1  -4  399.06   16.50
   6   1   4  409.26   17.90
   6   1   4  395.26   16.00
   7  -1   4  386.46   17.80
   7  -1   4  435.66   17.80
   7   1   4  380.66   16.40
  -7   1  -4  407.16   16.90
   7   1   4  406.06   18.80
   8  -1   4   24.60    4.20
   8  -1   4   35.80    4.30
   8   1   4   22.00    2.90
  -8   1  -4   36.00    3.80
   8   1   4   31.30    4.90
   9  -1   4  262.47   14.30
   9  -1   4  263.07   13.10
   9   1   4  272.07   15.20
  10  -1   4   95.59    7.90
  10  -1   4   87.69    6.70
  10   1   4   78.09    8.60
  11  -1   4    3.50    2.40
  11   1   4    2.10    2.40
  12  -1   4   98.69    8.70
  12   1   4  111.09    9.50
 -12   2   4    4.90    2.90
  11  -2  -4    0.80    1.80
 -11   2   4    0.90    2.30
  10  -2  -4   44.10    5.30
 -10   2   4   42.70    5.80
   9  -2  -4   18.20    3.60
  -9   2   4   19.20    4.00
   8  -2  -4    0.10    1.40
  -8   2   4    2.60    2.20
   7  -2  -4   72.19    5.40
  -7   2   4   71.49    6.00
   6  -2  -4   27.10    3.50
  -6   2   4   27.80    3.80
   5  -2  -4   16.00    2.40
  -5   2   4   21.80    3.00
   4  -2  -4  473.05   19.00
  -4   2   4  472.55   19.30
  -3  -2   4  216.98    8.30
  -3   2   4  224.98    8.60
  -3   2   4  202.58    9.70
   2  -2  -4  171.38    8.10
  -2  -2   4  183.08    7.40
  -2   2   4  183.48    7.20
  -2   2   4  181.68    8.50
  -1  -2   4  164.58    6.40
  -1  -2   4  135.29    6.60
   1  -2  -4  166.78    7.30
  -1   2   4  159.58    6.30
  -1   2   4  158.08    7.30
   0  -2  -4  154.68    7.10
   0  -2   4  142.49    7.20
   0  -2   4  174.58    6.40
   0   2   4  161.48    6.50
   0   2  -4  164.78    7.30
   1  -2   4  792.82   29.70
  -1  -2  -4  771.42   29.00
   1  -2   4  796.22   27.40
  -1   2  -4  770.42   29.30
   1   2   4  787.52   27.70
   2  -2   4   81.89    3.90
   2  -2   4   80.99    5.10
  -2   2  -4   82.99    4.50
   2   2   4   81.09    4.20
   3  -2   4  462.55   19.10
   3   2   4  459.75   17.50
  -3   2  -4  464.95   18.30
   4  -2   4    8.40    1.50
   4  -2   4    8.10    2.10
  -4   2  -4    7.30    1.60
   4   2   4    8.20    1.40
   4   2   4    9.70    1.90
   5  -2   4    3.50    1.80
   5  -2   4    2.40    1.20
  -5   2  -4    4.20    1.60
   5   2   4    0.60    1.40
   6  -2   4   37.60    3.90
   6  -2   4   37.40    4.50
   6   2   4   45.90    5.10
  -6   2  -4   46.90    3.80
   7  -2   4   -0.60    1.30
   7  -2   4    0.50    1.30
   7   2   4   -0.10    1.90
  -7   2  -4    0.90    1.60
   8  -2   4   11.70    2.80
   8  -2   4   11.50    3.00
  -8   2  -4    9.60    2.70
   8   2   4    7.00    2.80
   9  -2   4   58.69    6.00
   9  -2   4   54.29    5.90
   9   2   4   39.20    5.90
  10  -2   4   11.70    3.10
  10  -2   4   10.80    3.10
  10   2   4   16.10    4.20
  11  -2   4    0.00    2.00
  11  -2   4    0.80    2.20
  11   2   4   -0.80    2.40
  12  -3  -4    3.00    2.30
 -12   3   4   -0.50    2.90
  11  -3  -4   28.40    4.70
 -11   3   4   26.00    5.20
  10  -3  -4    7.90    3.10
 -10   3   4    4.10    2.90
   9  -3  -4   12.60    3.30
  -9   3   4   17.80    4.10
   8  -3  -4  214.18   12.00
  -8   3   4  214.88   12.20
   7  -3  -4   44.00    5.20
  -7   3   4   39.40    4.90
   6  -3  -4   51.39    4.80
  -6   3   4   58.99    5.10
   5  -3  -4    0.10    1.40
  -5   3   4    0.20    0.90
   4  -3  -4   -0.20    0.50
  -4  -3   4    2.80    0.80
  -4   3   4    0.30    0.80
   3  -3  -4   27.50    3.30
  -3  -3   4   24.40    1.90
  -3   3   4   24.50    3.20
   2  -3  -4  512.15   20.50
  -2   3   4  531.95   18.20
  -2   3   4  485.25   20.70
   2   3  -4  490.05   20.50
  -1  -3   4  447.36   17.60
   1  -3  -4  456.55   18.20
  -1   3   4  432.36   18.30
  -1   3   4  447.16   16.00
   1   3  -4  440.96   18.20
   0  -3  -4  326.77   13.40
   0  -3   4  309.77   11.40
   0  -3   4  313.77   13.40
   0   3   4  308.47   13.40
   0   3   4  315.97   11.70
   0   3  -4  302.57   13.40
   1  -3   4   11.90    1.20
   1  -3   4   11.00    2.20
  -1  -3  -4   11.00    1.90
  -1   3  -4   12.40    2.20
   1   3   4   10.30    1.90
   1   3   4   12.60    1.60
  -2  -3  -4   60.49    3.90
   2  -3   4   55.19    2.80
   2  -3   4   58.69    4.80
   2   3   4   55.29    3.90
   2   3   4   62.49    3.50
  -2   3  -4   55.99    4.10
   3  -3   4  160.18    9.00
   3  -3   4  128.39    6.20
  -3  -3  -4  164.98    7.40
   3   3   4  166.98    7.70
  -3   3  -4  160.38    8.10
   3   3   4  158.28    7.10
   4  -3   4   16.60    1.90
  -4  -3  -4   20.00    2.40
   4   3   4   18.00    2.40
   4   3   4   16.50    2.50
  -4   3  -4   12.40    2.60
   5  -3   4   76.39    6.10
   5  -3   4   77.99    4.40
   5   3   4   79.99    5.10
  -5   3  -4   83.79    5.60
   5   3   4   77.69    5.30
   6  -3   4  140.79    9.10
   6  -3   4  151.08    7.30
   6   3   4  143.29    8.50
   6   3   4  145.19    7.80
  -6   3  -4  150.08    8.30
   7  -3   4    1.90    1.90
   7  -3   4    1.00    1.40
   7   3   4    2.40    2.00
   7   3   4    3.40    1.90
  -7   3  -4    0.10    1.90
   8  -3   4    1.70    2.10
   8   3   4    1.50    1.90
  -8   3  -4    3.20    2.30
   9  -3   4   51.79    6.10
   9   3   4   47.30    6.30
  10  -3   4   71.59    7.50
  10   3   4   71.49    8.10
  11  -3   4    5.60    2.70
  11   3   4    4.40    2.90
  11  -4  -4   -0.40    2.20
 -11   4   4    0.30    3.30
  10  -4  -4   22.50    4.50
 -10   4   4   14.00    4.40
   9  -4  -4   98.69    8.50
  -9   4   4  105.29    8.50
   8  -4  -4    7.50    2.90
  -8   4   4    4.50    2.60
   7  -4  -4  304.17   16.00
  -7   4   4  310.97   15.60
   6  -4  -4  271.07   14.30
  -6   4   4  265.57   13.80
   5  -4  -4   30.60    4.50
  -5   4   4   30.30    4.30
   4  -4  -4  217.88   11.40
   4   4  -4  215.28   11.00
  -4   4   4  196.58   11.10
   3  -4  -4  832.42   33.20
  -3   4   4  819.52   33.40
   3   4  -4  836.32   33.00
   2  -4  -4   10.40    2.50
  -2  -4   4   12.00    2.10
   2   4  -4   13.70    2.70
  -2   4   4   12.90    2.90
  -1  -4   4  598.54   23.80
   1  -4  -4  619.14   24.60
  -1   4   4  578.84   24.60
   1   4  -4  597.24   24.50
   0  -4  -4  498.25   20.30
   0  -4   4  494.45   20.50
   0   4  -4  479.05   20.40
   0   4   4  467.35   20.30
  -1  -4  -4   45.90    3.90
   1  -4   4   38.30    4.50
  -1   4  -4   38.70    4.30
   1   4   4   41.30    4.20
   2  -4   4  539.55   24.60
  -2  -4  -4  581.14   23.30
   2   4   4  593.84   21.30
  -2   4  -4  582.94   23.80
   2   4   4  594.94   23.70
   3  -4   4  593.54   25.50
  -3  -4  -4  576.54   23.30
  -3   4  -4  607.34   24.40
   3   4   4  583.54   23.80
   3   4   4  568.94   21.70
   4  -4   4    0.30    1.70
   4   4   4    2.00    1.30
   4   4   4    1.90    1.70
  -4   4  -4    0.30    1.90
   5  -4   4  845.02   34.70
  -5   4  -4  825.32   33.60
   5   4   4  813.12   31.00
   5   4   4  840.42   32.90
   6  -4   4  146.99    9.80
   6   4   4  134.99    8.10
  -6   4  -4  152.98    9.10
   6   4   4  147.59    8.50
   7  -4   4   15.10    3.50
  -7   4  -4   21.50    3.90
   7   4   4   14.70    3.20
   8  -4   4  167.38   10.80
   8   4   4  147.09    9.80
  -8   4  -4  171.88   10.20
   9  -4   4   28.30    4.80
   9   4   4   18.80    4.30
   9  -5  -4   -0.30    2.30
  -9   5   4   -0.90    2.60
   8  -5  -4  146.39   11.00
  -8   5   4  153.88   10.60
   8   5  -4  135.99   10.00
   7  -5  -4   54.79    7.10
   7   5  -4   55.39    6.50
  -7   5   4   67.49    7.40
   6  -5  -4   73.89    7.90
   6   5  -4   79.99    6.70
  -6   5   4   71.39    6.80
   5  -5  -4   70.59    7.50
   5   5  -4   65.99    6.00
  -5   5   4   53.99    6.30
   4  -5  -4   23.60    4.50
   4   5  -4   28.20    4.30
  -4   5   4   24.50    4.30
   3  -5  -4   14.70    3.50
  -3   5   4   14.60    3.30
   3   5  -4   15.60    3.30
   2  -5  -4  266.87   13.80
   2   5  -4  257.97   13.20
  -2   5   4  249.08   13.40
   1  -5  -4  109.39    7.90
  -1  -5   4  136.99    7.60
   1   5  -4  113.19    7.80
  -1   5   4  113.19    8.00
   0  -5  -4   51.69    5.50
   0  -5   4   45.30    5.10
   0   5   4   41.10    5.10
   0   5  -4   53.29    5.70
   1  -5   4  184.08   10.90
  -1  -5  -4  180.48   10.50
  -1   5  -4  200.68   10.80
   1   5   4  206.28   10.80
   2  -5   4  213.38   12.40
  -2   5  -4  220.98   11.70
   2   5   4  219.38   11.50
   3  -5   4    3.30    2.50
   3   5   4   -0.10    1.90
  -3   5  -4    1.70    2.00
   4  -5   4  255.97   14.60
   4   5   4  261.37   13.20
  -4   5  -4  265.37   13.80
   5  -5   4   45.10    6.00
  -5   5  -4   35.00    5.30
   5   5   4   40.40    5.00
   6  -5   4   68.69    7.70
  -6   5  -4   63.39    7.00
   6   5   4   78.69    6.50
   7  -5   4   45.80    6.40
  -7   5  -4   50.39    6.30
   8  -5   4    7.30    3.00
  -8   5  -4    9.80    3.70
   6  -6  -4   17.80    4.90
   6   6  -4    7.60    3.30
  -6   6   4   14.40    4.20
   5  -6  -4   -1.30    2.20
  -5   6   4    4.10    2.80
   5   6  -4    1.20    2.30
   4  -6  -4   20.40    4.70
   4   6  -4   15.00    3.90
  -4   6   4   13.80    4.00
   3  -6  -4   26.10    5.30
   3   6  -4   21.50    4.20
  -3   6   4   18.40    4.40
   2  -6  -4    1.70    2.70
  -2   6   4    0.80    2.50
   2   6  -4    6.90    3.00
   1  -6  -4   42.80    6.10
   1   6  -4   40.70    5.50
  -1   6   4   45.70    6.00
   0  -6  -4    5.80    3.20
   0   6   4   10.20    3.30
   0   6  -4   15.10    3.80
   1  -6   4    2.80    2.40
   1   6   4   -1.30    2.10
  -1   6  -4   -3.00    2.00
   2  -6   4   36.20    5.50
  -2   6  -4   51.39    6.30
   2   6   4   45.50    5.80
   3  -6   4   26.70    4.90
   3   6   4   25.90    4.40
  -3   6  -4   29.30    5.10
   4  -6   4    0.30    2.40
  -4   6  -4    1.70    2.90
   4   6   4    4.10    2.80
   5  -6   4  109.19    9.30
  -5   6  -4  120.29    9.20
   5   6   4  104.59    8.40
 -13   0   5    1.40    2.50
 -12   0   5    2.10    2.40
 -11   0   5   -3.00    1.80
 -10   0   5    0.00    1.90
  -9   0   5    0.70    1.90
   9   0  -5   -0.30    1.40
   8   0  -5    1.20    1.10
  -8   0   5   -1.30    1.30
   7   0  -5   23.30    2.50
  -6   0   5    0.00    1.10
   6   0  -5   -1.20    0.50
   5   0  -5    1.20    0.70
  -5   0   5   -1.10    0.80
  -4   0   5    2.40    1.20
   4   0  -5    1.30    0.70
  -3   0   5    0.40    0.80
  -3   0   5   -0.10    0.30
  -2   0   5   -2.30    0.30
  -2   0   5   -2.10    0.60
  -1   0   5    0.50    0.60
  -1   0   5   -1.30    0.30
   0   0   5    0.10    0.40
   0   0   5    1.20    0.60
   0   0   5    0.30    0.40
   1   0   5   -5.00    0.30
   1   0   5   -4.40    0.40
   2   0   5   -2.40    0.70
   2   0   5   -0.90    0.80
   3   0   5   -0.30    0.80
   3   0   5    3.80    1.30
  -4   0  -5    0.70    0.60
   4   0   5   -0.50    0.80
   4   0   5    1.10    0.90
   5   0   5    2.80    1.40
  -5   0  -5    0.50    0.80
   5   0   5   -0.20    0.90
   6   0   5    4.80    1.60
   6   0   5    0.10    1.10
  -6   0  -5   -0.10    0.90
   7   0   5   -1.70    1.10
   7   0   5    0.40    1.40
   8   0   5    0.10    1.60
   8   0   5   -1.00    1.60
   9   0   5   -0.30    1.80
   9   0   5    0.90    1.70
  10   0   5   -2.10    1.60
  11   0   5    0.10    2.00
  12   0   5    1.10    2.10
 -13  -1   5   33.10    5.40
 -13   1   5   35.00    5.40
 -12  -1   5   28.00    4.90
 -12   1   5   26.60    4.60
 -11  -1   5  206.08   12.20
 -11   1   5  198.38   11.70
  10  -1  -5   53.79    5.60
 -10  -1   5   48.40    6.10
 -10   1   5   54.59    6.10
   9  -1  -5   21.60    3.30
  -9  -1   5   22.90    4.10
  -9   1   5   16.70    3.50
  -8  -1   5  470.85   21.50
   8  -1  -5  470.35   20.00
  -8   1   5  522.45   21.90
  -7  -1   5    2.60    1.70
   7  -1  -5    1.40    1.30
  -7   1   5    2.00    1.90
   7   1  -5    3.00    1.00
  -6  -1   5  470.55   19.30
   6  -1  -5  432.26   17.70
   6   1  -5  435.86   16.50
  -6   1   5  448.56   19.60
   5  -1  -5 1123.79   41.80
  -5   1   5 1164.18   44.20
   5   1  -5 1128.49   40.60
   4  -1  -5    5.90    1.50
  -4  -1   5    9.10    1.80
  -4   1   5    6.30    2.00
  -3  -1   5  200.18    8.70
  -3  -1   5  190.28    8.20
   3  -1  -5  195.88    8.40
  -3   1   5  195.88    9.40
  -3   1   5  198.08    8.10
  -2  -1   5 1589.44   56.19
  -2   1   5 1567.84   54.49
  -1  -1   5   51.29    2.90
  -1  -1   5   50.59    2.90
  -1   1   5   56.39    3.30
  -1   1   5   55.19    2.90
   0  -1   5 2842.82   99.49
   0   1   5 2963.90  104.49
   0   1   5 2947.01   99.59
   1  -1   5 2968.60  105.89
   1   1   5 2964.30  106.49
  -1   1  -5 2967.60  106.59
   1   1   5 3030.10  101.89
   2  -1   5  438.76   16.90
   2   1   5  472.25   17.60
  -2   1  -5  460.35   17.10
   2   1   5  465.55   17.10
   2   1   5  456.85   16.80
   3  -1   5 1156.98   41.30
   3  -1   5 1215.48   43.70
  -3   1  -5 1173.38   42.70
   3   1   5 1134.29   42.70
   3   1   5 1185.58   42.30
   3   1   5 1189.98   41.70
   4  -1   5  711.93   27.60
   4  -1   5  709.13   26.00
   4   1   5  708.83   26.70
   4   1   5  736.33   26.50
  -4   1  -5  679.13   26.20
   5  -1   5   47.40    4.00
   5  -1   5   41.40    3.40
   5   1   5   39.90    3.20
   5   1   5   38.60    4.00
  -5   1  -5   34.70    2.90
   6  -1   5  584.14   25.10
   6  -1   5  652.33   24.50
  -6   1  -5  604.84   24.10
   6   1   5  646.04   25.20
   6   1   5  615.84   24.10
   7  -1   5  162.88    9.00
   7  -1   5  154.38    8.90
   7   1   5  156.58    8.00
   7   1   5  145.99    9.30
   8  -1   5   52.39    5.70
   8  -1   5   47.90    5.10
   8   1   5   52.59    6.40
   8   1   5   48.60    4.20
   9  -1   5   42.60    5.10
   9  -1   5   46.90    5.80
   9   1   5   43.80    6.00
  10  -1   5   30.30    4.90
  10  -1   5   30.20    4.40
  10   1   5   26.30    5.00
  11  -1   5    0.60    2.10
  11   1   5   -0.10    2.20
  12  -1   5   22.40    4.60
  12   1   5   24.80    5.00
 -12   2   5  174.68   11.20
  11  -2  -5  105.29    7.80
 -11   2   5  115.29    8.60
  10  -2  -5  212.18   11.80
 -10   2   5  221.18   12.70
   9  -2  -5  296.67   14.30
  -9   2   5  276.07   15.00
   8  -2  -5   49.40    4.60
  -8   2   5   45.90    5.70
   7  -2  -5 1380.46   52.69
  -7   2   5 1443.46   54.79
   6  -2  -5  462.95   19.20
   5  -2  -5    0.90    1.10
  -5   2   5    0.20    0.90
   4  -2  -5 1151.78   43.00
  -4   2   5 1167.68   44.00
  -3  -2   5  589.24   21.50
  -3   2   5  582.04   23.20
  -3   2   5  589.54   21.30
   2  -2  -5    5.40    1.40
  -2  -2   5    4.70    1.00
  -2  -2   5    0.70    0.70
  -2   2   5    5.20    1.40
  -2   2   5    4.20    1.00
   1  -2  -5 2932.21  104.19
  -1   2   5 2944.61   99.89
  -1   2   5 2906.41  105.69
   0  -2   5 2327.27   77.99
   0  -2  -5 2236.18   81.39
   0  -2   5 2211.58   81.49
   0   2  -5 2310.67   82.49
   0   2   5 2310.07   78.19
   1  -2   5  244.58   10.40
   1  -2   5  193.58    8.80
   1   2   5  261.17    9.50
  -1   2  -5  235.58    9.80
   2  -2   5 1000.80   37.50
  -2   2  -5 1004.00   36.90
   2   2   5  974.00   35.20
   3  -2   5  809.32   29.00
   3  -2   5  784.32   31.60
   3   2   5  813.02   29.50
  -3   2  -5  846.32   30.80
   4  -2   5  711.93   30.50
   4  -2   5  784.42   28.10
   4   2   5  809.82   28.90
  -4   2  -5  793.32   29.60
   5  -2   5  702.83   25.80
   5  -2   5  638.24   28.00
   5   2   5  707.13   26.30
   5   2   5  730.73   26.90
  -5   2  -5  686.53   26.70
   6  -2   5  305.87   14.90
   6  -2   5  318.87   13.40
   6   2   5  313.57   14.40
  -6   2  -5  308.67   13.40
   7  -2   5  205.18   11.30
   7  -2   5  213.98   10.40
  -7   2  -5  205.88   10.20
   7   2   5  219.98   11.70
   8  -2   5   92.99    6.90
   8  -2   5   78.59    6.10
   8   2   5   95.59    7.50
   9  -2   5  121.29    7.90
   9  -2   5  123.49    8.20
   9   2   5   99.59    8.30
  10  -2   5   66.49    6.80
  10  -2   5   77.99    6.60
  10   2   5   80.79    8.50
  11  -2   5  123.69    9.00
  11  -2   5  126.39    8.90
  11   2   5  120.59    9.90
  12  -3  -5    7.10    3.20
 -12   3   5    3.20    3.10
  11  -3  -5  281.67   15.40
 -11   3   5  285.57   16.20
  10  -3  -5   91.39    7.70
 -10   3   5   90.69    8.10
   9  -3  -5   41.60    5.40
  -9   3   5   42.60    6.10
   8  -3  -5 1010.20   40.30
  -8   3   5 1006.00   41.10
   7  -3  -5  132.49    8.40
  -7   3   5  136.29    8.70
   6  -3  -5  447.96   19.70
  -6   3   5  455.25   19.90
   5  -3  -5  959.40   37.20
  -4  -3   5  156.68    6.30
  -4   3   5  141.79    8.20
   3  -3  -5  285.97   14.30
  -3   3   5  347.27   15.10
  -3   3   5  372.86   12.90
  -2  -3   5  598.14   23.10
   2  -3  -5  635.74   24.40
  -2   3   5  583.04   24.50
  -2   3   5  631.64   22.00
  -1  -3   5  382.76   15.70
   1  -3  -5  395.16   16.30
  -1   3   5  392.86   16.50
   1   3  -5  373.36   16.30
  -1   3   5  411.96   14.50
   0  -3   5 1247.88   45.10
   0  -3  -5 1225.58   45.00
   0  -3   5 1217.78   42.00
   0   3  -5 1174.18   45.40
   0   3   5 1211.58   42.20
   0   3   5 1195.58   45.40
   1  -3   5  436.86   18.10
  -1  -3  -5  432.46   17.40
   1  -3   5  431.16   15.60
  -1   3  -5  418.56   17.60
   1   3   5  422.86   17.40
   1   3   5  433.16   16.10
   2  -3   5  242.68   11.60
  -2  -3  -5  253.47   10.60
   2   3   5  232.08   10.40
   2   3   5  216.28    9.60
  -2   3  -5  237.08   10.70
   3  -3   5  725.23   30.00
  -3  -3  -5  792.82   28.50
   3  -3   5  721.73   26.50
  -3   3  -5  777.52   29.10
   3   3   5  705.13   27.20
   3   3   5  742.63   28.60
   4  -3   5  207.58    9.00
  -4  -3  -5  233.38   10.00
   4   3   5  219.38   10.00
  -4   3  -5  230.18   10.70
   4   3   5  207.48    9.80
  -5  -3  -5   45.10    3.60
   5  -3   5   51.99    5.60
   5  -3   5   36.00    3.10
  -5   3  -5   41.90    4.30
   5   3   5   44.00    3.90
   5   3   5   43.00    3.80
   6  -3   5  267.57   13.90
   6  -3   5  257.67   11.40
  -6   3  -5  266.47   12.60
   6   3   5  268.77   12.70
   7  -3   5   92.19    7.30
  -7   3  -5   95.59    6.60
   7   3   5  102.59    7.20
   8  -3   5   29.20    4.70
   8   3   5   33.20    4.70
   9  -3   5   53.99    6.30
   9   3   5   41.40    5.80
  10  -3   5  190.38   11.60
  10   3   5  189.68   12.20
  11  -4  -5   20.50    4.70
 -11   4   5   21.30    5.20
  10  -4  -5   11.80    3.80
  -9   4   5   85.09    7.90
   8  -4  -5   24.80    4.70
  -8   4   5   27.20    4.70
   7  -4  -5   81.69    7.10
  -7   4   5   79.69    6.80
   6  -4  -5   42.70    5.50
  -6   4   5   49.50    5.60
   5  -4  -5    2.20    1.80
  -5   4   5    1.80    2.00
   4  -4  -5  125.89    8.10
  -4   4   5  123.99    8.10
   3  -4  -5   70.19    5.80
   3   4  -5   74.99    5.70
  -3   4   5   83.79    6.30
   2  -4  -5   97.69    6.60
  -2  -4   5  112.79    5.90
  -2   4   5  108.09    7.00
   2   4  -5  102.39    6.80
   1  -4  -5   63.99    5.10
  -1  -4   5   70.39    4.90
  -1   4   5   71.29    5.50
   1   4  -5   69.49    5.40
   0  -4  -5   55.09    4.60
   0  -4   5   57.09    4.70
   0   4   5   49.99    4.70
   0   4  -5   61.29    4.90
  -1  -4  -5    7.10    2.10
   1  -4   5    6.40    2.20
   1   4   5    6.20    2.10
  -1   4  -5    9.70    2.50
   1   4   5   11.50    1.70
   2  -4   5   69.49    6.00
  -2  -4  -5   82.69    5.60
   2   4   5   78.99    5.60
  -2   4  -5   78.09    5.70
   2   4   5   78.69    4.50
  -3  -4  -5   19.60    3.00
   3  -4   5   27.10    4.30
   3   4   5   29.00    3.70
   3   4   5   20.90    2.50
  -3   4  -5   32.60    4.00
   4  -4   5   14.90    3.40
  -4   4  -5    3.80    2.40
   4   4   5   15.80    2.40
   4   4   5   13.80    2.90
   5  -4   5   17.50    3.90
   5   4   5   17.60    3.10
  -5   4  -5   12.30    3.30
   5   4   5   15.90    2.60
   6  -4   5    5.10    2.50
   6   4   5    1.20    1.60
  -6   4  -5    2.20    2.20
   7  -4   5   13.80    3.60
  -7   4  -5   17.10    3.80
   7   4   5   11.20    2.80
   8  -4   5   25.30    4.70
   8   4   5   22.50    4.00
   9  -4   5   70.49    7.70
   9   4   5   59.29    6.70
   9  -5  -5   -1.20    2.50
  -9   5   5    0.30    2.80
   8  -5  -5   -0.10    2.60
  -8   5   5    0.90    2.80
   7  -5  -5    3.40    2.70
  -7   5   5    5.80    3.10
   7   5  -5    6.40    2.90
   6  -5  -5   15.00    3.80
  -6   5   5   16.30    3.80
   6   5  -5   12.90    3.30
   5  -5  -5   60.49    7.00
   5   5  -5   60.59    6.50
  -5   5   5   44.50    5.90
   4  -5  -5    8.80    3.10
  -4   5   5   13.50    3.50
   4   5  -5    9.80    2.90
   3  -5  -5    0.90    1.90
   3   5  -5    0.10    1.90
  -3   5   5    0.20    1.90
   2  -5  -5   60.89    6.30
  -2   5   5   41.00    5.40
   2   5  -5   59.49    5.50
  -1  -5   5   21.30    3.30
   1  -5  -5   23.10    3.90
  -1   5   5   27.60    4.50
   1   5  -5   25.60    4.00
   0  -5   5    1.10    2.00
   0  -5  -5    3.10    2.40
   0   5   5    3.90    2.30
   0   5  -5    4.70    2.50
  -1  -5  -5   31.00    4.30
   1  -5   5   33.70    4.70
  -1   5  -5   29.60    4.30
   1   5   5   23.10    4.10
   2  -5   5   14.60    3.50
   2   5   5   17.80    3.40
  -2   5  -5   18.70    3.50
   3  -5   5   40.30    5.60
   3   5   5   32.10    4.40
  -3   5  -5   35.40    4.90
   4  -5   5    7.20    3.00
   4   5   5    3.80    2.50
  -4   5  -5    8.30    3.10
   5  -5   5   10.90    3.50
  -5   5  -5   10.30    3.20
   5   5   5   15.50    3.40
   6  -5   5    8.70    3.50
  -6   5  -5   16.90    4.00
   7  -5   5   19.30    4.50
  -7   5  -5   16.90    4.10
   6  -6  -5   52.39    7.50
   6   6  -5   43.30    6.30
  -6   6   5   49.99    6.80
   5  -6  -5    5.10    3.20
   5   6  -5    2.20    2.50
  -5   6   5    4.00    3.20
   4  -6  -5   28.70    5.40
   4   6  -5   37.40    5.30
  -4   6   5   37.10    5.80
   3  -6  -5    6.60    3.40
   3   6  -5    7.70    2.90
  -3   6   5    4.80    2.70
   2  -6  -5    9.60    3.70
   2   6  -5    4.70    2.90
  -2   6   5    7.10    3.10
   1  -6  -5   85.79    7.80
   1   6  -5   85.09    7.20
  -1   6   5   74.99    7.10
   0  -6  -5    1.40    2.80
   0   6  -5    0.90    2.60
   0   6   5   -2.40    2.00
   1  -6   5   22.10    4.30
   1   6   5   23.80    4.50
  -1   6  -5   22.50    4.30
   2  -6   5    8.50    3.30
   2   6   5    4.30    2.80
  -2   6  -5    2.80    2.80
   3  -6   5   -2.20    2.20
   3   6   5   -1.60    2.30
  -3   6  -5   -1.40    2.40
   4  -6   5    6.80    3.30
  -4   6  -5   -0.80    2.60
   4   6   5    0.20    2.60
   5  -6   5   13.10    4.00
  -5   6  -5   19.30    4.70
 -13   0   6   86.39    7.60
 -12   0   6  443.06   21.10
 -11   0   6   11.80    3.40
 -10   0   6  926.71   38.10
  -9   0   6 1235.68   46.90
   9   0  -6 1126.79   43.80
   8   0  -6   82.89    4.80
  -8   0   6   81.99    6.40
  -7   0   6 1693.63   73.99
   7   0  -6 2260.77   71.59
  -5   0   6  220.88   11.20
   5   0  -6  236.38    9.60
   4   0  -6 5092.99  170.88
  -4   0   6 4602.94  174.68
  -3   0   6 6474.85  231.88
  -2   0   6   51.99    3.00
  -1   0   6 3522.85  126.09
   0   0   6  832.82   32.20
   0   0   6  834.92   31.00
   0   0   6  957.70   31.90
   1   0   6 1525.45   53.09
   2   0   6 4195.18  146.69
   2   0   6 4095.29  141.39
   3   0   6  545.25   20.80
   3   0   6  512.85   19.80
   4   0   6  459.65   18.00
   4   0   6  464.35   18.70
   5   0   6  792.92   31.00
   5   0   6  816.42   30.20
   6   0   6   53.59    4.50
   6   0   6   50.49    4.20
   7   0   6  272.67   12.90
   7   0   6  264.07   13.20
   8   0   6  257.67   12.80
   8   0   6  261.67   13.50
   9   0   6   34.10    4.40
   9   0   6   26.20    4.60
  10   0   6  166.18   10.90
  11   0   6   23.70    4.70
 -13  -1   6   85.19    7.80
 -13   1   6   70.29    7.80
 -12  -1   6   16.10    4.10
 -12   1   6   15.50    3.80
 -11  -1   6  131.29    9.50
 -11   1   6  128.89    9.00
 -10  -1   6  389.96   18.60
  10  -1  -6  355.36   16.70
 -10   1   6  372.86   18.10
  -9  -1   6  317.77   16.30
   9  -1  -6  322.97   14.80
  -9   1   6  342.57   16.40
   8  -1  -6  328.07   14.60
  -8  -1   6  323.77   16.30
  -8   1   6  364.16   16.60
  -7  -1   6  611.64   25.70
   7  -1  -6  590.34   23.80
   7   1  -6  622.54   22.60
   6  -1  -6  418.96   17.00
   6   1  -6  422.06   15.90
   5  -1  -6  212.58    9.60
  -5  -1   6  230.48   10.70
  -5   1   6  227.78   11.40
   5   1  -6  211.98    8.70
   4  -1  -6  628.54   24.80
  -4  -1   6  664.13   25.70
  -4   1   6  657.83   24.00
  -4   1   6  667.73   26.70
   3  -1  -6 1510.15   55.19
  -3  -1   6 1473.75   55.99
  -3  -1   6 1604.64   53.39
  -3   1   6 1551.24   57.19
  -3   1   6 1501.55   53.09
  -2  -1   6 3722.13  124.39
  -2   1   6 3567.04  124.29
  -1  -1   6  258.07   10.40
  -1   1   6  265.37   10.40
  -1   1   6  280.17   11.30
   0  -1   6 1644.34   57.09
   0  -1   6 1430.46   54.69
   0   1   6 1628.14   54.99
   0   1   6 1637.74   57.49
   1  -1   6 4483.75  149.39
   1  -1   6 4327.27  155.18
  -1   1  -6 4350.86  156.38
   1   1   6 4436.36  149.59
   1   1   6 4342.07  156.38
   2  -1   6   38.20    2.60
   2   1   6   34.20    2.70
  -2   1  -6   34.90    2.10
   2   1   6   33.40    2.60
   3  -1   6  397.26   15.10
   3  -1   6  398.86   16.30
  -3   1  -6  395.36   14.80
   3   1   6  389.26   15.30
   3   1   6  375.76   15.60
   4  -1   6 1361.46   48.00
   4  -1   6 1332.27   50.39
   4   1   6 1375.56   48.40
   4   1   6 1382.96   49.70
  -4   1  -6 1323.77   49.10
   5  -1   6  247.58   10.90
   5  -1   6  238.28   11.70
   5   1   6  244.18   11.20
  -5   1  -6  244.08   10.20
   5   1   6  245.48   10.90
   6  -1   6  155.28    9.10
   6  -1   6  175.08    8.80
   6   1   6  168.58    8.50
   6   1   6  180.88    9.40
   7  -1   6  416.96   18.40
   7  -1   6  408.56   17.70
   7   1   6  388.26   17.20
   7   1   6  430.46   18.60
   8  -1   6   68.29    5.80
   8  -1   6   82.89    6.30
   8   1   6   66.69    5.20
   8   1   6   71.89    6.30
   9  -1   6  281.87   13.60
   9  -1   6  233.38   13.10
   9   1   6  243.98   13.90
  10  -1   6  194.68   11.80
  10  -1   6  199.68   11.40
  10   1   6  206.58   12.70
  11   1   6   24.10    4.80
 -12   2   6   18.30    4.20
  11  -2  -6   21.30    4.10
 -11   2   6   12.50    3.60
  10  -2  -6    2.00    2.00
 -10   2   6    2.80    2.50
   9  -2  -6   53.99    5.70
  -9   2   6   43.10    5.80
   8  -2  -6   78.59    5.70
  -8   2   6   82.59    7.00
   7  -2  -6   14.10    2.60
  -7   2   6   15.30    3.30
   5  -2  -6    4.40    1.50
  -5   2   6    5.80    2.00
   4  -2  -6   14.60    2.30
  -4   2   6   11.50    1.70
  -4   2   6   13.30    2.50
  -3  -2   6  275.57   12.60
  -3   2   6  358.46   14.30
  -3   2   6  365.36   12.90
   2  -2  -6  183.38    8.60
  -2  -2   6  186.88    7.90
  -2   2   6  194.28    7.90
  -2   2   6  184.98    8.80
  -1  -2   6  189.88    8.40
   1  -2  -6  202.38    8.80
  -1  -2   6  183.78    7.90
  -1   2   6  187.58    7.90
  -1   2   6  194.48    8.80
   0  -2   6    6.00    1.10
   0  -2   6    5.80    1.40
   0   2   6    4.80    1.30
   0   2  -6    5.50    1.30
   0   2   6    4.50    1.10
   1  -2   6  272.67   11.80
   1  -2   6  274.17   10.50
  -1   2  -6  263.37   11.10
   1   2   6  263.97   10.80
   2  -2   6  280.37   11.10
   2  -2   6  292.17   12.70
  -2   2  -6  279.17   11.60
   2   2   6  275.67   11.40
   3  -2   6   37.00    2.80
   3   2   6   41.60    3.20
  -3   2  -6   41.70    3.00
   3   2   6   34.40    2.60
   4  -2   6  228.58    9.30
   4   2   6  200.28    9.50
  -4   2  -6  198.98    9.30
   5  -2   6  148.79    8.80
   5  -2   6  146.09    7.40
  -5   2  -6  146.49    7.30
   5   2   6  154.58    8.00
   6  -2   6    6.10    2.20
   6  -2   6    6.60    2.00
  -6   2  -6   10.20    2.10
   6   2   6    7.60    2.30
   7  -2   6   63.09    5.70
   7  -2   6   61.59    4.90
   7   2   6   63.49    5.50
   8  -2   6    5.30    2.10
   8  -2   6    5.80    2.60
   8   2   6    5.50    2.50
   9  -2   6   16.20    3.30
   9  -2   6   15.60    3.60
   9   2   6   11.00    3.40
  10  -2   6    1.20    2.00
  10  -2   6   -1.00    1.80
  10   2   6   -1.80    2.00
  11  -2   6    4.60    2.60
  11  -2   6    7.00    3.10
  11   2   6    6.40    3.40
  12  -3  -6   15.40    4.00
 -12   3   6   13.10    4.20
  11  -3  -6   17.80    4.40
 -11   3   6   17.60    4.50
  10  -3  -6   -2.60    1.70
 -10   3   6    1.20    2.70
   9  -3  -6   43.70    5.60
  -9   3   6   38.10    5.80
   8  -3  -6  130.19    8.70
  -8   3   6  138.29    9.50
   7  -3  -6   31.50    4.30
  -7   3   6   33.10    4.60
   6  -3  -6  234.08   11.90
  -6   3   6  237.98   12.30
   5  -3  -6  561.64   23.20
  -5   3   6  557.74   23.60
  -4  -3   6   31.10    2.30
  -4   3   6   37.30    4.20
  -3  -3   6  100.09    5.00
  -3   3   6   97.49    4.90
  -3   3   6  105.59    6.40
   2  -3  -6  372.66   15.40
  -2  -3   6  342.87   14.20
  -2   3   6  354.36   13.50
  -2   3   6  354.66   15.50
  -1  -3   6    6.80    1.60
   1  -3  -6    6.10    1.70
  -1  -3   6    6.80    1.20
  -1   3   6    5.30    1.20
   1   3  -6    4.90    1.60
  -1   3   6    6.90    1.90
   0  -3  -6  131.69    7.00
   0  -3   6  123.19    6.90
   0   3  -6  130.29    6.90
   0   3   6  129.69    5.90
   0   3   6  126.59    6.90
  -1  -3  -6   78.59    5.00
   1  -3   6   81.79    5.40
   1   3   6   76.99    5.00
  -1   3  -6   78.19    5.00
   1   3   6   75.59    4.30
  -2  -3  -6  249.68   11.30
   2  -3   6  244.58    9.90
   2  -3   6  270.17   12.50
  -2   3  -6  250.57   11.30
   2   3   6  242.88   10.50
   2   3   6  256.97   11.10
  -3  -3  -6  208.88    9.80
   3  -3   6  205.08    8.70
   3  -3   6  215.08   11.30
   3   3   6  215.98    9.70
  -3   3  -6  212.88   10.00
   3   3   6  209.98    9.40
   4  -3   6   78.29    6.30
   4  -3   6   82.89    4.60
  -4   3  -6   88.59    5.60
   4   3   6   77.79    5.10
   4   3   6   84.69    5.10
   5  -3   6    1.20    1.20
   5  -3   6   -0.80    1.50
   5   3   6    0.70    1.40
  -5   3  -6   -0.70    1.50
   6  -3   6  146.19    9.60
   6  -3   6  157.58    7.80
   6   3   6  150.58    8.60
  -6   3  -6  155.28    8.50
   7  -3   6    0.90    2.00
   7   3   6   -2.00    1.40
   8  -3   6   61.99    6.70
   8   3   6   62.79    6.50
   9  -3   6   18.20    4.10
   9   3   6   14.70    3.70
  10  -3   6    4.70    2.90
  10   3   6    6.90    3.10
  10  -4  -6  111.99    9.20
 -10   4   6  116.29    9.90
   9  -4  -6  123.79    9.40
  -9   4   6  118.29    9.50
   8  -4  -6  111.19    8.60
  -8   4   6  109.59    8.50
   7  -4  -6  135.69    9.10
  -7   4   6  123.39    8.80
   6  -4  -6  311.87   15.60
  -6   4   6  315.07   15.60
   5  -4  -6   40.20    4.90
  -5   4   6   33.60    4.60
   4  -4  -6  425.16   19.40
  -4   4   6  446.36   19.70
   3  -4  -6  374.46   17.60
   3   4  -6  394.36   17.60
  -3   4   6  419.66   18.20
  -2  -4   6   31.60    3.20
   2  -4  -6   27.80    3.80
   2   4  -6   30.70    4.00
  -2   4   6   32.50    4.30
   1  -4  -6  756.62   30.30
  -1  -4   6  759.82   29.50
   1   4  -6  775.22   30.50
  -1   4   6  748.83   30.60
   0  -4  -6  615.84   24.30
   0  -4   6  597.14   24.10
   0   4  -6  557.74   24.10
   0   4   6  590.44   24.50
  -1  -4  -6  458.15   19.90
   1  -4   6  507.85   20.90
   1   4   6  480.25   20.30
  -1   4  -6  475.95   20.20
   1   4   6  471.25   18.00
  -2  -4  -6  524.95   21.30
   2  -4   6  502.95   22.30
   2   4   6  510.75   21.30
   2   4   6  504.55   19.40
  -2   4  -6  510.95   21.40
  -3  -4  -6  122.19    7.30
   3  -4   6  124.39    8.50
   3   4   6  115.09    6.30
  -3   4  -6  130.19    7.60
   3   4   6  117.39    7.20
   4  -4   6   44.40    5.70
   4   4   6   31.70    3.40
  -4   4  -6   32.40    4.40
   4   4   6   34.00    4.10
   5  -4   6  182.08   11.40
  -5   4  -6  177.18   10.10
   5   4   6  183.28    9.20
   6  -4   6   33.20    5.20
   6   4   6   31.90    3.90
  -6   4  -6   24.60    4.00
   7  -4   6  148.69   10.30
   7   4   6  140.09    8.70
   8  -4   6  111.39    8.70
   8   4   6   86.89    7.20
   9  -4   6    5.50    2.80
   9   4   6    1.60    2.40
   9  -5  -6    4.90    3.20
  -9   5   6    3.60    3.20
   8  -5  -6   41.40    6.40
  -8   5   6   36.50    5.90
   7  -5  -6   47.80    6.50
  -7   5   6   43.40    6.00
   6  -5  -6  132.39    9.70
   6   5  -6  141.89    9.30
  -6   5   6  120.29    9.10
   5  -5  -6  257.97   14.10
  -5   5   6  252.97   13.90
   5   5  -6  237.28   13.20
   4  -5  -6    8.30    3.00
   4   5  -6    3.50    2.50
  -4   5   6    2.30    2.50
   3  -5  -6  117.59    8.40
   3   5  -6  120.59    8.10
  -3   5   6  112.39    8.20
   2  -5  -6  242.68   12.90
  -2   5   6  235.78   12.90
   2   5  -6  237.38   12.60
   1  -5  -6    7.10    2.60
  -1  -5   6    9.70    2.40
   1   5  -6    8.80    2.80
  -1   5   6    6.50    2.60
   0  -5   6  589.54   24.00
   0  -5  -6  551.34   24.10
   0   5  -6  532.05   24.00
   0   5   6  569.04   24.50
  -1  -5  -6  179.28   10.30
   1  -5   6  177.78   10.60
  -1   5  -6  176.48   10.20
   1   5   6  187.88   10.50
   2  -5   6  105.49    8.10
  -2  -5  -6  121.99    7.70
   2   5   6  116.69    7.90
  -2   5  -6  100.49    7.40
   3  -5   6  231.98   13.90
  -3   5  -6  257.67   13.30
   3   5   6  266.97   13.10
   4  -5   6   53.29    6.80
   4   5   6   59.39    6.00
  -4   5  -6   68.39    6.20
   5  -5   6    2.50    2.40
  -5   5  -6    2.30    2.50
   6  -5   6  140.39   10.40
  -6   5  -6  132.19    9.30
   7  -5   6   26.40    5.20
   6  -6  -6   79.59    9.20
  -6   6   6   81.69    8.90
   6   6  -6   91.69    8.00
   5  -6  -6    4.00    3.10
  -5   6   6    1.50    2.80
   5   6  -6    5.80    2.90
   4  -6  -6    2.10    2.60
  -4   6   6    2.20    2.80
   4   6  -6    1.60    2.60
   3  -6  -6   60.69    7.50
   3   6  -6   65.89    7.20
  -3   6   6   69.49    7.90
   2  -6  -6    2.70    2.70
  -2   6   6    4.50    3.10
   2   6  -6    0.30    2.50
   1  -6  -6   28.40    5.00
  -1   6   6   24.40    4.80
   1   6  -6   37.30    5.30
   0  -6  -6  219.68   12.60
   0   6  -6  201.98   12.00
   0   6   6  182.08   11.90
   1  -6   6   10.60    3.30
  -1   6  -6    8.50    3.30
   1   6   6   13.30    3.70
   2  -6   6   -0.20    2.30
   2   6   6    1.60    2.50
  -2   6  -6   -0.50    2.50
   3  -6   6    7.00    3.30
  -3   6  -6    5.30    3.10
   3   6   6    7.00    3.40
   4  -6   6   -1.40    2.50
  -4   6  -6    0.10    2.70
 -13   0   7    0.90    2.50
 -12   0   7   -1.60    1.90
 -11   0   7   -0.70    2.00
 -10   0   7    0.90    2.40
  -9   0   7   -0.80    1.90
   9   0  -7    0.40    1.30
   8   0  -7    1.10    1.00
  -8   0   7   -1.20    1.40
  -7   0   7   -0.60    0.90
   7   0  -7    2.50    1.10
  -6   0   7    0.40    1.00
   6   0  -7   -0.30    0.80
   5   0  -7    1.10    0.80
  -5   0   7    0.60    1.30
  -4   0   7   -1.10    0.60
  -4   0   7    0.20    1.10
  -3   0   7    0.90    1.00
  -3   0   7   -0.30    0.30
  -2   0   7   -1.20    0.50
  -2   0   7   -0.50    0.60
  -1   0   7   -1.30    0.60
  -1   0   7    0.90    0.80
   0   0   7   -0.10    0.60
   0   0   7   -0.30    0.40
   0   0   7    2.10    1.00
   1   0   7   -0.10    0.50
   1   0   7   -0.20    0.60
   2   0   7    2.40    1.20
   2   0   7   -0.20    0.70
   3   0   7   -0.90    0.80
   3   0   7   -1.60    0.60
   4   0   7    1.90    1.10
   4   0   7   -0.20    1.00
   5   0   7    4.00    1.70
   5   0   7    2.30    1.20
   6   0   7   -1.80    1.10
   6   0   7   -1.30    0.90
   7   0   7   -1.60    1.30
   7   0   7   -0.50    1.50
   8   0   7   -0.80    1.50
   8   0   7   -1.40    1.70
   9   0   7    0.90    1.80
   9   0   7    1.50    1.90
  10   0   7   -0.60    1.80
  11   0   7    1.50    2.20
 -13  -1   7   66.09    7.70
 -13   1   7   60.99    7.20
 -12  -1   7   11.00    3.80
 -12   1   7    9.80    3.40
 -11  -1   7  199.88   12.40
 -11   1   7  199.38   12.00
 -10  -1   7  107.59    8.30
  10  -1  -7  101.69    6.90
 -10   1   7  105.39    8.00
   9  -1  -7   69.39    5.30
  -9  -1   7   75.29    6.80
  -9   1   7   85.49    6.80
   8  -1  -7  215.68   10.20
  -8  -1   7  189.78   11.50
  -8   1   7  219.88   11.90
   7  -1  -7  213.78   10.20
   7   1  -7  224.58    9.20
   5  -1  -7  497.85   20.30
  -5  -1   7  542.95   21.60
  -5   1   7  513.25   22.20
  -4  -1   7  113.69    5.80
   4  -1  -7  103.19    5.60
  -4  -1   7  114.09    6.30
  -4   1   7  106.99    5.50
  -4   1   7  110.49    7.00
  -3  -1   7  917.11   35.70
  -3  -1   7  988.70   34.20
   3  -1  -7  943.71   35.30
  -3   1   7  973.50   37.10
  -3   1   7  933.71   33.90
  -2  -1   7  320.07   12.40
  -2  -1   7  308.57   12.20
  -2   1   7  308.77   13.60
  -2   1   7  291.67   12.00
  -1  -1   7    1.30    0.80
  -1  -1   7    1.70    0.80
  -1   1   7    0.60    0.70
  -1   1   7    2.90    1.20
   0  -1   7 1008.80   34.40
   0  -1   7  978.20   35.70
   0   1   7  880.91   35.80
   0   1   7  998.40   34.50
   1  -1   7  275.67   10.60
   1  -1   7  260.47   11.20
   1   1   7  238.48   10.20
   1   1   7  254.17   10.60
  -1   1  -7  267.57   10.20
   2  -1   7  139.69    6.50
   2   1   7  135.19    6.60
  -2   1  -7  137.39    5.70
   3  -1   7  529.15   21.10
   3  -1   7  516.35   19.70
   3   1   7  526.15   20.50
   3   1   7  517.95   19.90
  -3   1  -7  517.65   19.40
   4  -1   7  287.77   11.70
   4  -1   7  277.17   12.70
   4   1   7  273.07   11.90
   4   1   7  273.77   12.00
  -4   1  -7  258.97   10.60
   5  -1   7   34.90    3.60
   5  -1   7   41.60    4.60
   5   1   7   44.50    3.70
   5   1   7   39.70    4.00
   6  -1   7  312.37   15.40
   6  -1   7  351.96   14.70
   6   1   7  323.67   14.60
   6   1   7  343.97   15.10
   7  -1   7  310.27   15.50
   7  -1   7  327.67   15.00
   7   1   7  341.47   15.60
   7   1   7  336.17   14.80
   8  -1   7   66.89    5.80
   8  -1   7   81.89    6.50
   8   1   7   79.19    6.60
   8   1   7   77.29    5.70
   9  -1   7  118.09    8.40
   9  -1   7  126.09    8.60
   9   1   7  136.59    9.30
  10  -1   7   67.79    7.20
  10  -1   7   68.99    7.00
  10   1   7   66.39    7.40
  11  -1   7   25.30    4.70
  11   1   7   36.80    5.60
 -12   2   7  214.28   13.00
  11  -2  -7    9.50    3.10
 -11   2   7    4.90    2.90
  10  -2  -7  295.87   14.50
 -10   2   7  267.47   15.10
   9  -2  -7  154.28    9.10
  -9   2   7  153.08   10.10
   8  -2  -7   59.89    5.00
  -8   2   7   56.99    6.60
   7  -2  -7  727.83   29.90
  -7   2   7  797.82   32.30
   6  -2  -7  870.31   32.90
  -6   2   7  821.82   34.50
   5  -2  -7   -1.00    0.90
  -5   2   7    1.70    1.50
   4  -2  -7 1596.14   58.29
  -4   2   7 1553.54   59.69
  -4   2   7 1614.94   55.69
   3  -2  -7  367.86   15.50
  -3  -2   7  362.26   14.50
  -3  -2   7  366.76   14.40
  -3   2   7  364.46   14.30
  -3   2   7  389.06   16.00
  -2  -2   7  579.44   22.00
  -2  -2   7  587.44   21.40
   2  -2  -7  582.24   22.70
  -2   2   7  570.54   21.30
  -2   2   7  580.44   23.00
  -1  -2   7 3308.47  111.59
   1  -2  -7 3280.57  116.19
  -1  -2   7 3208.98  115.79
  -1   2   7 3248.77  117.69
  -1   2   7 3246.08  111.59
   0  -2   7  912.61   32.40
   0  -2   7  891.91   34.00
   0   2   7  899.51   34.10
   0   2   7  937.31   32.60
   0   2  -7  908.01   34.10
   1  -2   7  631.34   24.30
   1  -2   7  606.54   22.60
   1   2   7  634.24   23.00
  -1   2  -7  603.14   23.60
   2  -2   7 1601.84   56.89
   2  -2   7 1571.24   53.69
   2   2   7 1379.56   55.79
  -2   2  -7 1566.14   56.09
   2   2   7 1565.04   53.99
   3  -2   7  139.99    6.70
   3   2   7  140.89    7.10
   3   2   7  144.99    6.40
  -3   2  -7  144.59    6.80
   4  -2   7  569.44   21.20
   4  -2   7  550.44   23.40
   4   2   7  531.45   21.60
  -4   2  -7  580.24   21.90
   5  -2   7 1130.89   45.40
   5  -2   7 1172.98   42.40
   5   2   7 1192.98   43.20
  -5   2  -7 1199.58   43.70
   6  -2   7  348.67   17.20
   6  -2   7  372.06   15.60
   6   2   7  381.26   16.40
   7  -2   7  308.07   15.50
   7  -2   7  317.47   14.10
   7   2   7  299.37   14.80
   8  -2   7  429.96   19.50
   8  -2   7  383.46   17.70
   8   2   7  410.76   19.00
   9  -2   7    2.70    2.50
   9  -2   7    0.50    1.60
   9   2   7   -0.80    1.60
  10  -2   7  158.58   10.20
  10  -2   7  182.68   11.10
  10   2   7  175.48   11.60
  11  -3  -7  192.68   12.00
 -11   3   7  179.88   12.30
  10  -3  -7    5.20    2.80
 -10   3   7    9.90    3.60
   9  -3  -7   98.59    7.60
  -9   3   7  106.89    8.70
   8  -3  -7  203.88   11.20
  -8   3   7  187.08   11.80
   7  -3  -7   33.40    4.40
  -7   3   7   36.80    5.20
   6  -3  -7  108.69    7.20
  -6   3   7  110.19    7.60
   5  -3  -7  921.51   36.80
  -5   3   7  969.80   37.60
  -4  -3   7  132.69    6.40
  -4   3   7  154.58    8.50
  -4   3   7  153.08    6.90
  -3  -3   7  583.14   22.20
  -3   3   7  599.84   21.70
  -3   3   7  573.04   24.00
   2  -3  -7 1424.06   53.39
  -2  -3   7 1450.75   50.39
  -2  -3   7 1421.16   52.29
  -2   3   7 1462.95   50.29
  -2   3   7 1433.76   54.09
   1  -3  -7  171.98    8.60
  -1  -3   7  166.18    7.30
  -1  -3   7  168.78    8.10
   1   3  -7  181.18    8.60
  -1   3   7  165.48    7.40
  -1   3   7  153.38    8.40
   0  -3  -7  822.92   31.70
   0  -3   7  822.52   31.70
   0  -3   7  825.02   29.50
   0   3   7  818.22   31.90
   0   3  -7  827.82   31.80
   0   3   7  830.02   29.80
  -1  -3  -7  809.82   31.90
   1  -3   7  838.62   29.80
   1  -3   7  870.41   32.60
   1   3   7  833.12   32.10
   1   3   7  843.12   30.30
  -1   3  -7  802.62   31.90
   2  -3   7    2.30    1.10
  -2  -3  -7    0.80    1.30
   2  -3   7    2.40    1.50
   2   3   7    2.70    1.60
  -2   3  -7    1.70    1.40
   2   3   7   -1.70    1.00
  -3  -3  -7  426.06   17.10
   3  -3   7  404.66   15.50
   3  -3   7  391.86   18.10
   3   3   7  376.16   16.00
   3   3   7  404.06   16.50
  -3   3  -7  408.86   16.90
   4  -3   7  193.18   11.00
   4  -3   7  192.48    8.80
  -4   3  -7  204.48    9.80
   4   3   7  196.48    9.40
   5  -3   7   -1.50    1.30
   5  -3   7   -0.80    0.90
   5   3   7   -1.00    1.30
  -5   3  -7   -1.70    1.50
   6  -3   7  297.87   12.70
   6  -3   7  276.17   15.00
   6   3   7  293.87   13.70
   7  -3   7  133.89    9.20
   7   3   7  120.89    8.10
   8  -3   7   73.69    7.60
   8   3   7   59.09    6.50
   9  -3   7  107.79    8.50
   9   3   7   90.59    7.80
  10  -3   7    2.90    2.70
  10   3   7    2.10    2.50
  10  -4  -7   82.89    8.80
 -10   4   7   79.89    9.20
   9  -4  -7   -1.10    2.00
  -9   4   7    0.80    2.60
   8  -4  -7   -1.60    1.70
  -8   4   7   -0.40    1.90
   7  -4  -7   18.30    3.80
  -7   4   7   23.00    4.50
   6  -4  -7    7.30    2.70
  -6   4   7   12.00    3.10
   5  -4  -7   10.50    2.70
  -5   4   7    7.30    2.60
   4  -4  -7  141.89    8.80
  -4   4   7  150.98    9.20
   3  -4  -7  241.08   12.30
   3   4  -7  243.18   12.20
  -3   4   7  241.38   12.40
  -2  -4   7    2.70    1.40
   2  -4  -7    1.40    1.60
   2   4  -7    1.60    1.80
  -2   4   7    1.80    1.80
  -1  -4   7  109.39    6.40
   1  -4  -7  107.09    7.00
   1   4  -7  104.49    6.90
  -1   4   7  108.69    7.20
   0  -4   7  167.58    9.00
   0  -4  -7  176.88    9.30
   0   4  -7  162.58    9.10
   0   4   7  162.58    9.20
   0   4   7  170.38    7.60
   1  -4   7  169.68    9.30
  -1  -4  -7  159.78    8.80
  -1   4  -7  156.38    8.70
   1   4   7  152.08    7.40
   1   4   7  159.48    8.90
  -2  -4  -7   94.49    6.30
   2  -4   7   94.39    6.90
   2   4   7   82.49    5.00
  -2   4  -7   78.29    5.80
   2   4   7   83.69    6.20
  -3  -4  -7  238.58   11.70
   3  -4   7  219.08   12.70
   3   4   7  243.08   10.70
   3   4   7  251.37   11.70
  -3   4  -7  228.48   11.70
   4  -4   7   12.60    3.30
   4   4   7   14.80    2.40
  -4   4  -7   12.60    2.90
   5  -4   7    8.10    2.90
   5   4   7    4.60    1.90
  -5   4  -7    6.00    2.60
   6  -4   7   83.69    7.30
   6   4   7   70.29    5.60
   7  -4   7   31.30    5.30
   7   4   7   36.60    4.60
   8  -4   7   40.20    6.00
   8   4   7   33.90    4.90
   8  -5  -7    3.20    2.90
  -8   5   7    0.00    2.60
   7  -5  -7   10.60    3.60
  -7   5   7   10.20    3.50
   6  -5  -7   25.40    4.80
   6   5  -7   31.10    4.90
  -6   5   7   15.30    4.00
   5  -5  -7    0.80    2.20
  -5   5   7    3.10    2.60
   5   5  -7    4.20    2.50
   4  -5  -7    2.20    2.20
  -4   5   7   -0.80    1.90
   4   5  -7    0.70    2.10
   3  -5  -7    9.60    3.10
   3   5  -7    7.80    3.00
  -3   5   7    8.20    2.90
   2  -5  -7    3.10    2.20
   2   5  -7    2.60    2.20
  -2   5   7    4.30    2.60
   1  -5  -7    4.90    2.40
  -1  -5   7    7.10    2.30
   1   5  -7    8.40    3.00
  -1   5   7    9.40    3.10
   0  -5  -7    9.60    2.90
   0  -5   7   10.40    2.80
   0   5  -7   11.10    3.10
   0   5   7   15.30    3.40
  -1  -5  -7   44.70    5.30
   1  -5   7   47.90    5.60
  -1   5  -7   40.70    5.00
   1   5   7   48.60    5.60
  -2  -5  -7    0.60    1.80
   2  -5   7    0.40    2.00
   2   5   7   -0.80    2.00
  -2   5  -7   -0.70    2.10
   3  -5   7   18.20    4.00
  -3   5  -7   17.50    3.80
   3   5   7   15.60    3.60
   4  -5   7   25.00    4.80
  -4   5  -7   31.10    4.70
   5  -5   7    3.20    2.70
  -5   5  -7    1.50    2.60
   6  -5   7    0.40    2.50
   7  -5   7    0.30    2.30
   5  -6  -7   37.00    6.20
   5   6  -7   37.70    5.80
  -5   6   7   29.40    5.40
   4  -6  -7   67.99    8.00
   4   6  -7   71.29    7.50
  -4   6   7   71.99    8.00
   3  -6  -7   27.20    5.00
   3   6  -7   16.10    4.00
  -3   6   7   22.30    4.70
   2  -6  -7   21.10    4.50
  -2   6   7   16.90    4.40
   2   6  -7   16.50    4.00
   1  -6  -7   91.79    8.20
   1   6  -7   96.99    7.90
  -1   6   7   98.99    8.40
   0  -6  -7   95.69    8.20
   0   6  -7  102.29    8.10
   0   6   7  107.59    8.70
   1  -6   7   13.90    3.60
   1   6   7   22.80    4.80
  -1   6  -7   14.70    3.70
   2  -6   7  101.09    8.40
  -2   6  -7   86.99    7.80
   2   6   7  109.09    8.60
   3  -6   7   -1.00    2.30
  -3   6  -7    1.90    2.90
 -13   0   8   97.19    8.40
 -12   0   8  143.29   10.10
 -11   0   8   86.49    7.60
 -10   0   8  364.76   18.20
  -9   0   8 1075.79   43.90
   9   0  -8 1093.39   40.70
  -8   0   8  299.17   15.30
   8   0  -8  302.77   12.90
   7   0  -8  254.87   11.00
  -6   0   8 1296.27   51.99
   6   0  -8 1403.36   49.50
  -5   0   8 2031.90   80.69
  -5   0   8 2286.17   76.29
   5   0  -8 2214.38   78.09
  -4   0   8 2858.31   96.89
  -4   0   8 2423.16   91.09
  -3   0   8 2061.69   75.59
  -2   0   8 2887.41   99.39
  -1   0   8 3378.16  117.79
  -1   0   8 3490.05  123.19
   0   0   8   16.90    2.20
   0   0   8   16.70    1.40
   0   0   8   13.00    1.90
   1   0   8  825.82   31.20
   2   0   8 3702.33  127.59
   2   0   8 3728.73  132.39
   3   0   8   95.19    5.40
   3   0   8   98.09    5.80
   4   0   8   27.40    3.10
   4   0   8   36.80    3.80
   5   0   8 1202.08   44.00
   5   0   8 1208.78   45.70
   6   0   8  166.78    9.10
   6   0   8  173.48    9.50
   7   0   8  167.18    9.30
   7   0   8  145.79    9.00
   8   0   8  753.82   29.70
   8   0   8  684.33   29.40
   9   0   8   34.50    5.10
   9   0   8   25.10    4.10
  10   0   8   46.50    6.20
  11   0   8   96.69    8.60
 -13  -1   8   11.70    3.90
 -13   1   8    5.90    3.00
 -12  -1   8   77.59    8.40
 -12   1   8   78.29    7.20
 -11  -1   8  204.08   12.80
 -11   1   8  202.68   12.20
  10  -1  -8   10.40    2.60
 -10  -1   8    7.40    3.20
 -10   1   8   12.50    3.40
   9  -1  -8  302.37   13.50
  -9  -1   8  256.97   14.90
  -9   1   8  304.77   15.40
   8  -1  -8  404.76   17.50
  -8  -1   8  387.86   19.40
  -8   1   8  457.55   19.90
  -7  -1   8    4.90    2.10
   7  -1  -8    1.10    1.10
   7   1  -8    1.30    0.90
  -7   1   8    5.30    2.10
  -6  -1   8  943.21   37.20
   6  -1  -8  908.71   35.30
   6   1  -8  917.21   34.20
  -6   1   8  974.10   37.80
   5  -1  -8 1649.63   61.99
  -5  -1   8 1746.43   63.89
  -5   1   8 1734.83   64.79
  -5   1   8 1686.63   59.99
  -4  -1   8  163.38    8.20
   4  -1  -8  152.58    7.70
  -4  -1   8  168.98    7.80
  -4   1   8  162.58    9.10
  -4   1   8  154.38    7.40
  -3  -1   8 1452.15   48.50
  -3  -1   8 1349.47   50.69
  -3   1   8 1290.87   51.79
  -3   1   8 1382.26   48.30
  -2  -1   8 1148.09   39.10
  -2  -1   8 1163.78   40.30
  -2   1   8 1091.09   38.90
  -2   1   8  973.10   41.50
  -1  -1   8  193.28    8.50
  -1  -1   8  204.38    8.90
  -1   1   8  196.58    8.60
   0  -1   8  490.35   18.50
   0  -1   8  475.85   17.60
   0   1   8  472.15   17.70
   0   1   8  414.46   18.10
   1  -1   8  388.06   15.20
   1  -1   8  395.46   16.00
   1   1   8  395.76   15.00
   1   1   8  386.76   15.30
  -1   1  -8  378.16   14.80
   2  -1   8    0.00    0.50
   2  -1   8    2.90    1.10
   2   1   8    5.70    1.40
  -2   1  -8    5.80    0.90
   3  -1   8  442.46   18.00
   3  -1   8  426.26   16.60
  -3   1  -8  409.76   15.80
   3   1   8  425.66   17.30
   3   1   8  412.66   16.80
   4  -1   8  881.61   32.00
   4  -1   8  894.31   33.90
   4   1   8  838.42   33.00
   4   1   8  847.72   32.10
   5  -1   8    4.30    1.50
   5  -1   8    5.30    2.10
   5   1   8    7.30    2.00
   5   1   8    5.30    1.80
   6  -1   8  246.38   13.20
   6  -1   8  262.37   12.30
   6   1   8  285.67   13.00
   6   1   8  265.87   12.60
   7  -1   8  292.97   13.60
   7  -1   8  274.77   14.30
   7   1   8  276.07   13.50
   7   1   8  293.77   14.10
   8  -1   8    1.40    1.60
   8  -1   8   -1.30    1.70
   8   1   8    0.90    1.80
   8   1   8    1.30    1.80
   9  -1   8   65.79    6.90
   9  -1   8   67.79    6.20
   9   1   8   67.29    7.30
  10  -1   8   15.20    3.80
  10  -1   8   24.80    4.50
  10   1   8   22.90    4.60
 -12   2   8   26.00    5.00
  11  -2  -8    3.30    2.40
 -11   2   8    5.70    2.90
  10  -2  -8   28.90    4.30
 -10   2   8   26.30    4.70
   9  -2  -8  146.69    8.70
  -9   2   8  136.59    9.70
   8  -2  -8    4.00    1.90
  -8   2   8    4.50    2.40
   7  -2  -8    3.90    1.80
  -7   2   8    6.60    2.60
   6  -2  -8  130.09    7.60
  -6   2   8  142.69    9.10
   5  -2  -8    0.70    1.20
  -5   2   8    0.60    1.00
  -5   2   8    0.40    1.70
   4  -2  -8    1.40    1.10
  -4   2   8    2.80    1.20
  -4   2   8    0.60    1.40
   3  -2  -8   68.89    4.80
  -3  -2   8   73.59    4.30
  -3  -2   8   83.69    4.70
  -3   2   8   87.29    5.60
  -3   2   8   82.39    4.50
  -2  -2   8  225.78   10.00
  -2  -2   8  246.58   10.00
  -2   2   8  231.78    9.90
  -2   2   8  235.98   10.90
  -1  -2   8  236.28   10.30
  -1  -2   8  234.48    9.80
  -1   2   8  225.58    9.80
  -1   2   8  237.48   10.50
   0  -2   8    3.20    1.10
   0  -2   8    4.00    1.40
   0   2  -8    1.30    1.00
   0   2   8   11.50    1.90
   0   2   8    2.20    1.10
   1  -2   8   24.70    3.00
   1  -2   8   25.00    2.50
   1   2   8   26.50    2.70
  -1   2  -8   25.20    2.60
   2  -2   8   49.10    4.20
   2  -2   8   45.20    3.30
   2   2   8   48.50    3.60
   2   2   8   50.59    3.30
  -2   2  -8   47.80    3.30
   3  -2   8    0.30    0.80
   3  -2   8    3.50    1.20
   3   2   8    6.40    1.70
  -3   2  -8    3.50    1.30
   4  -2   8   11.30    2.00
   4  -2   8   10.50    2.70
   4   2   8    9.70    2.00
   5  -2   8  222.18   10.30
   5  -2   8  213.58   11.80
   5   2   8  229.88   10.90
   6  -2   8   40.50    5.20
   6  -2   8   44.10    3.90
   6   2   8   38.70    4.50
   7  -2   8   78.79    5.70
   7  -2   8   71.99    6.50
   7   2   8   69.89    6.00
   8  -2   8   69.79    5.90
   8  -2   8   79.39    6.90
   8   2   8   84.49    7.00
   9  -2   8   11.60    3.10
   9  -2   8   10.30    3.30
   9   2   8    7.30    2.80
  10  -2   8   50.29    6.40
  10  -2   8   47.20    6.00
  10   2   8   52.19    6.90
  11  -3  -8   86.39    7.70
 -11   3   8   80.69    8.80
  10  -3  -8   -0.40    2.00
 -10   3   8   -1.60    2.20
   9  -3  -8   39.90    5.20
  -9   3   8   36.10    5.90
   8  -3  -8   88.89    6.90
  -8   3   8   83.29    7.50
   7  -3  -8    0.40    1.60
  -7   3   8    1.90    2.20
   6  -3  -8  108.79    7.20
  -6   3   8  116.49    8.10
   5  -3  -8  282.37   13.50
  -5   3   8  282.47   14.00
  -4  -3   8   85.39    4.70
   4  -3  -8   84.39    5.90
  -4   3   8   86.39    6.20
  -4   3   8   92.99    5.10
  -3  -3   8  471.15   18.00
   3  -3  -8  421.26   19.20
  -3   3   8  464.95   17.60
  -3   3   8  468.65   19.70
  -2  -3   8   87.69    4.90
   2  -3  -8   89.59    5.80
  -2  -3   8   85.59    5.10
  -2   3   8   95.89    6.00
  -2   3   8   82.59    4.80
  -1  -3   8   28.30    3.10
  -1  -3   8   22.50    2.40
   1  -3  -8   26.40    3.30
  -1   3   8   31.50    3.60
   1   3  -8   23.40    3.10
  -1   3   8   24.80    2.50
   0  -3   8  595.64   23.30
   0  -3   8  567.04   21.40
   0  -3  -8  571.54   23.30
   0   3  -8  566.94   23.10
   0   3   8  596.44   21.90
   0   3   8  580.74   23.40
   1  -3   8  367.46   14.60
   1  -3   8  397.26   16.70
  -1  -3  -8  366.06   16.10
   1   3   8  359.26   15.00
   1   3   8  391.16   16.10
  -1   3  -8  385.26   15.90
  -2  -3  -8    8.30    2.00
   2  -3   8    5.30    1.90
   2  -3   8    5.80    1.40
   2   3   8    7.20    1.90
  -2   3  -8    3.80    1.60
   2   3   8    3.90    1.50
   3  -3   8  173.08    8.10
   3  -3   8  179.88   10.30
   3   3   8  183.88    8.80
  -3   3  -8  180.88    8.90
   4  -3   8   22.30    3.90
   4  -3   8   14.40    2.30
   4   3   8   10.20    2.40
  -4   3  -8   18.00    2.80
   5  -3   8    2.30    2.10
   5  -3   8    2.00    1.40
   5   3   8    2.50    1.70
   6  -3   8   46.00    6.00
   6  -3   8   54.79    4.40
   6   3   8   56.09    5.00
   7  -3   8   10.50    3.30
   7   3   8    8.40    2.70
   8  -3   8    4.70    2.80
   8   3   8    4.40    2.50
   9  -3   8   26.90    5.00
   9   3   8   31.00    5.10
  10  -4  -8  141.59   10.60
 -10   4   8  144.19   11.40
   9  -4  -8   23.60    4.70
  -9   4   8   18.80    4.50
   8  -4  -8   51.39    6.30
  -8   4   8   60.29    7.10
   7  -4  -8  104.69    8.00
  -7   4   8  107.89    8.40
   6  -4  -8   62.99    5.80
  -6   4   8   64.49    6.10
   5  -4  -8  146.79    9.20
  -5   4   8  151.68    9.40
   4  -4  -8  415.66   18.80
  -4   4   8  405.56   18.80
   3  -4  -8   18.40    3.40
  -3   4   8   19.40    3.50
   3   4  -8   16.80    3.30
   2  -4  -8   52.19    4.90
  -2  -4   8   56.49    4.20
  -2   4   8   59.19    5.30
   2   4  -8   53.69    5.00
  -1  -4   8    7.80    2.10
   1  -4  -8   24.50    3.60
  -1   4   8   11.90    2.90
   1   4  -8    7.80    2.50
   0  -4   8    3.90    1.90
   0  -4  -8    5.40    1.90
   0   4   8    6.60    1.60
   0   4  -8    3.30    2.10
   0   4   8    2.70    2.10
  -1  -4  -8  185.18   10.10
   1  -4   8  197.88   10.60
  -1   4  -8  188.78   10.00
   1   4   8  187.58    8.80
   1   4   8  203.08   10.40
   2  -4   8  273.47   13.90
  -2  -4  -8  285.47   13.30
  -2   4  -8  257.07   12.70
   2   4   8  271.37   13.10
   2   4   8  267.17   11.80
  -3  -4  -8    2.40    1.90
   3  -4   8    0.60    1.90
   3   4   8   -0.70    1.30
  -3   4  -8    1.10    1.80
   4  -4   8  101.99    8.00
  -4   4  -8   93.59    6.70
   4   4   8  102.19    6.30
   5  -4   8   72.99    7.70
   5   4   8   76.69    5.60
   6  -4   8    7.60    3.00
   6   4   8    5.70    2.30
   7  -4   8   83.79    7.80
   7   4   8   84.09    6.70
   8  -4   8  127.99   10.00
   8   4   8  124.59    8.90
   8  -5  -8   80.79    8.70
  -8   5   8   68.49    8.00
   7  -5  -8   13.80    3.90
  -7   5   8   13.00    3.80
   6  -5  -8   60.19    7.00
   6   5  -8   60.59    6.90
  -6   5   8   53.59    6.80
   5  -5  -8  339.07   17.00
   5   5  -8  307.57   16.10
  -5   5   8  318.17   16.60
   4  -5  -8   20.80    4.10
  -4   5   8   31.10    4.80
   4   5  -8   23.00    4.10
   3  -5  -8  105.79    8.10
   3   5  -8  117.79    8.20
  -3   5   8  120.09    8.50
   2  -5  -8  216.18   12.10
  -2   5   8  229.28   12.40
   2   5  -8  202.58   11.70
   1  -5  -8   17.00    3.60
  -1  -5   8   21.30    3.30
  -1   5   8   19.60    3.90
   1   5  -8   23.90    4.00
   0  -5  -8   21.70    4.00
   0  -5   8   31.70    4.30
   0   5   8   26.20    4.30
   0   5  -8   24.50    4.20
  -1  -5  -8  439.46   20.10
   1  -5   8  437.26   20.20
   1   5   8  459.65   20.30
  -1   5  -8  418.36   19.70
  -2  -5  -8   22.70    3.90
   2  -5   8   19.90    4.10
  -2   5  -8   21.90    3.80
   2   5   8   20.90    4.00
   3  -5   8   72.69    7.90
  -3   5  -8   80.49    6.60
   4  -5   8   78.99    8.60
  -4   5  -8   89.59    7.20
   5  -5   8    4.40    3.00
   6  -5   8   87.79    9.40
   5  -6  -8    0.20    2.60
   5   6  -8    0.70    2.50
  -5   6   8    0.80    2.80
   4  -6  -8   25.30    4.90
  -4   6   8   28.70    5.40
   4   6  -8   34.80    5.40
   3  -6  -8   -0.40    2.40
   3   6  -8    0.00    2.40
  -3   6   8    3.30    3.00
   2  -6  -8   14.40    4.10
   2   6  -8   18.00    4.20
  -2   6   8   16.00    4.40
   1  -6  -8    4.60    3.10
  -1   6   8   12.40    4.10
   1   6  -8    5.50    3.20
   0  -6  -8   12.90    4.00
   0   6  -8   13.80    3.80
   0   6   8   14.60    4.30
   1  -6   8    1.50    2.30
  -1   6  -8   -0.40    2.40
   1   6   8    2.20    2.90
   2  -6   8   16.20    4.10
  -2   6  -8   20.40    4.60
 -13   0   9    2.60    2.80
 -12   0   9    0.80    2.40
 -11   0   9    0.50    2.20
 -10   0   9   -1.50    1.90
  -9   0   9    0.70    2.00
   8   0  -9   -1.00    1.00
  -8   0   9   -0.80    1.70
   7   0  -9    1.20    1.00
  -7   0   9   -0.90    1.30
  -6   0   9   -1.20    1.20
  -5   0   9    1.60    1.10
  -5   0   9    0.50    1.30
   5   0  -9    0.40    0.90
  -4   0   9    1.30    1.30
  -4   0   9   -0.50    0.90
  -3   0   9   -0.80    0.40
  -3   0   9    0.20    1.00
  -2   0   9    0.50    0.60
  -2   0   9    0.10    0.80
  -1   0   9    0.00    0.60
  -1   0   9    2.10    1.00
   0   0   9    0.50    0.90
   0   0   9    0.00    0.80
   1   0   9    1.30    1.00
   1   0   9   -0.20    0.70
   2   0   9   -1.00    0.60
   2   0   9    0.80    1.00
   3   0   9   -0.40    0.60
   3   0   9   -0.30    1.00
   4   0   9    2.00    1.20
   4   0   9    1.90    1.60
   5   0   9   -0.70    1.50
   5   0   9    1.00    1.50
   6   0   9   -0.50    1.20
   6   0   9    0.70    1.80
   7   0   9   -2.80    1.50
   7   0   9   -0.80    1.30
   8   0   9   -2.10    1.50
   8   0   9    3.40    2.10
   9   0   9   -0.20    1.80
   9   0   9   -1.10    1.90
  10   0   9    1.00    2.20
 -12  -1   9   26.10    5.10
 -12   1   9   26.30    4.90
 -11  -1   9  125.29    9.80
 -11   1   9  134.49    9.50
 -10  -1   9   -2.20    1.80
  10  -1  -9    0.80    1.50
 -10   1   9    0.50    2.10
   9  -1  -9  167.48    9.00
  -9  -1   9  152.18   10.50
  -9   1   9  180.48   10.90
   8  -1  -9  699.73   27.70
  -8  -1   9  647.94   29.70
  -8   1   9  751.02   30.40
   7  -1  -9    0.90    1.10
  -7  -1   9    0.00    1.50
  -7   1   9    2.30    2.00
   7   1  -9    3.00    1.20
  -6  -1   9  214.38   11.60
   6  -1  -9  223.98   10.60
   6   1  -9  218.28    9.70
  -6   1   9  263.57   12.80
  -5  -1   9 1046.80   39.80
  -5  -1   9 1026.80   37.50
   5  -1  -9  993.70   38.30
  -5   1   9 1037.60   40.60
  -5   1   9 1009.10   37.20
  -4  -1   9   34.00    3.50
   4  -1  -9   32.20    2.90
  -4  -1   9   26.70    2.90
  -4   1   9   25.10    2.80
  -4   1   9   28.80    4.00
  -3  -1   9 1225.48   41.30
  -3   1   9 1059.69   44.00
  -3   1   9 1152.58   41.00
  -2  -1   9 1074.79   38.00
  -2  -1   9 1058.49   36.80
  -2   1   9  897.81   38.90
  -2   1   9 1048.10   36.80
  -1  -1   9   60.99    3.90
  -1  -1   9   47.80    3.50
  -1   1   9   51.39    3.60
   0  -1   9  614.74   23.00
   0  -1   9  612.74   24.00
   0   1   9  609.84   23.10
   0   1   9  619.94   23.60
   1  -1   9  131.59    7.00
   1  -1   9  130.59    6.60
   1   1   9  134.79    5.70
  -1   1  -9  128.79    5.70
   1   1   9  135.39    6.80
   2  -1   9  237.18   10.40
  -2   1  -9  232.88    9.30
   2   1   9  249.58   10.70
   3  -1   9 1190.28   44.50
   3  -1   9 1197.38   42.30
   3   1   9 1150.38   43.80
   3   1   9 1141.59   42.30
   4  -1   9   27.70    3.80
   4  -1   9   23.40    2.90
   4   1   9   23.50    3.00
   4   1   9   22.40    3.10
   5  -1   9  195.58    9.60
   5  -1   9  188.88   10.60
   5   1   9  189.88    9.80
   5   1   9  201.08   10.10
   6  -1   9  212.68   12.00
   6  -1   9  230.08   11.20
   6   1   9  224.68   11.40
   6   1   9  235.18   11.60
   7  -1   9   29.70    4.50
   7  -1   9   27.70    3.90
   7   1   9   28.20    4.10
   7   1   9   36.60    4.80
   8  -1   9  104.29    7.50
   8  -1   9   97.69    7.70
   8   1   9   98.99    7.10
   8   1   9   98.89    7.60
   9  -1   9  101.59    8.00
   9  -1   9  104.29    8.00
   9   1   9  114.99    8.60
  10  -1   9    4.00    2.80
  10  -1   9    2.30    2.10
  10   1   9    4.70    2.90
 -12   2   9  104.09    8.80
  11  -2  -9    1.80    2.20
 -11   2   9    2.40    2.40
  10  -2  -9  377.86   17.70
 -10   2   9  372.56   18.90
   9  -2  -9  257.57   13.10
  -9   2   9  269.77   14.70
   8  -2  -9   89.39    6.30
  -8   2   9   89.59    7.60
   7  -2  -9 1354.86   52.49
  -7   2   9 1445.16   55.39
   6  -2  -9  402.46   17.80
  -6   2   9  429.96   19.90
   5  -2  -9  154.98    8.30
  -5   2   9  151.28    7.60
  -5   2   9  151.58    9.50
  -4  -2   9 2253.57   76.99
   4  -2  -9 2171.08   79.99
  -4   2   9 2248.28   82.29
  -4   2   9 2125.99   76.49
  -3  -2   9  162.78    7.90
  -3  -2   9  168.28    7.80
  -3   2   9  164.48    7.80
  -3   2   9  168.98    9.20
  -2  -2   9 1057.69   38.10
  -2  -2   9 1069.99   39.30
  -2   2   9 1029.60   37.90
  -2   2   9 1078.49   40.70
  -1  -2   9 1450.45   53.49
  -1  -2   9 1483.45   51.49
  -1   2   9 1451.55   51.49
  -1   2   9 1449.26   54.39
   0  -2   9  135.29    6.60
   0  -2   9  138.79    7.20
   0   2  -9  137.69    6.60
   0   2   9  128.09    6.80
   0   2   9  127.09    6.70
   1  -2   9  389.66   15.10
   1  -2   9  387.76   16.30
   1   2   9  384.16   15.40
  -1   2  -9  361.76   15.10
   2  -2   9  626.94   23.10
   2  -2   9  611.24   24.90
   2   2   9  597.14   23.40
  -2   2  -9  613.04   23.40
   3  -2   9    2.70    1.50
   3  -2   9    4.60    1.50
   3   2   9    4.60    1.60
   4  -2   9  934.11   34.30
   4  -2   9  951.50   37.10
   4   2   9  902.71   34.60
   5  -2   9  199.88   11.60
   5  -2   9  207.28   10.00
   5   2   9  222.98   10.70
   6  -2   9   14.80    3.50
   6  -2   9   15.80    2.80
   6   2   9   16.50    3.10
   7  -2   9  188.08   10.10
   7  -2   9  184.38   11.40
   7   2   9  199.68   11.00
   8  -2   9   40.70    5.60
   8  -2   9   27.00    4.20
   8   2   9   31.80    4.90
   9  -2   9   22.30    4.50
   9  -2   9   13.70    3.30
   9   2   9   18.50    4.20
  11  -3  -9  134.99    9.80
 -11   3   9  126.49   10.20
  10  -3  -9    9.60    3.10
 -10   3   9   11.60    3.70
   9  -3  -9  173.68   10.60
  -9   3   9  175.78   11.90
   8  -3  -9  575.04   24.10
  -8   3   9  513.15   25.30
   7  -3  -9    9.00    2.60
  -7   3   9    2.40    2.40
   6  -3  -9  531.25   22.60
  -6   3   9  522.05   23.70
   5  -3  -9  585.54   25.10
  -5   3   9  612.94   23.20
  -5   3   9  620.34   26.10
  -4  -3   9  119.49    6.10
   4  -3  -9  126.39    7.50
  -4   3   9  115.79    7.60
  -4   3   9  111.99    6.20
  -3  -3   9 1443.76   52.29
  -3  -3   9 1448.85   50.89
   3  -3  -9 1422.16   53.69
  -3   3   9 1440.76   54.49
  -3   3   9 1395.66   50.49
  -2  -3   9  338.17   13.40
   2  -3  -9  310.17   14.60
  -2  -3   9  323.27   13.80
  -2   3   9  330.37   14.80
  -2   3   9  320.97   13.20
  -1  -3   9  309.07   13.60
  -1  -3   9  310.67   12.70
   1  -3  -9  326.07   14.30
   1   3  -9  321.17   14.00
  -1   3   9  302.57   12.80
  -1   3   9  311.67   14.10
   0  -3   9  908.61   34.50
   0  -3  -9  876.41   34.50
   0  -3   9  875.91   32.20
   0   3   9  923.41   34.70
   0   3  -9  885.51   34.40
   0   3   9  885.81   32.60
   1  -3   9  341.27   13.80
   1  -3   9  353.96   15.70
  -1  -3  -9  355.56   15.40
  -1   3  -9  334.37   14.70
   1   3   9  342.37   15.00
   1   3   9  351.76   14.40
   2  -3   9   56.29    3.80
   2  -3   9   56.39    5.00
   2   3   9   53.99    4.10
  -2   3  -9   51.79    4.20
   3  -3   9 1001.30   39.70
   3  -3   9 1007.00   36.20
   3   3   9  978.00   36.80
  -3   3  -9 1009.70   38.10
   4  -3   9  301.17   14.90
   4  -3   9  285.57   12.30
   4   3   9  269.07   12.70
   5  -3   9   98.59    5.90
   5  -3   9   84.29    7.10
   5   3   9   88.89    6.20
   6  -3   9  304.47   16.20
   6   3   9  303.07   14.40
   7  -3   9   53.39    6.80
   7   3   9   68.69    6.70
   8  -3   9   30.50    5.20
   8   3   9   31.70    4.90
   9  -3   9  104.29    8.90
   9   3   9  117.09    9.00
  10  -4  -9   18.10    4.50
 -10   4   9   13.10    4.20
   9  -4  -9   55.19    6.80
  -9   4   9   49.10    7.00
   8  -4  -9    0.20    1.90
  -8   4   9    1.90    2.60
   7  -4  -9   85.89    7.30
  -7   4   9   98.99    8.10
   6  -4  -9   -0.10    1.70
  -6   4   9    1.50    2.20
   5  -4  -9    7.10    2.40
  -5   4   9   11.40    3.20
   4  -4  -9  307.97   14.90
  -4   4   9  289.07   14.80
   3  -4  -9   10.50    2.70
   3   4  -9    5.60    2.30
  -3   4   9    6.90    2.50
   2  -4  -9    0.00    1.50
  -2  -4   9    0.80    1.20
  -2   4   9    1.50    1.90
   2   4  -9    1.20    1.80
   1  -4  -9   77.59    5.90
  -1  -4   9   73.79    5.30
  -1   4   9   76.19    6.10
   1   4  -9   68.49    5.60
   0  -4  -9    6.10    2.20
   0  -4   9    5.00    2.10
   0   4  -9    4.20    2.20
   0   4   9    6.90    1.80
   0   4   9   11.70    3.00
   1  -4   9   13.50    3.00
  -1  -4  -9   18.20    3.30
   1   4   9   15.20    2.40
   1   4   9   17.70    3.40
  -1   4  -9   15.30    3.00
   2  -4   9   84.39    6.70
  -2  -4  -9   82.99    6.20
   2   4   9   94.59    5.70
  -2   4  -9   82.29    6.00
   3  -4   9   51.89    6.20
  -3  -4  -9   58.99    5.10
   3   4   9   52.19    4.30
  -3   4  -9   51.79    5.20
   4  -4   9    2.30    2.30
   4   4   9    5.60    2.00
   5  -4   9   27.20    4.90
   5   4   9   31.70    4.00
   6  -4   9    5.30    3.00
   6   4   9   11.20    2.90
   7  -4   9   14.70    4.10
   7   4   9   17.90    3.60
   8  -5  -9    5.40    3.20
  -8   5   9    2.50    2.90
   7  -5  -9    9.60    3.40
  -7   5   9    7.60    3.50
   6  -5  -9    0.90    2.30
   6   5  -9    1.30    2.50
  -6   5   9    5.50    3.00
   5  -5  -9   -0.50    2.00
  -5   5   9    0.50    2.10
   5   5  -9    1.70    2.40
   4  -5  -9   31.60    4.90
   4   5  -9   39.60    5.30
  -4   5   9   38.60    5.60
   3  -5  -9   41.70    5.50
  -3   5   9   54.99    6.40
   3   5  -9   51.99    6.10
   2  -5  -9    7.50    2.70
   2   5  -9    9.60    3.10
  -2   5   9   15.70    3.70
   1  -5  -9    5.60    2.70
   1   5  -9    8.20    3.00
  -1   5   9    7.10    3.00
   0  -5   9   11.80    2.90
   0  -5  -9    8.20    3.00
   0   5  -9    8.60    2.90
   0   5   9   11.50    3.40
  -1  -5  -9    7.50    2.70
   1  -5   9    3.80    2.40
   1   5   9    5.70    2.70
  -1   5  -9    3.30    2.50
   2  -5   9   46.90    6.00
  -2  -5  -9   44.60    5.50
  -2   5  -9   39.60    5.00
   3  -5   9   14.90    3.90
  -3   5  -9   10.80    3.40
   4  -5   9   11.00    3.70
   5  -5   9    0.30    2.60
   4  -6  -9   55.69    7.20
  -4   6   9   62.09    7.50
   4   6  -9   65.19    7.50
   3  -6  -9    3.40    2.90
  -3   6   9    3.50    3.00
   3   6  -9    5.30    3.00
   2  -6  -9  100.59    8.70
  -2   6   9  116.09    9.10
   2   6  -9  110.39    8.60
   1  -6  -9   55.69    7.10
   1   6  -9   70.99    7.50
  -1   6   9   71.89    7.80
   0  -6  -9    0.20    2.50
   0   6   9    1.70    2.90
   0   6  -9   -3.50    2.10
  -1   6  -9   49.00    6.30
 -12   0  10   32.90    5.70
 -11   0  10   16.80    4.00
 -10   0  10  367.26   18.80
  -9   0  10  251.77   14.20
  -8   0  10  301.97   15.70
   8   0 -10  297.27   13.10
   7   0 -10 1559.24   54.99
  -7   0  10 1424.16   57.99
   6   0 -10   74.89    4.70
  -6   0  10   73.39    6.10
  -5   0  10  599.94   23.20
  -4   0  10 1487.05   56.09
  -3   0  10  794.32   30.90
  -2   0  10  665.03   25.60
   0   0  10    6.50    1.40
   1   0  10    1.20    0.70
   2   0  10 3063.19  110.29
   3   0  10   37.80    3.50
   3   0  10   52.99    4.20
   4   0  10 1839.72   66.09
   4   0  10 1712.33   63.19
   5   0  10 1831.92   66.09
   5   0  10 1856.21   68.79
   6   0  10   58.19    5.40
   6   0  10   55.39    5.00
   7   0  10  439.86   19.30
   7   0  10  418.36   19.70
   8   0  10  252.47   13.20
   8   0  10  222.38   12.90
   9   0  10   -0.20    1.60
   9   0  10   -1.10    2.00
  10   0  10  113.29    9.20
 -12  -1  10  127.19   10.00
 -12   1  10  113.79    9.20
 -11  -1  10  156.38   11.10
 -11   1  10  151.88   10.50
  10  -1 -10   20.80    3.40
 -10  -1  10   21.40    4.60
 -10   1  10   20.80    4.20
  -9  -1  10  108.29    8.60
   9  -1 -10  107.79    6.90
  -9   1  10  117.59    8.60
  -8  -1  10  656.33   30.60
   8  -1 -10  743.33   28.70
  -8   1  10  760.22   31.30
   7  -1 -10   85.49    5.70
  -7  -1  10   89.99    7.00
  -7   1  10   88.89    7.10
   7   1 -10   84.39    4.90
   6  -1 -10  490.25   20.80
  -6  -1  10  547.55   22.50
  -6   1  10  523.35   22.90
  -6   1  10  491.05   20.30
   5  -1 -10  275.27   12.60
  -5  -1  10  290.57   13.40
  -5  -1  10  296.37   12.70
  -5   1  10  280.17   12.30
  -5   1  10  275.77   14.10
  -4  -1  10  269.47   11.60
  -4  -1  10  257.27   12.00
   4  -1 -10  269.27   11.80
  -4   1  10  247.58   12.80
  -4   1  10  256.37   11.30
  -3  -1  10  329.17   13.10
  -3   1  10  278.07   13.90
  -3   1  10  310.77   12.80
  -2  -1  10  582.84   21.60
  -2  -1  10  576.34   22.10
  -2   1  10  541.75   21.40
  -2   1  10  542.25   22.70
  -1  -1  10  588.14   22.30
  -1  -1  10  571.34   23.00
  -1   1  10  590.14   22.30
  -1   1  10  586.44   23.00
   0  -1  10 1400.06   52.69
   0  -1  10 1408.26   50.69
   0   1  10 1428.06   50.89
   0   1  10 1471.75   52.29
   1  -1  10  461.75   17.70
  -1   1 -10  432.56   16.80
   1   1  10  442.26   17.70
   2  -1  10   43.10    3.50
   2   1  10   43.90    3.60
   3  -1  10  652.03   26.50
   3  -1  10  676.33   25.10
   3   1  10  643.34   26.00
   3   1  10  631.24   25.00
   4  -1  10   21.20    3.50
   4  -1  10   26.80    3.30
   4   1  10   25.30    3.50
   4   1  10   21.30    3.00
   5  -1  10  339.77   14.90
   5  -1  10  342.67   16.30
   5   1  10  356.96   15.70
   5   1  10  324.87   15.10
   6  -1  10  437.86   18.60
   6  -1  10  417.16   19.80
   6   1  10  444.36   19.00
   6   1  10  427.36   19.10
   7  -1  10   40.20    5.40
   7  -1  10   48.00    5.20
   7   1  10   34.60    4.70
   7   1  10   39.10    5.00
   8  -1  10   40.20    5.20
   8  -1  10   47.10    6.00
   8   1  10   41.60    5.40
   8   1  10   39.40    5.10
   9  -1  10   99.89    7.90
   9  -1  10   93.69    8.00
   9   1  10  124.29    9.10
 -12   2  10    3.40    2.80
  11  -2 -10    0.70    2.20
 -11   2  10   -0.30    2.10
  10  -2 -10    1.50    2.00
 -10   2  10    3.60    2.60
   9  -2 -10   75.09    6.00
  -9   2  10   77.09    7.10
   8  -2 -10   36.20    4.40
  -8   2  10   37.00    5.40
   7  -2 -10  187.78   10.10
  -7   2  10  189.38   11.60
   6  -2 -10  194.08   10.30
  -6   2  10  213.28   12.10
   5  -2 -10  160.18    8.60
  -5   2  10  156.78    7.90
  -5   2  10  154.98    9.90
  -4  -2  10   77.59    5.00
   4  -2 -10   63.39    4.90
  -4   2  10   71.69    6.20
  -4   2  10   70.99    4.70
   3  -2 -10  457.35   19.90
  -3  -2  10  494.75   19.10
  -3  -2  10  513.65   19.40
  -3   2  10  464.45   18.80
  -3   2  10  491.85   21.20
  -2  -2  10    0.20    1.10
  -2  -2  10    2.40    1.20
   2  -2 -10   -0.10    0.60
  -2   2  10   -0.50    0.90
  -2   2  10    0.80    1.50
  -1  -2  10  130.19    6.60
  -1  -2  10  129.69    6.90
  -1   2  10  124.09    6.60
  -1   2  10  124.49    7.20
   0  -2  10   58.49    4.30
   0  -2  10   52.99    3.80
   0   2  10   51.99    4.10
   0   2 -10   60.89    3.90
   0   2  10   57.79    4.10
   1  -2  10    0.30    1.00
   1  -2  10    1.50    1.20
  -1   2 -10    3.10    1.30
   1   2  10    6.00    1.60
   2  -2  10   97.59    5.60
   2  -2  10   91.49    6.40
   2   2  10  102.19    5.90
   3  -2  10   -0.10    1.40
   3  -2  10    5.50    1.60
   3   2  10    0.60    1.30
   4  -2  10    0.70    1.20
   4  -2  10    5.10    2.20
   4   2  10    1.20    1.40
   5  -2  10  194.48   10.00
   5  -2  10  210.58   11.80
   5   2  10  208.28   10.60
   6  -2  10    6.90    2.00
   6  -2  10    8.00    2.90
   6   2  10    3.40    2.00
   7  -2  10   17.90    3.90
   7  -2  10   11.30    2.70
   7   2  10   11.00    2.90
   8  -2  10   10.60    3.00
   8  -2  10   15.60    3.90
   8   2  10   12.10    3.30
   9  -2  10   -0.10    1.70
   9  -2  10    0.70    2.40
   9   2  10   -1.50    2.00
  11  -3 -10   17.30    4.40
 -11   3  10   16.00    4.30
  10  -3 -10    7.00    3.00
 -10   3  10    5.20    3.00
   9  -3 -10   44.10    5.60
  -9   3  10   42.50    6.20
   8  -3 -10    3.80    2.30
  -8   3  10    4.80    2.90
   7  -3 -10   19.80    3.60
  -7   3  10   29.10    5.10
   6  -3 -10   75.29    6.00
  -6   3  10   76.19    7.00
   5  -3 -10  162.68    9.30
  -5   3  10  156.28    8.10
  -5   3  10  169.68   10.20
  -4  -3  10   15.90    2.30
   4  -3 -10   15.00    2.80
  -4   3  10   16.60    3.30
  -4   3  10   13.00    2.20
   3  -3 -10   32.30    4.00
  -3  -3  10   32.70    3.40
  -3  -3  10   33.70    3.40
  -3   3  10   34.10    4.50
  -3   3  10   28.80    3.10
  -2  -3  10   51.19    3.90
  -2  -3  10   48.10    3.70
   2  -3 -10   45.00    4.30
  -2   3  10   47.20    3.70
  -2   3  10   55.99    4.70
  -1  -3  10  116.29    6.20
   1  -3 -10  109.49    7.00
  -1  -3  10  117.09    6.70
  -1   3  10  121.39    7.10
  -1   3  10  119.69    6.40
   1   3 -10  115.29    6.80
   0  -3  10   75.39    4.60
   0  -3  10   76.59    5.40
   0  -3 -10   66.69    5.20
   0   3  10   76.59    5.40
   0   3  10   68.29    4.70
   0   3 -10   84.59    5.30
  -1  -3 -10  180.88    9.90
   1  -3  10  196.38    8.90
   1  -3  10  189.78   10.20
  -1   3 -10  203.98    9.40
   1   3  10  186.78    9.20
   2  -3  10   99.19    5.50
   2  -3  10  100.29    6.90
   2   3  10   87.89    5.70
  -2   3 -10   84.99    5.60
   3  -3  10  158.18    7.90
   3  -3  10  162.68    9.80
   3   3  10  147.39    8.20
   4  -3  10   23.00    3.00
   4  -3  10   26.00    4.40
   4   3  10   23.30    3.30
   5  -3  10  111.09    6.70
   5  -3  10  105.69    8.30
   5   3  10  118.09    7.30
   6  -3  10   79.49    8.40
   6   3  10   93.59    6.80
   7  -3  10   33.00    5.50
   7   3  10   33.90    4.80
   8  -3  10    1.90    2.80
   8   3  10    1.40    2.30
   9  -4 -10   38.90    5.80
  -9   4  10   44.80    7.10
   8  -4 -10   89.79    7.70
  -8   4  10   94.89    8.60
   7  -4 -10  258.97   14.40
  -7   4  10  281.77   15.50
   6  -4 -10    6.70    2.70
  -6   4  10    7.90    2.90
   5  -4 -10   90.99    7.10
  -5   4  10  105.49    7.90
   4  -4 -10  581.84   25.40
  -4   4  10  600.64   25.80
   3  -4 -10   -0.70    1.40
   3   4 -10    0.60    1.90
  -3   4  10    2.90    2.10
  -2  -4  10  323.27   14.00
   2  -4 -10  307.87   15.20
  -2   4  10  309.07   15.10
   2   4 -10  308.07   14.90
  -1  -4  10  549.65   22.20
   1  -4 -10  509.65   22.90
  -1   4  10  531.45   23.00
   1   4 -10  542.45   22.70
   0  -4 -10    1.60    1.70
   0  -4  10    0.90    1.60
   0   4  10    0.70    2.00
   0   4 -10   -0.70    1.60
   0   4  10   -1.90    1.30
  -1  -4 -10  161.98    9.50
   1  -4  10  152.78    9.50
  -1   4 -10  159.38    9.00
   1   4  10  169.38    8.40
   2  -4  10  362.26   17.40
  -2  -4 -10  366.66   16.90
   2   4  10  360.46   15.30
  -2   4 -10  349.96   16.00
  -3  -4 -10    4.00    2.10
   3  -4  10   -0.50    1.80
   3   4  10   -0.60    1.50
   4  -4  10  187.68   12.00
   4   4  10  198.28   10.10
   5  -4  10   18.20    4.20
   5   4  10   12.20    2.90
   6  -4  10   20.00    4.60
   6   4  10   22.20    3.70
   7  -4  10   79.09    8.90
   7   4  10   82.29    7.00
   7  -5 -10   -1.50    1.80
  -7   5  10    3.50    2.80
   6  -5 -10   97.99    8.10
  -6   5  10   87.79    8.10
   6   5 -10   78.19    7.30
   5  -5 -10  170.88   10.90
  -5   5  10  160.78   10.80
   5   5 -10  154.88   10.20
   4  -5 -10   -0.90    1.80
   4   5 -10    1.70    2.50
  -4   5  10    1.70    2.30
   3  -5 -10  157.98   10.40
   3   5 -10  162.78   10.30
  -3   5  10  179.28   10.90
   2  -5 -10  131.09    9.00
   2   5 -10  129.69    8.80
  -2   5  10  125.79    9.00
   1  -5 -10    8.70    3.00
  -1   5  10    7.30    2.90
   1   5 -10    8.30    3.00
   0  -5  10   74.99    6.30
   0  -5 -10   82.79    6.90
   0   5 -10   68.79    6.30
   0   5  10   82.79    7.20
   1  -5  10   71.39    6.20
  -1  -5 -10   50.69    6.00
  -1   5 -10   53.59    6.00
   2  -5  10   22.70    4.30
  -2   5 -10   18.70    3.70
   3  -5  10  190.78   12.30
   4  -5  10    6.20    3.20
 -12   0  11   -1.10    2.40
 -11   0  11    0.50    2.20
 -10   0  11    0.50    2.10
  -9   0  11   -2.30    1.90
  -8   0  11   -2.10    1.50
   8   0 -11    0.80    1.20
  -7   0  11    0.80    1.80
   7   0 -11    4.90    1.60
  -6   0  11    0.50    1.70
  -6   0  11    0.00    1.10
   6   0 -11   -0.30    0.90
  -5   0  11   -0.60    1.30
  -5   0  11   -1.70    0.80
  -4   0  11    1.20    1.30
  -4   0  11    0.10    0.80
  -3   0  11   -0.60    0.90
  -3   0  11   -0.10    0.60
  -2   0  11    0.00    0.80
  -2   0  11    0.10    0.50
  -1   0  11    1.20    0.80
  -1   0  11    0.50    0.60
   0   0  11    0.70    0.80
   0   0  11    0.20    0.60
   1   0  11   -0.10    0.60
   1   0  11    0.20    0.70
   2   0  11    1.30    1.20
   2   0  11    0.00    1.30
   3   0  11    0.00    1.00
   3   0  11    0.70    1.40
   4   0  11    0.90    1.60
   4   0  11    2.50    1.40
   5   0  11   -0.60    1.70
   5   0  11    0.10    1.20
   6   0  11   -0.10    1.80
   6   0  11    0.70    1.40
   7   0  11    0.00    1.50
   7   0  11    0.50    2.20
   8   0  11   -3.30    1.80
   8   0  11   -2.20    1.40
   9   0  11    1.30    2.00
   9   0  11   -1.80    2.00
 -12  -1  11   97.99    8.90
 -12   1  11   96.89    8.60
 -11  -1  11   73.19    8.40
 -11   1  11   84.39    7.50
  10  -1 -11   14.80    3.00
 -10  -1  11   14.30    4.10
 -10   1  11   20.80    4.50
  -9  -1  11  450.55   23.80
   9  -1 -11  557.04   22.20
  -9   1  11  550.84   24.50
   8  -1 -11  240.18   11.70
  -8  -1  11  217.08   13.10
  -8   1  11  249.18   13.60
  -7  -1  11   67.89    6.20
   7  -1 -11   59.69    4.80
  -7   1  11   72.29    6.50
   7   1 -11   64.59    4.30
  -6  -1  11  967.50   37.50
   6  -1 -11  918.31   35.80
  -6   1  11  895.61   34.70
  -6   1  11  944.11   38.10
  -5  -1  11   10.40    2.40
   5  -1 -11    9.50    2.10
  -5  -1  11    6.30    1.80
  -5   1  11    7.20    1.80
  -5   1  11    6.60    2.40
   4  -1 -11  131.49    7.30
  -4  -1  11  131.99    7.20
  -4  -1  11  147.59    7.60
  -4   1  11  136.69    7.10
  -4   1  11  118.79    8.00
  -3  -1  11 1155.58   39.90
  -3   1  11 1067.79   39.60
  -3   1  11 1047.20   42.00
  -2  -1  11  313.37   13.70
  -2  -1  11  316.17   13.40
  -2   1  11  319.47   14.00
  -2   1  11  311.37   13.30
  -1  -1  11    2.50    1.30
  -1  -1  11    2.30    1.30
  -1   1  11    1.40    1.20
  -1   1  11    3.90    1.40
   0  -1  11  507.35   19.60
   0  -1  11  480.55   20.30
   0   1  11  499.55   19.70
   1  -1  11   63.79    4.80
   1  -1  11   57.49    4.30
   1   1  11   60.29    4.50
   2  -1  11   45.50    3.80
   2  -1  11   44.50    4.20
   2   1  11   50.89    4.10
   3  -1  11  211.58   10.50
   3  -1  11  229.88   11.60
   3   1  11  235.38   10.90
   4  -1  11  175.28    9.10
   4  -1  11  173.18   10.00
   4   1  11  165.88    9.10
   4   1  11  183.68    9.70
   5  -1  11   14.40    3.30
   5  -1  11   19.90    3.10
   5   1  11   15.90    3.00
   5   1  11   18.40    3.30
   6  -1  11   23.90    3.60
   6  -1  11   30.00    4.70
   6   1  11   32.80    4.50
   6   1  11   27.00    4.00
   7  -1  11   12.80    3.50
   7  -1  11   10.40    2.80
   7   1  11   15.20    3.30
   7   1  11   10.00    3.00
   8  -1  11   44.10    6.00
   8  -1  11   45.60    5.70
   8   1  11   41.30    5.40
   8   1  11   44.60    5.90
   9  -1  11   27.90    4.80
   9  -1  11   40.00    5.80
   9   1  11   28.70    5.20
  11  -2 -11  139.69    9.20
 -11   2  11  132.99   10.10
  10  -2 -11  423.76   19.40
 -10   2  11  407.06   20.70
   9  -2 -11    9.00    2.50
  -9   2  11    9.60    3.40
   8  -2 -11  373.76   17.10
  -8   2  11  361.76   18.60
   7  -2 -11 1050.49   41.80
  -7   2  11 1112.39   44.40
   6  -2 -11  146.09    8.50
  -6   2  11  152.08   10.00
  -6   2  11  147.99    8.00
  -5  -2  11  580.24   23.00
   5  -2 -11  572.84   23.90
  -5   2  11  559.54   22.50
  -5   2  11  605.44   25.80
  -4  -2  11  822.62   29.50
   4  -2 -11  765.42   30.60
  -4   2  11  750.02   29.00
  -4   2  11  761.62   32.30
  -3  -2  11   53.49    4.10
   3  -2 -11   53.99    4.40
  -3  -2  11   51.99    3.90
  -3   2  11   64.29    5.60
  -3   2  11   55.69    4.10
  -2  -2  11  495.15   19.70
  -2  -2  11  504.75   20.30
  -2   2  11  501.25   21.70
  -2   2  11  500.55   19.70
  -1  -2  11 1061.29   39.30
  -1  -2  11 1082.69   37.80
  -1   2  11  945.71   39.80
  -1   2  11 1043.10   37.80
   0  -2  11  121.89    7.20
   0  -2  11  119.99    6.70
   0   2  11  129.79    7.00
   0   2 -11  134.39    6.60
   1  -2  11  919.81   32.50
   1  -2  11  859.81   34.20
   1   2  11  843.32   32.60
   2  -2  11  360.56   14.80
   2  -2  11  343.87   16.10
   2   2  11  349.47   15.10
   3  -2  11    9.30    2.50
   3  -2  11   15.60    2.50
   3   2  11   11.00    2.40
   4  -2  11  524.65   21.20
   4  -2  11  547.75   23.50
   4   2  11  510.35   21.50
   5  -2  11  106.49    7.90
   5  -2  11  101.09    6.50
   5   2  11  102.79    7.00
   6  -2  11   14.50    2.90
   6  -2  11   19.70    4.20
   6   2  11   25.20    3.90
   7  -2  11  222.98   13.70
   7  -2  11  249.18   12.50
   7   2  11  257.67   13.40
   8  -2  11   10.40    3.30
   8  -2  11   16.20    3.50
   8   2  11   16.90    3.90
  10  -3 -11    1.40    2.40
 -10   3  11    0.40    2.50
   9  -3 -11  180.08   10.90
  -9   3  11  168.08   11.80
   8  -3 -11  281.17   14.20
  -8   3  11  252.37   15.30
   7  -3 -11    7.50    2.60
  -7   3  11   12.20    3.80
   6  -3 -11  471.75   20.90
  -6   3  11  464.45   22.40
   5  -3 -11   52.19    5.50
  -5   3  11   56.29    4.40
  -5   3  11   59.69    6.70
  -4  -3  11    1.50    1.30
  -4  -3  11   -0.20    1.30
   4  -3 -11    0.90    1.50
  -4   3  11    0.00    1.80
  -4   3  11    0.40    1.20
  -3  -3  11  602.84   23.20
   3  -3 -11  556.04   24.20
  -3  -3  11  587.14   22.60
  -3   3  11  584.64   24.90
  -3   3  11  570.44   22.40
  -2  -3  11  270.47   11.50
  -2  -3  11  251.77   11.90
   2  -3 -11  268.17   12.80
  -2   3  11  258.47   12.90
  -2   3  11  250.97   11.40
  -1  -3  11    0.30    1.10
   1  -3 -11   -0.30    1.20
  -1  -3  11    0.10    1.20
   1   3 -11    0.10    1.40
  -1   3  11    7.80    2.30
  -1   3  11    0.60    1.30
   0  -3  11  977.20   34.60
   0  -3  11  915.81   36.60
   0  -3 -11  884.51   36.70
   0   3  11  944.11   34.90
   0   3 -11  983.90   36.40
   1  -3  11   35.80    3.60
   1  -3  11   37.40    4.50
   1   3  11   37.60    3.90
  -1   3 -11   37.50    3.80
   2  -3  11   62.49    4.50
   2  -3  11   66.09    5.70
   2   3  11   58.79    4.70
   3  -3  11  468.95   18.70
   3  -3  11  461.65   21.20
   3   3  11  460.35   19.30
   4  -3  11   31.80    3.60
   4  -3  11   26.70    4.50
   4   3  11   27.60    3.70
   5  -3  11  106.39    8.50
   5   3  11  110.29    7.30
   6  -3  11  139.99   10.40
   6   3  11  160.08    9.50
   7  -3  11   11.30    3.80
   7   3  11   13.20    3.30
   9  -4 -11    0.60    2.30
  -9   4  11   -0.80    2.50
   8  -4 -11   -1.00    1.90
  -8   4  11    5.50    3.20
   7  -4 -11  103.69    8.10
  -7   4  11  103.69    8.80
   6  -4 -11    2.50    2.20
  -6   4  11    6.20    3.00
   5  -4 -11    2.00    1.90
  -5   4  11    1.50    2.50
   4  -4 -11   22.20    3.90
  -4   4  11   28.90    4.70
   3  -4 -11    2.90    2.00
   3   4 -11    0.50    1.80
  -3   4  11    4.40    2.40
  -2  -4  11   22.20    3.20
   2  -4 -11   16.70    3.30
  -2   4  11   17.60    3.60
   2   4 -11   19.70    3.60
  -1  -4  11  104.19    6.80
   1  -4 -11   99.39    7.20
   1   4 -11   96.59    6.90
  -1   4  11  110.89    6.30
  -1   4  11   97.59    7.20
   0  -4 -11   -1.00    1.50
   0  -4  11    1.10    1.60
   0   4  11    0.10    1.50
   0   4 -11   -1.30    1.70
   1  -4  11  193.28   11.20
  -1  -4 -11  196.38   11.20
  -1   4 -11  209.48   10.60
   1   4  11  210.68   10.10
  -2  -4 -11   23.50    3.80
   2  -4  11   27.50    4.50
   2   4  11   21.60    3.20
   3  -4  11    0.70    1.90
  -3  -4 -11    6.40    2.50
   3   4  11   -1.60    1.40
   4  -4  11  152.88   10.60
   4   4  11  143.09    8.50
   5  -4  11    8.20    3.20
   5   4  11    3.10    2.20
   6  -4  11    0.10    2.30
   6   4  11   -1.70    1.90
   6  -5 -11    1.00    2.20
   6   5 -11   -2.40    2.20
  -6   5  11   -0.20    2.60
   5  -5 -11    2.10    2.20
   5   5 -11    2.30    2.60
  -5   5  11   -0.40    2.30
   4  -5 -11   49.80    6.40
  -4   5  11   72.69    7.80
   4   5 -11   66.29    7.00
   3  -5 -11   10.70    3.40
  -3   5  11   12.80    3.60
   3   5 -11   19.50    4.10
   2  -5 -11   -2.10    1.70
  -2   5  11    4.10    2.80
   2   5 -11    0.20    2.30
   1  -5 -11   81.49    7.10
  -1   5  11   79.59    7.10
   1   5 -11   78.19    6.70
   0  -5  11    1.00    2.00
   0  -5 -11    0.80    2.20
   0   5 -11    1.90    2.40
   1  -5  11   22.10    4.10
  -1  -5 -11   20.80    4.10
  -1   5 -11   16.20    3.60
   2  -5  11   70.99    7.70
   3  -5  11   12.20    3.90
   4  -5  11    0.70    2.60
 -12   0  12  129.89   10.20
 -11   0  12  203.28   13.10
 -10   0  12  490.95   23.80
  -9   0  12  130.69    9.60
  -8   0  12  284.07   16.10
   8   0 -12  336.77   14.20
  -7   0  12  990.10   41.60
   7   0 -12 1053.89   39.00
   6   0 -12  198.88    9.60
  -6   0  12  188.98   11.10
  -6   0  12  191.38    9.90
  -5   0  12 1044.30   40.00
  -5   0  12  973.70   37.40
  -4   0  12  277.47   12.60
  -4   0  12  290.07   13.30
  -3   0  12    4.90    1.60
  -3   0  12    1.80    1.30
  -2   0  12  831.42   31.20
  -1   0  12  685.93   26.30
   0   0  12   78.59    5.20
   1   0  12 1135.89   43.10
   1   0  12 1125.09   41.50
   2   0  12   28.90    3.50
   3   0  12  277.57   13.60
   3   0  12  282.17   12.90
   4   0  12   96.29    6.90
   4   0  12   87.09    6.10
   5   0  12   78.59    6.00
   5   0  12   88.59    6.80
   6   0  12   92.89    7.40
   6   0  12   99.29    7.10
   7   0  12  153.28   10.10
   7   0  12  149.79    9.50
   8   0  12   11.60    3.40
   8   0  12   21.30    4.20
 -11  -1  12  139.49   10.80
 -11   1  12  139.89   10.40
 -10  -1  12   26.40    5.40
 -10   1  12   38.50    5.80
   9  -1 -12  404.86   17.60
  -9  -1  12  356.66   19.40
  -9   1  12  403.76   19.70
   8  -1 -12  240.68   11.90
  -8  -1  12  237.58   13.70
  -8   1  12  247.08   13.90
  -7  -1  12  236.38   13.00
   7  -1 -12  237.48   11.70
  -7   1  12  243.58   13.50
   7   1 -12  240.78   10.90
  -6  -1  12 1674.03   59.79
  -6  -1  12 1574.74   56.29
   6  -1 -12 1520.85   57.69
  -6   1  12 1458.75   59.89
  -6   1  12 1525.85   55.89
   5  -1 -12  464.75   19.30
  -5  -1  12  465.75   19.00
  -5  -1  12  492.85   20.10
  -5   1  12  413.16   20.30
  -5   1  12  450.35   18.60
  -4  -1  12  411.36   16.50
  -4   1  12  374.26   17.60
  -4   1  12  382.76   16.20
  -3  -1  12  835.52   30.80
  -3   1  12  838.42   32.50
  -3   1  12  773.62   30.50
  -2  -1  12  421.76   17.50
  -2   1  12  450.55   18.10
  -2   1  12  418.36   17.50
  -1  -1  12  661.63   26.20
  -1  -1  12  656.23   25.30
  -1   1  12  656.33   25.40
   0  -1  12 1693.03   60.29
   0  -1  12 1676.13   62.69
   0   1  12 1709.43   60.49
   1  -1  12    2.10    1.40
   1  -1  12    4.50    1.60
   1   1  12   -0.10    1.20
   2  -1  12  866.21   34.50
   2  -1  12  865.41   32.80
   2   1  12  877.01   33.00
   3  -1  12  377.36   17.40
   3  -1  12  384.56   16.20
   3   1  12  369.16   16.30
   4  -1  12    4.30    1.80
   4  -1  12    4.80    2.30
   4   1  12    2.90    1.80
   5  -1  12  170.38   10.30
   5  -1  12  154.18    9.00
   5   1  12  158.38    9.30
   5   1  12  166.18    9.70
   6  -1  12  413.66   20.10
   6  -1  12  422.46   18.70
   6   1  12  424.76   19.10
   6   1  12  424.36   19.50
   7  -1  12    0.60    2.20
   7  -1  12   -1.20    1.40
   7   1  12    0.00    1.60
   7   1  12   -1.10    2.00
   8  -1  12   51.89    6.20
   8  -1  12   47.20    6.50
   8   1  12   49.60    6.30
   8   1  12   46.40    5.90
  11  -2 -12   10.40    3.20
 -11   2  12   14.20    4.00
  10  -2 -12   32.30    4.70
 -10   2  12   38.90    6.20
   9  -2 -12    7.70    2.60
  -9   2  12    5.60    3.00
   8  -2 -12    8.30    2.50
  -8   2  12    7.20    2.90
   7  -2 -12    4.90    2.10
  -7   2  12   10.70    3.40
   6  -2 -12    4.80    2.00
  -6   2  12    2.60    1.60
  -6   2  12    2.90    2.30
   5  -2 -12    7.10    2.20
  -5  -2  12    9.50    2.20
  -5   2  12    8.50    2.80
  -5   2  12    8.10    2.00
  -4  -2  12    6.40    1.90
   4  -2 -12    8.20    2.20
  -4   2  12    6.20    1.80
  -4   2  12    8.70    2.90
  -3  -2  12   29.30    3.40
  -3  -2  12   26.00    3.20
   3  -2 -12   18.80    3.00
  -3   2  12   27.90    4.20
  -3   2  12   24.90    3.00
  -2  -2  12   19.10    2.70
  -2  -2  12   20.70    2.90
  -2   2  12   16.70    3.30
  -2   2  12   15.50    2.50
  -1  -2  12  152.18    7.70
  -1  -2  12  143.59    8.00
  -1   2  12  142.49    7.70
   0  -2  12  105.19    6.10
   0  -2  12   99.89    6.50
   0   2  12  105.39    6.30
   1  -2  12  141.99    8.50
   1  -2  12  157.28    8.00
   1   2  12  149.49    8.10
   2  -2  12   32.70    4.30
   2  -2  12   27.30    3.40
   2   2  12   23.90    3.40
   3  -2  12   84.99    5.70
   3  -2  12   79.99    6.40
   3   2  12   80.69    5.90
   4  -2  12    1.60    1.50
   4  -2  12    3.30    2.20
   4   2  12    4.30    1.80
   5  -2  12    8.40    2.40
   5  -2  12   10.70    3.20
   5   2  12    9.40    2.70
   6  -2  12    3.60    2.00
   6  -2  12    5.20    2.70
   6   2  12   10.50    2.80
   7  -2  12   13.40    3.90
   7  -2  12   14.90    3.20
   7   2  12   13.00    3.30
   8  -2  12    0.00    2.00
   8  -2  12   -1.60    2.00
   8   2  12   -0.90    1.80
  10  -3 -12    2.30    2.30
 -10   3  12   -0.20    2.50
   9  -3 -12   69.79    6.40
  -9   3  12   57.99    7.60
   8  -3 -12   12.10    3.20
  -8   3  12   14.10    4.00
   7  -3 -12    7.30    2.60
  -7   3  12   13.50    3.80
   6  -3 -12  193.58   10.70
  -6   3  12  172.48   11.60
  -6   3  12  173.68    9.30
   5  -3 -12    0.10    1.50
  -5   3  12   -1.00    1.90
  -5   3  12   -0.70    1.20
   4  -3 -12   13.90    2.90
  -4  -3  12   10.90    2.30
  -4   3  12   17.80    4.00
  -4   3  12   13.40    2.40
  -3  -3  12  255.47   11.70
   3  -3 -12  253.47   12.70
  -3  -3  12  241.48   11.40
  -3   3  12  254.47   13.50
  -3   3  12  236.78   11.30
   2  -3 -12  104.79    6.90
  -2  -3  12  108.19    6.40
  -2  -3  12   92.29    5.90
  -2   3  12   94.29    7.20
  -2   3  12   92.69    5.90
  -1  -3  12  141.29    7.60
   1  -3 -12  143.09    8.60
  -1  -3  12  148.09    8.30
  -1   3  12  157.28    8.10
   1   3 -12  150.08    8.20
   0  -3  12  152.98    8.70
   0  -3  12  149.19    7.80
   0  -3 -12  145.09    8.70
   0   3  12  149.49    8.10
   0   3 -12  149.99    8.00
   1  -3  12    5.20    2.20
   1  -3  12    3.60    1.60
   1   3  12    7.30    2.10
   2  -3  12    4.10    1.70
   2  -3  12    5.80    2.30
   2   3  12    3.10    1.70
   3  -3  12    0.60    1.40
   3  -3  12    6.00    2.40
   3   3  12    7.30    2.20
   4  -3  12   29.50    3.60
   4  -3  12   26.10    4.60
   4   3  12   25.70    3.70
   5  -3  12   74.59    8.00
   5   3  12   76.89    6.20
   6  -3  12    0.40    2.40
   6   3  12   -0.30    1.90
   7  -3  12    1.60    2.70
   7   3  12   -0.90    2.10
   8  -4 -12  218.88   13.00
  -8   4  12  205.98   14.00
   7  -4 -12  221.88   12.80
  -7   4  12  206.08   13.60
   6  -4 -12    3.20    2.20
  -6   4  12    1.90    2.50
   5  -4 -12  252.27   14.20
  -5   4  12  299.07   15.60
   4  -4 -12  272.47   14.60
  -4   4  12  306.87   15.60
   3  -4 -12    6.50    2.50
   3   4 -12   11.80    3.10
  -3   4  12    8.10    3.00
  -2  -4  12  325.57   15.40
   2  -4 -12  341.77   16.70
   2   4 -12  362.86   16.50
  -2   4  12  354.06   16.90
  -1  -4  12  240.88   12.10
   1  -4 -12  226.18   12.60
   1   4 -12  253.07   12.40
   0  -4  12   57.59    5.30
   0  -4 -12   46.10    5.60
   0   4 -12   65.19    5.40
   0   4  12   71.99    5.10
  -1  -4 -12  214.88   12.10
   1  -4  12  237.98   12.60
   1   4  12  221.28   11.00
  -2  -4 -12   69.69    6.10
   2  -4  12   68.99    6.30
   2   4  12   63.29    5.20
   3  -4  12   77.29    7.00
  -3  -4 -12   58.79    6.30
   3   4  12   62.79    5.30
   4  -4  12  180.78   12.10
   4   4  12  184.98   10.20
   5  -4  12   34.40    5.90
   5   4  12   36.30    4.70
   6  -5 -12  130.39    9.70
  -6   5  12  115.59    9.90
   5  -5 -12    4.80    2.80
   5   5 -12    5.20    3.10
  -5   5  12   10.30    3.70
   4  -5 -12   68.09    7.50
   4   5 -12   67.09    7.30
  -4   5  12   82.99    8.60
   3  -5 -12  211.78   12.70
  -3   5  12  206.58   12.80
   3   5 -12  222.88   12.60
   2  -5 -12   44.40    5.90
   2   5 -12   40.10    5.60
   1  -5 -12  117.89    8.90
   1   5 -12  129.19    8.70
   0  -5  12  229.28   12.50
   0  -5 -12  219.18   13.00
   0   5 -12  227.98   12.50
  -1  -5 -12   20.30    4.20
   1  -5  12   29.90    4.90
   2  -5  12   59.69    7.10
 -11   0  13    0.40    2.50
 -10   0  13   -1.10    2.20
  -9   0  13   -1.10    2.00
  -8   0  13   -1.60    1.60
   8   0 -13    0.40    1.20
   7   0 -13   -0.40    1.10
  -7   0  13    0.50    1.90
   6   0 -13    0.00    1.20
  -6   0  13    0.60    1.40
  -6   0  13    0.90    1.80
  -5   0  13    0.00    1.20
  -5   0  13   -0.80    1.30
  -4   0  13   -0.10    1.20
  -4   0  13    0.30    1.40
  -3   0  13    1.70    1.20
  -3   0  13   -0.20    1.20
  -2   0  13   -0.30    0.90
  -2   0  13    0.40    1.00
  -1   0  13   -0.90    0.90
   0   0  13    0.80    1.10
   1   0  13   -0.60    1.00
   1   0  13   -0.40    1.10
   2   0  13    0.30    1.50
   2   0  13    0.10    1.20
   3   0  13    0.10    1.60
   3   0  13   -0.60    1.10
   4   0  13    0.70    1.40
   4   0  13    1.00    1.80
   5   0  13    3.40    1.90
   5   0  13    1.00    1.80
   6   0  13   -2.10    1.20
   6   0  13    0.70    2.20
   7   0  13   -2.10    2.10
   7   0  13    0.80    1.80
   8   0  13   -1.40    2.50
   8   0  13   -2.10    1.70
 -11  -1  13   23.80    5.40
 -11   1  13   18.30    4.50
 -10  -1  13   57.79    7.60
 -10   1  13   63.09    7.60
   9  -1 -13   53.09    4.80
  -9  -1  13   42.10    6.30
  -9   1  13   51.09    6.70
   8  -1 -13   32.40    4.10
  -8  -1  13   40.40    5.90
  -8   1  13   33.30    5.30
   7  -1 -13   14.70    2.90
  -7  -1  13   17.00    3.70
   7   1 -13   14.50    2.40
  -7   1  13   10.00    3.20
  -6  -1  13  251.57   12.40
   6  -1 -13  234.98   11.40
  -6  -1  13  235.28   11.50
  -6   1  13  218.08   11.10
  -6   1  13  195.48   12.20
  -5  -1  13   32.50    3.90
   5  -1 -13   35.60    4.10
  -5   1  13   32.50    4.60
  -5   1  13   26.10    3.30
  -4  -1  13  235.58   11.40
  -4   1  13  248.48   11.50
  -4   1  13  241.08   12.30
  -3  -1  13  705.23   27.30
  -3   1  13  685.63   27.20
  -3   1  13  729.53   28.50
  -2  -1  13    3.40    1.60
  -2   1  13    2.20    1.60
  -2   1  13    1.90    1.40
  -1  -1  13  315.27   13.80
  -1  -1  13  309.97   14.20
  -1   1  13  305.27   13.80
   0  -1  13  728.23   27.70
   0  -1  13  699.13   28.70
   0   1  13  717.63   27.70
   1  -1  13   19.20    3.30
   1  -1  13   23.50    3.20
   1   1  13   17.90    2.90
   2  -1  13  445.06   18.80
   2  -1  13  466.25   20.10
   2   1  13  441.36   18.90
   3  -1  13  299.07   13.70
   3  -1  13  304.87   14.90
   3   1  13  287.67   13.80
   4  -1  13    3.60    1.70
   4  -1  13    2.90    2.10
   4   1  13    0.20    1.50
   5  -1  13   84.69    6.50
   5  -1  13  109.09    8.00
   5   1  13  103.39    7.20
   6  -1  13   67.99    7.40
   6  -1  13   67.29    5.80
   6   1  13   65.49    6.70
   7  -1  13    7.20    3.20
   7  -1  13    3.10    2.20
   7   1  13    7.40    3.00
   7   1  13    1.40    2.00
   8  -1  13   70.59    7.30
   8  -1  13   63.69    7.70
   8   1  13   76.79    8.00
   8   1  13   65.09    7.30
  10  -2 -13  308.17   15.80
 -10   2  13  323.07   17.50
   9  -2 -13    1.40    1.80
  -9   2  13    1.30    2.50
   8  -2 -13  191.78   11.00
  -8   2  13  206.88   12.60
   7  -2 -13  384.56   17.80
  -7   2  13  388.86   19.30
   6  -2 -13    8.70    2.40
  -6   2  13    7.40    2.20
  -6   2  13   13.40    3.50
   5  -2 -13 1168.18   45.70
  -5  -2  13 1197.38   44.20
  -5   2  13 1191.88   43.70
  -5   2  13 1201.88   47.70
  -4  -2  13  879.51   32.10
   4  -2 -13  804.32   33.20
  -4   2  13  821.92   34.60
  -4   2  13  845.32   31.80
  -3  -2  13    1.40    1.50
   3  -2 -13    1.10    1.50
  -3  -2  13    1.60    1.50
  -3   2  13    1.90    1.50
  -3   2  13    4.50    2.40
  -2  -2  13 1371.16   50.89
  -2  -2  13 1358.86   49.20
  -2   2  13 1335.17   49.20
  -1  -2  13  411.96   17.90
  -1  -2  13  416.46   17.20
  -1   2  13  402.86   17.30
   0  -2  13   37.90    4.00
   0  -2  13   44.70    4.70
   0   2  13   37.10    4.10
   1  -2  13 1645.54   61.49
   1  -2  13 1565.04   58.49
   1   2  13 1687.03   59.09
   2  -2  13  170.68    9.10
   2  -2  13  180.78   10.20
   2   2  13  164.48    9.20
   3  -2  13   44.40    4.60
   3  -2  13   47.40    5.50
   3   2  13   37.50    4.50
   4  -2  13  378.16   16.60
   4  -2  13  382.76   18.50
   4   2  13  370.96   17.00
   5  -2  13   53.29    5.40
   5  -2  13   67.79    7.30
   5   2  13   57.49    5.90
   6  -2  13   63.79    7.50
   6  -2  13   76.29    6.10
   6   2  13   75.39    6.50
   7  -2  13  279.57   14.20
   7  -2  13  263.37   15.70
   7   2  13  283.47   15.00
   9  -3 -13  233.48   12.80
  -9   3  13  192.48   13.20
   8  -3 -13   24.20    4.30
  -8   3  13   32.10    5.60
   7  -3 -13   -1.00    1.60
  -7   3  13   -0.50    2.20
   6  -3 -13  467.65   21.30
  -6   3  13  464.75   19.60
  -6   3  13  480.95   23.00
   5  -3 -13   39.70    5.00
  -5   3  13   56.79    6.90
  -5   3  13   33.40    3.90
  -4  -3  13   36.70    4.10
   4  -3 -13   42.70    5.10
  -4   3  13   54.19    4.40
  -4   3  13   39.90    5.80
  -3  -3  13  492.85   20.00
   3  -3 -13  446.56   20.60
  -3  -3  13  457.45   19.20
  -3   3  13  475.25   19.30
  -3   3  13  480.35   22.00
  -2  -3  13    1.90    1.60
   2  -3 -13    1.70    1.50
  -2  -3  13    0.40    1.30
  -2   3  13    2.00    1.70
  -1  -3  13   89.49    6.20
  -1  -3  13   76.69    5.30
   1  -3 -13   80.39    6.20
  -1   3  13   71.99    5.50
   1   3 -13   86.39    5.90
   0  -3  13  345.97   14.80
   0  -3  13  338.67   15.90
   0  -3 -13  331.57   16.10
   0   3  13  349.77   15.20
   1  -3  13    1.10    1.60
   1  -3  13    0.70    1.60
   1   3  13    0.80    1.50
   2  -3  13  236.08   12.40
   2  -3  13  204.68   10.40
   2   3  13  215.28   11.00
   3  -3  13   58.89    6.60
   3  -3  13   64.89    5.10
   3   3  13   71.69    5.60
   4  -3  13   13.50    3.60
   4   3  13    5.30    2.30
   5  -3  13  117.19    9.30
   5   3  13  118.79    8.20
   6  -3  13   61.69    7.70
   6   3  13   56.39    6.20
   8  -4 -13   26.90    4.90
  -8   4  13   23.40    5.40
   7  -4 -13  122.09    8.90
  -7   4  13  102.79    9.50
   6  -4 -13   10.00    3.20
  -6   4  13    8.80    3.70
   5  -4 -13   44.40    5.70
  -5   4  13   46.50    6.70
   4  -4 -13  130.79    9.00
  -4   4  13  134.69    9.80
   3  -4 -13    0.40    1.90
  -3   4  13    0.00    2.20
   3   4 -13   -3.00    1.70
  -2  -4  13   69.99    5.70
   2  -4 -13   77.19    6.50
   2   4 -13   83.99    6.60
  -1  -4  13  129.59    8.20
   1  -4 -13  128.09    8.90
   1   4 -13  146.99    8.70
   0  -4 -13   13.30    3.30
   0  -4  13   18.00    3.50
   0   4  13   20.50    3.30
  -1  -4 -13   41.20    5.20
   1  -4  13   23.70    4.10
   1   4  13   30.80    3.90
   2  -4  13    5.50    2.70
  -2  -4 -13    5.90    2.60
   2   4  13    6.10    2.20
   3  -4  13   -2.00    1.80
  -3  -4 -13    1.30    2.20
   3   4  13    2.00    2.00
   4  -4  13   30.80    5.60
   4   4  13   29.50    4.40
   4  -5 -13   65.29    7.40
  -4   5  13   61.69    7.70
   4   5 -13   65.09    7.20
   3  -5 -13    2.90    2.60
   3   5 -13    3.20    2.90
   2  -5 -13   11.10    3.30
   2   5 -13   13.30    3.70
   1  -5 -13    7.60    3.10
   1   5 -13   11.10    3.40
   0  -5 -13    0.80    2.30
   0  -5  13   -0.50    2.00
   1  -5  13    0.90    2.30
  -1  -5 -13    0.90    2.50
 -11   0  14  398.56   21.10
 -10   0  14  111.89    9.40
  -9   0  14  265.07   15.30
   8   0 -14  745.73   28.30
  -8   0  14  637.64   30.30
   7   0 -14  346.77   15.10
  -7   0  14  339.77   17.00
  -7   0  14  305.67   15.10
   6   0 -14   25.30    3.50
  -6   0  14   27.10    4.40
  -6   0  14   25.80    3.60
  -5   0  14 1328.97   50.29
  -5   0  14 1424.46   53.09
  -4   0  14  439.46   19.20
  -4   0  14  486.65   20.10
  -3   0  14  428.96   17.80
  -3   0  14  414.36   17.80
  -2   0  14  939.51   35.50
  -1   0  14  163.48    8.90
   0   0  14   33.20    3.90
   1   0  14  648.74   25.80
   2   0  14   33.10    4.40
   2   0  14   32.10    3.90
   3   0  14  353.06   17.20
   3   0  14  371.46   16.40
   4   0  14  514.65   23.20
   4   0  14  519.35   22.00
   5   0  14   61.29    6.70
   5   0  14   52.29    5.60
   6   0  14   58.59    6.90
   6   0  14   57.19    6.30
   7   0  14  222.08   13.40
   7   0  14  214.98   12.60
 -10  -1  14   64.09    8.20
 -10   1  14   68.59    8.20
   9  -1 -14  352.56   15.90
  -9  -1  14  312.37   17.40
  -9   1  14  304.37   17.30
  -8  -1  14   95.69    8.00
   8  -1 -14   92.09    6.70
  -8   1  14   90.59    7.90
  -7  -1  14   25.30    4.30
   7  -1 -14   19.20    3.30
  -7   1  14   17.90    4.00
   7   1 -14   24.00    3.30
  -7   1  14   19.50    3.30
   6  -1 -14  334.27   15.10
  -6  -1  14  338.17   15.00
  -6   1  14  284.07   15.70
  -6   1  14  322.07   14.60
   5  -1 -14  345.57   15.60
  -5  -1  14  340.27   15.30
  -5   1  14  315.27   16.10
  -5   1  14  347.77   15.10
  -4  -1  14  699.93   27.60
  -4   1  14  686.93   27.50
  -4   1  14  731.73   29.10
  -3  -1  14  277.87   13.40
  -3   1  14  313.97   13.90
  -3   1  14  296.97   13.50
  -2  -1  14  117.39    7.20
  -2   1  14  130.79    7.60
  -1  -1  14  477.55   19.60
  -1  -1  14  458.25   20.10
  -1   1  14  478.45   19.70
   0  -1  14  281.07   13.00
   0  -1  14  263.87   13.30
   0   1  14  285.77   13.10
   1  -1  14  282.17   13.30
   1  -1  14  289.37   14.20
   1   1  14  303.27   13.80
   2  -1  14  280.07   13.50
   2  -1  14  297.17   14.70
   2   1  14  302.07   13.90
   3  -1  14  130.79    8.70
   3  -1  14  136.69    8.00
   3   1  14  121.59    7.90
   4  -1  14    8.80    2.40
   4  -1  14    9.60    3.00
   4   1  14   11.20    2.70
   5  -1  14   68.29    5.80
   5  -1  14   68.19    7.30
   5   1  14   60.89    6.30
   6  -1  14  153.78   10.80
   6  -1  14  165.78   10.00
   6   1  14  163.28   10.20
   7  -1  14    6.90    2.70
   7  -1  14    6.80    3.30
   7   1  14    6.40    2.70
  10  -2 -14    2.10    1.90
 -10   2  14    6.90    3.30
   9  -2 -14   -0.80    1.70
  -9   2  14   -1.00    2.20
   8  -2 -14    7.70    2.60
  -8   2  14   13.60    3.60
   7  -2 -14    7.70    2.50
  -7   2  14    5.10    2.10
  -7   2  14    8.40    3.20
   6  -2 -14    4.10    1.90
  -6   2  14   -1.00    1.40
  -6   2  14   -0.40    1.90
   5  -2 -14  164.88    9.40
  -5  -2  14  161.98    9.00
  -5   2  14  148.79   10.00
  -5   2  14  153.68    8.60
  -4  -2  14   35.50    4.20
   4  -2 -14   39.20    4.60
  -4   2  14   36.50    5.00
  -4   2  14   39.80    4.30
   3  -2 -14   46.90    5.10
  -3  -2  14   52.69    4.60
  -3   2  14   58.39    4.70
  -2  -2  14    6.80    2.20
  -2  -2  14    7.40    2.00
  -2   2  14    5.70    2.00
  -1  -2  14   10.20    2.30
  -1  -2  14   14.60    2.90
  -1   2  14    5.90    2.10
   0  -2  14   70.49    5.70
   0  -2  14   69.89    5.30
   0   2  14   75.19    5.60
   1  -2  14   53.59    5.60
   1  -2  14   36.30    4.10
   1   2  14   42.90    4.60
   2  -2  14    3.10    1.70
   2  -2  14    1.20    1.70
   2   2  14    1.30    1.60
   3  -2  14   46.90    5.70
   3  -2  14   43.90    4.70
   3   2  14   38.70    4.70
   4  -2  14   10.80    2.60
   4  -2  14    2.90    2.30
   4   2  14    4.70    2.30
   5  -2  14   29.70    5.20
   5  -2  14   38.70    4.60
   5   2  14   29.40    4.40
   6  -2  14    1.80    2.00
   6  -2  14    1.60    2.60
   6   2  14   -2.40    1.60
   9  -3 -14   38.30    5.60
  -9   3  14   48.40    7.00
   8  -3 -14    1.70    2.20
  -8   3  14    2.40    2.60
   7  -3 -14  222.98   12.40
  -7   3  14  196.18   13.10
   6  -3 -14   47.90    5.70
  -6   3  14   49.70    6.70
  -6   3  14   38.20    4.40
   5  -3 -14   -1.30    1.40
  -5   3  14    1.90    2.50
  -5   3  14   -0.90    1.60
  -4  -3  14   52.09    4.60
   4  -3 -14   52.29    5.70
  -4   3  14   46.50    6.50
  -4   3  14   40.90    4.40
   3  -3 -14   43.90    5.10
  -3  -3  14   39.60    4.30
  -3  -3  14   48.40    4.40
  -3   3  14   55.49    4.70
  -2  -3  14    2.10    1.70
   2  -3 -14    4.60    2.10
  -2  -3  14    3.10    1.70
   2   3 -14    3.70    2.20
  -2   3  14    0.40    1.70
  -1  -3  14   35.20    4.00
  -1  -3  14   43.40    5.00
   1  -3 -14   37.10    4.70
  -1   3  14   46.20    4.70
   0  -3 -14    7.60    2.50
   0  -3  14    9.80    2.70
   0  -3  14    9.70    2.30
   0   3  14    7.50    2.40
   1  -3  14   23.60    3.30
   1  -3  14   26.50    4.10
   1   3  14   21.90    3.40
   2  -3  14   46.30    5.60
   2  -3  14   40.00    4.30
   2   3  14   40.30    4.70
   3  -3  14   21.00    3.40
   3  -3  14   20.00    4.10
   3   3  14   24.00    3.80
   4  -3  14   22.70    4.60
   4   3  14   13.60    3.20
   5  -3  14   48.70    6.80
   5   3  14   37.60    5.20
   7  -4 -14   28.20    5.00
  -7   4  14   33.00    6.10
   6  -4 -14   10.30    3.30
  -6   4  14    6.30    3.60
   5  -4 -14  168.38   10.80
  -5   4  14  170.58   12.10
   4  -4 -14   18.00    3.90
  -4   4  14   18.80    4.50
   3  -4 -14  142.09    9.60
   3   4 -14  143.89    9.10
   2  -4 -14  357.66   18.00
   2   4 -14  385.06   17.70
   1  -4 -14   31.50    4.80
  -1  -4  14   39.10    4.80
   0  -4 -14   56.99    6.40
   0  -4  14   67.29    5.90
   0   4  14   54.39    5.40
  -1  -4 -14  117.09    8.50
   1  -4  14  130.09    8.80
   1   4  14  104.59    7.40
   2  -4  14   38.60    5.50
  -2  -4 -14   30.60    4.80
   2   4  14   35.50    4.50
  -3  -4 -14   85.09    7.30
   3  -4  14   75.89    8.30
   3   4  14   71.99    6.10
 -10   0  15    0.80    2.50
  -9   0  15   -0.70    2.40
   8   0 -15    1.20    1.60
  -8   0  15    3.20    2.40
   7   0 -15   -0.50    1.30
  -7   0  15   -1.00    1.30
  -7   0  15    0.80    2.00
  -6   0  15   -0.90    1.60
  -6   0  15   -0.30    1.40
   6   0 -15   -0.60    1.20
  -5   0  15    4.70    2.00
  -5   0  15   -1.80    1.30
  -4   0  15    0.00    1.10
  -4   0  15    2.20    1.80
  -3   0  15    2.10    1.50
  -2   0  15   -1.50    1.00
  -1   0  15   -1.00    1.10
   0   0  15   -0.20    1.30
   1   0  15    0.70    1.30
   2   0  15   -1.00    1.30
   3   0  15   -0.50    1.50
   3   0  15    0.60    1.90
   4   0  15    1.10    2.00
   4   0  15   -0.30    1.50
   5   0  15    3.20    2.00
   5   0  15    0.90    2.20
   6   0  15    0.90    2.40
   6   0  15    1.80    2.00
 -10  -1  15   46.20    7.10
 -10   1  15   63.39    7.80
  -9  -1  15  306.57   17.50
   9  -1 -15  334.47   15.80
  -9   1  15  328.17   17.80
   8  -1 -15   -1.20    1.50
  -8  -1  15    1.60    2.30
  -8   1  15    2.30    2.40
   7  -1 -15  247.18   12.50
  -7   1  15  233.38   13.80
  -7   1  15  243.98   12.40
   6  -1 -15  305.27   14.50
  -6  -1  15  296.57   14.30
  -6   1  15  294.27   15.40
  -6   1  15  295.47   14.10
  -5  -1  15    6.50    2.10
   5  -1 -15    6.20    2.20
  -5   1  15    6.60    2.50
  -5   1  15    6.20    2.10
  -4  -1  15  337.27   15.70
  -4   1  15  352.36   15.80
  -4   1  15  369.26   16.60
  -3  -1  15  142.29    8.20
  -3   1  15  138.69    8.20
  -2  -1  15   81.89    6.00
  -2   1  15   88.99    6.20
  -1  -1  15  353.86   15.70
  -1   1  15  339.77   15.60
   0  -1  15   47.50    4.80
   0  -1  15   42.50    4.90
   0   1  15   42.60    4.60
   1  -1  15    1.70    1.60
   1  -1  15    5.00    2.10
   1   1  15    1.50    1.70
   2  -1  15  277.97   13.40
   2  -1  15  283.57   14.40
   2   1  15  275.57   13.50
   3  -1  15   45.80    5.00
   3  -1  15   49.70    6.00
   3   1  15   45.80    5.20
   4  -1  15   29.50    4.90
   4  -1  15   26.30    4.00
   4   1  15   27.90    4.20
   5  -1  15  228.08   12.30
   5  -1  15  227.48   13.60
   5   1  15  223.78   12.50
   6  -1  15   23.00    4.20
   6  -1  15   24.30    4.90
   6   1  15   23.60    4.30
   9  -2 -15    6.50    2.60
  -9   2  15    4.20    2.90
   8  -2 -15  369.36   18.00
  -8   2  15  387.86   19.70
   7  -2 -15  203.18   11.30
  -7   2  15  180.68   10.30
  -7   2  15  189.78   12.20
  -6  -2  15  116.19    7.70
   6  -2 -15  117.79    8.00
  -6   2  15  102.99    8.50
  -6   2  15  130.39    7.80
   5  -2 -15  623.24   26.00
  -5  -2  15  622.34   24.90
  -5   2  15  546.95   26.40
  -5   2  15  634.54   24.70
   4  -2 -15  175.18   10.40
  -4  -2  15  198.78   10.30
  -4   2  15  197.68   10.20
  -3  -2  15  232.28   11.70
   3  -2 -15  244.38   12.50
  -3   2  15  232.38   11.70
  -2  -2  15  386.46   16.90
  -2  -2  15  373.86   17.30
  -2   2  15  400.86   17.20
  -1  -2  15    1.30    1.50
  -1  -2  15    0.00    1.50
  -1   2  15    0.60    1.80
   0  -2  15  224.18   12.20
   0  -2  15  231.18   11.60
   0   2  15  248.68   12.00
   1  -2  15  363.66   17.70
   1  -2  15  391.16   16.80
   1   2  15  367.96   16.80
   2  -2  15   51.39    5.90
   2  -2  15   52.49    5.20
   2   2  15   56.89    5.70
   3  -2  15  176.98    9.90
   3  -2  15  170.58   11.00
   3   2  15  185.78   10.30
   4  -2  15  171.88    9.90
   4  -2  15  180.68   11.50
   4   2  15  160.88   10.00
   5  -2  15    4.10    2.90
   5  -2  15    5.50    2.40
   5   2  15    3.40    2.40
   8  -3 -15   14.00    3.70
  -8   3  15   17.00    4.50
   7  -3 -15  282.67   15.10
  -7   3  15  288.77   16.30
   6  -3 -15  468.05   22.00
  -6   3  15  493.05   20.60
  -6   3  15  479.45   23.40
   5  -3 -15   14.90    3.40
  -5  -3  15   10.80    2.70
  -5   3  15   16.00    4.10
  -5   3  15   13.70    3.00
   4  -3 -15  502.25   22.70
  -4  -3  15  512.85   21.30
  -4   3  15  499.55   21.10
   3  -3 -15  552.44   24.60
  -3  -3  15  573.94   23.70
  -3  -3  15  566.04   23.00
  -3   3  15  563.14   23.20
  -2  -3  15   16.20    3.30
  -2  -3  15    9.10    2.50
   2  -3 -15   11.80    3.00
  -2   3  15   10.70    2.80
  -1  -3  15  327.07   15.60
   1  -3 -15  319.47   15.90
  -1  -3  15  303.67   14.40
  -1   3  15  331.37   15.00
   0  -3  15  251.77   13.10
   0  -3 -15  239.08   13.20
   0  -3  15  240.08   11.90
   0   3  15  252.27   12.50
   1  -3  15   -1.20    1.50
   1  -3  15    1.10    2.10
   1   3  15    0.80    1.70
   2  -3  15  205.28   11.00
   2  -3  15  224.38   12.80
   2   3  15  221.78   11.70
   3  -3  15  136.49    9.60
   3   3  15  112.49    8.00
   4  -3  15   23.90    4.80
   4   3  15   26.00    4.20
   5  -4 -15   60.39    6.80
   4  -4 -15   18.30    3.90
   4   4 -15   12.50    3.50
   3  -4 -15    2.10    2.00
   3   4 -15   -0.20    2.40
   2  -4 -15   85.49    7.30
  -1  -4  15    5.40    2.50
   1  -4 -15   10.40    3.20
   0  -4 -15   13.20    3.50
   0  -4  15   15.40    3.60
   0   4  15   17.40    3.40
  -1  -4 -15   35.70    5.30
   1  -4  15   42.30    5.70
   1   4  15   39.80    4.80
  -9   0  16   10.40    3.80
   8   0 -16 1097.49   41.90
  -8   0  16 1043.60   44.50
  -7   0  16  311.17   16.30
   7   0 -16  301.17   14.60
  -7   0  16  307.07   15.00
  -6   0  16  222.68   12.20
  -6   0  16  202.38   11.20
  -5   0  16  821.52   33.90
  -5   0  16  935.81   35.70
  -4   0  16  323.57   15.10
  -3   0  16 1094.89   41.40
  -2   0  16  932.71   35.90
  -1   0  16  392.16   17.60
   0   0  16  521.45   22.10
   1   0  16  390.76   17.60
   2   0  16  310.57   14.90
   3   0  16  508.55   22.00
   4   0  16  207.18   11.50
   4   0  16  194.98   12.20
   5   0  16    2.30    2.60
   5   0  16   -1.20    1.30
   9  -1 -16  200.18   11.30
  -9   1  16  193.48   12.90
   8  -1 -16    0.90    1.80
  -8   1  16   -0.50    2.40
   7  -1 -16  287.27   13.80
  -7   1  16  257.97   13.30
  -7   1  16  246.78   14.50
  -6  -1  16  198.38   10.90
   6  -1 -16  194.88   10.90
  -6   1  16  189.38   10.60
  -6   1  16  206.48   12.00
   5  -1 -16    1.50    1.70
  -5  -1  16    0.60    1.50
  -5   1  16    1.40    1.90
  -4  -1  16  455.85   19.70
  -4   1  16  459.35   19.70
  -3  -1  16  221.08   11.70
  -3   1  16  240.98   11.90
  -2  -1  16   -0.20    1.40
  -2   1  16    0.70    1.60
  -1  -1  16  232.88   12.00
  -1   1  16  250.77   12.40
   0  -1  16   52.29    5.60
   0  -1  16   59.79    5.10
   0   1  16   45.50    5.10
   1  -1  16    6.60    2.50
   1  -1  16    7.00    2.20
   1   1  16    6.70    2.30
   2  -1  16  436.76   20.30
   2  -1  16  429.26   19.00
   2   1  16  430.26   19.30
   3  -1  16  166.88    9.80
   3  -1  16  161.58   10.60
   3   1  16  162.08    9.90
   4  -1  16   85.69    6.70
   4  -1  16   81.09    7.40
   4   1  16   76.19    6.60
   5  -1  16  124.79    8.70
   5  -1  16  118.19    9.60
   5   1  16  134.19    9.10
   8  -2 -16   17.50    3.70
  -8   2  16   17.30    4.20
   7  -2 -16   36.00    4.90
  -7   2  16   36.50    5.70
  -7   2  16   21.40    3.70
  -6  -2  16    0.10    1.60
   6  -2 -16    2.20    2.00
  -6   2  16    1.80    1.80
  -6   2  16    1.40    2.20
  -5  -2  16    6.00    2.20
   5  -2 -16    9.70    2.70
  -5   2  16    7.50    2.30
   4  -2 -16   75.99    6.20
  -4  -2  16   70.09    5.80
  -4   2  16   70.59    5.80
   3  -2 -16   20.70    3.70
  -3  -2  16   17.10    3.20
  -3   2  16   16.20    3.10
  -2  -2  16   11.40    2.60
  -2  -2  16    8.80    2.70
  -2   2  16    7.70    2.40
  -1  -2  16   52.09    5.20
  -1  -2  16   52.39    5.60
  -1   2  16   53.69    5.40
   0  -2  16    2.00    1.70
   0  -2  16    2.70    2.00
   0   2  16    3.40    2.00
   1  -2  16   43.40    4.90
   1  -2  16   52.99    6.10
   1   2  16   53.89    5.60
   2  -2  16   61.49    6.70
   2  -2  16   50.89    5.40
   2   2  16   44.70    5.30
   3  -2  16   55.59    5.50
   3  -2  16   35.10    5.40
   3   2  16   38.50    5.00
   4  -2  16   19.30    4.40
   4  -2  16   19.00    3.60
   4   2  16   17.70    3.70
   7  -3 -16   73.39    6.80
  -7   3  16   67.79    8.30
   6  -3 -16   32.40    5.00
  -6   3  16   25.20    4.00
  -6   3  16   28.00    5.30
  -5  -3  16   80.89    6.40
   5  -3 -16   78.19    6.80
  -5   3  16   89.19    6.70
   4  -3 -16   99.89    7.70
  -4  -3  16   91.99    6.80
  -4   3  16  103.49    7.10
  -3  -3  16  117.49    7.80
   3  -3 -16  118.29    8.40
  -3  -3  16  117.99    7.60
  -3   3  16  126.19    8.00
  -2  -3  16   35.70    4.40
  -2  -3  16   45.50    5.20
   2  -3 -16   41.20    5.30
  -2   3  16   39.30    4.80
  -1  -3  16  140.29    9.20
  -1  -3  16  140.89    8.60
   1  -3 -16  146.49    9.50
  -1   3  16  160.08    9.20
   0  -3 -16   41.20    5.50
   0  -3  16   51.79    6.00
   0  -3  16   47.60    5.00
   0   3  16   45.60    5.30
   1  -3  16  109.79    8.20
   1  -3  16  101.19    7.00
   1   3  16  100.39    7.40
   2  -3  16   30.50    5.10
   2   3  16   25.90    4.20
   3  -4 -16    7.80    2.90
   2  -4 -16  157.08   10.60
  -8   0  17    4.30    2.90
   7   0 -17    0.40    1.60
  -7   0  17    0.60    2.40
  -7   0  17    0.40    1.80
  -6   0  17    1.00    1.70
  -5   0  17    1.00    1.70
  -4   0  17   -0.80    1.40
  -3   0  17   -2.30    1.20
  -2   0  17    0.40    1.50
  -1   0  17   -0.50    1.50
   0   0  17    0.00    1.50
   1   0  17    1.50    1.70
   2   0  17   -2.80    1.20
   3   0  17   -0.50    1.50
   4   0  17   -2.40    1.40
   8  -1 -17    0.30    1.80
  -8   1  17    0.60    2.40
   7  -1 -17  221.48   12.00
  -7  -1  17  217.58   11.90
  -7   1  17  212.08   11.70
  -7   1  17  197.18   12.60
   6  -1 -17  199.68   11.10
  -6  -1  17  184.38   10.80
  -6   1  17  193.78   10.80
  -5  -1  17   -2.40    1.20
   5  -1 -17    1.20    1.70
  -5   1  17   -2.30    1.40
  -4  -1  17   76.99    6.10
  -4   1  17   70.89    6.00
  -3  -1  17  123.49    8.10
  -3   1  17  124.09    8.10
  -2  -1  17   42.80    5.00
  -2   1  17   43.20    4.90
  -1  -1  17  155.68    9.40
  -1   1  17  170.48    9.80
   0  -1  17   98.79    7.00
   0   1  17   90.59    6.90
   1  -1  17   79.29    6.70
   1  -1  17   74.99    6.10
   1   1  17   73.39    6.30
   2  -1  17   31.00    4.30
   2  -1  17   18.00    3.80
   2   1  17   29.40    4.40
   3  -1  17    0.20    1.70
   3  -1  17   -0.20    2.00
   3   1  17    0.70    2.00
   4  -1  17   81.29    6.90
   4  -1  17   78.79    8.50
   4   1  17   96.09    7.50
   7  -2 -17   30.10    4.60
  -7   2  17   23.40    4.90
  -7   2  17   17.80    3.50
   6  -2 -17  323.27   15.80
  -6  -2  17  310.27   15.10
  -6   2  17  276.47   14.40
   5  -2 -17  351.96   17.40
  -5  -2  17  362.16   16.80
  -5   2  17  356.86   16.50
   4  -2 -17    9.20    2.80
  -4  -2  17    9.90    2.70
  -4   2  17    6.50    2.60
   3  -2 -17  125.79    8.60
  -3  -2  17  131.89    8.30
  -3   2  17  125.89    8.20
  -2  -2  17  470.45   20.80
  -2   2  17  496.95   21.10
  -1  -2  17    2.40    2.20
  -1  -2  17    3.00    2.20
  -1   2  17   -0.50    1.90
   0  -2  17  244.48   13.40
   0  -2  17  256.77   12.90
   0   2  17  251.57   13.10
   1  -2  17  261.07   13.60
   1  -2  17  271.27   14.70
   1   2  17  300.17   14.40
   2  -2  17    2.70    2.40
   2  -2  17    1.70    1.90
   2   2  17    4.10    2.30
   3  -2  17  112.79    9.20
   3  -2  17  114.89    8.10
   3   2  17  146.29    9.20
  -5  -3  17   14.30    3.20
   5  -3 -17   18.80    3.90
  -5   3  17   14.30    3.20
   4  -3 -17   83.79    7.20
  -4  -3  17   86.69    6.70
  -4   3  17   92.89    7.00
  -3  -3  17  109.39    7.50
   3  -3 -17  102.39    8.00
  -3   3  17  115.19    7.80
  -2  -3  17    5.60    2.40
  -2  -3  17   10.10    2.90
   2  -3 -17   12.10    3.30
  -2   3  17    8.80    2.90
  -1  -3  17  201.18   11.60
  -1  -3  17  211.28   11.10
   1  -3 -17  198.78   12.00
  -1   3  17  200.58   11.30
   0  -3  17  163.68    9.50
   0  -3 -17  160.48   10.50
   0  -3  17  161.78   10.30
   0   3  17  148.69    9.60
   1  -3  17   24.60    4.70
   1   3  17   26.10    4.20
  -7   0  18    8.20    2.80
   7   0 -18    9.60    3.00
  -6   0  18  269.47   13.90
  -5   0  18  335.67   16.10
  -4   0  18   38.30    4.80
  -3   0  18  338.47   16.20
  -2   0  18  383.06   17.80
  -1   0  18    1.90    2.00
   0   0  18  700.53   28.90
   1   0  18  231.48   12.60
   2   0  18   59.49    6.30
  -7  -1  18  269.67   13.80
   7  -1 -18  247.58   13.50
  -7   1  18  240.68   13.20
   6  -1 -18   82.49    6.80
  -6  -1  18   77.79    6.60
  -6   1  18   71.69    6.40
  -5  -1  18   78.99    6.50
   5  -1 -18   74.29    6.60
  -5   1  18   81.99    6.60
  -4  -1  18  358.56   16.80
  -4   1  18  349.47   16.80
  -3  -1  18  170.08   10.10
  -3   1  18  174.58   10.30
  -2  -1  18  129.79    8.50
  -2   1  18  121.49    8.40
  -1  -1  18  361.96   17.00
  -1   1  18  359.56   17.20
   0  -1  18   73.09    6.10
   0   1  18   49.40    5.80
   1  -1  18  156.38    9.60
   1   1  18  142.19    9.40
   2  -1  18  112.49    7.90
   2  -1  18  100.59    8.30
   2   1  18  104.39    7.90
   6  -2 -18    3.20    2.20
  -6  -2  18    1.50    2.10
  -6   2  18    2.60    2.10
   5  -2 -18   36.90    5.10
  -5  -2  18   31.30    4.60
  -5   2  18   30.80    4.50
   4  -2 -18  104.19    7.90
  -4  -2  18  101.09    7.50
  -4   2  18  101.29    7.60
   3  -2 -18    7.40    2.80
  -3  -2  18    7.80    2.60
  -3   2  18    2.90    2.30
  -2  -2  18    9.00    2.70
  -2   2  18    7.60    2.80
  -1  -2  18   29.30    4.20
  -1   2  18   38.70    5.00
   0  -2  18   13.50    3.10
   0  -2  18    8.80    3.00
   0   2  18   12.40    3.30
   1  -2  18    0.00    1.70
   1  -2  18    1.50    2.40
   1   2  18    5.00    2.40
  -5   0  19    0.10    1.80
  -4   0  19    1.10    2.00
  -3   0  19   -1.00    1.60
  -2   0  19    0.70    1.70
  -1   0  19   -2.30    1.40
   0   0  19    1.70    2.00
  -5  -1  19   54.19    6.10
   5  -1 -19   57.89    6.50
  -5   1  19   58.69    6.30
  -4  -1  19  199.98   11.70
  -4   1  19  219.38   12.10
  -3  -1  19   20.60    3.80
  -3   1  19   13.10    3.40
  -2  -1  19   61.69    6.50
  -2   1  19   64.09    6.70
  -1  -1  19  234.18   13.00
  -1   1  19  259.17   13.60
   0  -1  19   29.60    4.50
   0   1  19   31.70    4.80
   0   0   0    0.00    0.00

_computing_structure_solution     'SHELXT 2014/5 (Sheldrick, 2014)'
;
_shelx_hkl_checksum              22165
_shelx_shelxl_version_number     2014/7
_olex2_submission_special_instructions 'No special instructions were received'
loop_
_space_group_symop_operation_xyz
'x, y, z'
'-x, y+1/2, -z+1/2'
'-x, -y, -z'
'x, -y-1/2, z-1/2'
loop_
_atom_site_label
_atom_site_type_symbol
_atom_site_fract_x
_atom_site_fract_y
_atom_site_fract_z
_atom_site_U_iso_or_equiv
_atom_site_adp_type
_atom_site_occupancy
_atom_site_site_symmetry_order
_atom_site_calc_flag
_atom_site_refinement_flags_posn
_atom_site_disorder_assembly
_atom_site_disorder_group
Ag1 Ag 0.17384(2) 0.64281(5) 0.77375(2) 0.03633(12) Uani 1 1 d . . .
O1 O 0.0005(2) 0.4046(4) 0.82075(14) 0.0301(4) Uani 1 1 d . . .
H1A H 0.0362 0.3171 0.8637 0.045 Uiso 1 1 d R . .
H1B H -0.0518 0.5093 0.8431 0.045 Uiso 1 1 d R . .
O2 O 0.4587(2) 0.8216(4) 0.72199(13) 0.0277(4) Uani 1 1 d . . .
O3 O 0.1838(2) 0.2799(4) 0.65150(13) 0.0309(5) Uani 1 1 d . . .
O4 O 0.0702(2) 0.2290(4) 0.51499(14) 0.0325(5) Uani 1 1 d . A -1
O5 O 0.1272(2) 0.5303(4) 0.39190(12) 0.0311(5) Uani 1 1 d . . .
O6 O 0.2699(2) 0.8196(4) 0.44261(14) 0.0291(4) Uani 1 1 d . . .
N1 N 0.3323(2) 0.7389(5) 0.68523(15) 0.0244(5) Uani 1 1 d . . .
N2 N 0.5428(2) 0.7768(5) 0.66422(15) 0.0261(5) Uani 1 1 d . . .
N3 N 0.5357(2) 0.5740(5) 0.52696(15) 0.0229(4) Uani 1 1 d . . .
N4 N 0.1561(2) 0.3425(4) 0.56917(15) 0.0217(5) Uani 1 1 d . . .
N5 N 0.2046(2) 0.6288(4) 0.45615(15) 0.0224(5) Uani 1 1 d . . .
C1 C 0.4719(3) 0.6631(5) 0.59422(18) 0.0208(5) Uani 1 1 d . . .
C2 C 0.3384(3) 0.6429(4) 0.60636(17) 0.0197(5) Uani 1 1 d . . .
C3 C 0.2262(2) 0.5403(5) 0.54374(16) 0.0205(5) Uani 1 1 d . . .
loop_
_atom_site_aniso_label
_atom_site_aniso_U_11
_atom_site_aniso_U_22
_atom_site_aniso_U_33
_atom_site_aniso_U_23
_atom_site_aniso_U_13
_atom_site_aniso_U_12
Ag1 0.03851(18) 0.0525(2) 0.02108(15) -0.00852(8) 0.01340(11) -0.00238(10)
O1 0.0352(11) 0.0309(10) 0.0246(10) 0.0003(8) 0.0067(8) 0.0063(9)
O2 0.0322(11) 0.0318(10) 0.0192(9) -0.0080(7) 0.0055(8) -0.0033(8)
O3 0.0407(12) 0.0348(11) 0.0179(9) 0.0060(8) 0.0075(8) -0.0059(9)
O4 0.0337(11) 0.0381(11) 0.0259(10) -0.0035(9) 0.0065(8) -0.0117(10)
O5 0.0333(11) 0.0421(12) 0.0155(8) 0.0008(8) -0.0012(8) -0.0049(9)
O6 0.0300(10) 0.0331(11) 0.0245(10) 0.0089(8) 0.0059(8) -0.0032(8)
N1 0.0264(12) 0.0291(12) 0.0185(10) -0.0019(9) 0.0062(9) 0.0015(10)
N2 0.0276(12) 0.0284(11) 0.0229(11) -0.0056(9) 0.0068(9) -0.0036(10)
N3 0.0206(10) 0.0297(11) 0.0195(10) -0.0040(9) 0.0063(8) -0.0024(9)
N4 0.0223(11) 0.0268(12) 0.0173(10) -0.0007(8) 0.0069(9) -0.0001(8)
N5 0.0198(10) 0.0313(12) 0.0166(10) 0.0040(8) 0.0051(8) 0.0031(9)
C1 0.0223(13) 0.0234(13) 0.0174(12) -0.0007(9) 0.0055(10) -0.0024(10)
C2 0.0209(12) 0.0221(12) 0.0168(11) 0.0025(8) 0.0052(9) 0.0023(9)
C3 0.0183(11) 0.0278(13) 0.0155(10) 0.0035(9) 0.0041(9) 0.0000(10)
loop_
_atom_type_symbol
_atom_type_description
_atom_type_scat_dispersion_real
_atom_type_scat_dispersion_imag
_atom_type_scat_source
C C 0.0033 0.0016 'International Tables Vol C Tables 4.2.6.8 and 6.1.1.4'
H H 0.0000 0.0000 'International Tables Vol C Tables 4.2.6.8 and 6.1.1.4'
Ag Ag -0.8971 1.1015 'International Tables Vol C Tables 4.2.6.8 and 6.1.1.4'
N N 0.0061 0.0033 'International Tables Vol C Tables 4.2.6.8 and 6.1.1.4'
O O 0.0106 0.0060 'International Tables Vol C Tables 4.2.6.8 and 6.1.1.4'
loop_
_geom_angle_atom_site_label_1
_geom_angle_atom_site_label_2
_geom_angle_atom_site_label_3
_geom_angle
_geom_angle_site_symmetry_1
_geom_angle_site_symmetry_3
O1 Ag1 O1 87.85(5) . 2_556
O1 Ag1 O5 78.57(6) 2_556 4_576
O1 Ag1 O5 84.58(7) . 4_576
O1 Ag1 O6 128.42(7) 2_556 4_576
O1 Ag1 O6 85.38(7) . 4_576
O6 Ag1 O5 49.91(6) 4_576 4_576
N1 Ag1 O1 156.50(8) . .
N1 Ag1 O1 93.74(8) . 2_556
N1 Ag1 O5 118.73(8) . 4_576
N1 Ag1 O6 111.29(7) . 4_576
Ag1 O1 Ag1 128.75(9) . 2_546
Ag1 O1 H1A 107.1 2_546 .
Ag1 O1 H1A 106.3 . .
Ag1 O1 H1B 108.9 . .
Ag1 O1 H1B 98.0 2_546 .
H1A O1 H1B 105.9 . .
N2 O2 N1 111.19(19) . .
N5 O5 Ag1 93.90(16) . 4_575
N5 O6 Ag1 96.08(15) . 4_575
O2 N1 Ag1 123.41(15) . .
C2 N1 Ag1 126.03(19) . .
C2 N1 O2 106.0(2) . .
C1 N2 O2 105.2(2) . .
N3 N3 C1 112.1(3) 3_666 .
O3 N4 C3 116.3(2) . .
O4 N4 O3 120.8(2) . .
O4 N4 C3 122.9(2) . .
O5 N5 O6 120.1(2) . .
O5 N5 C3 123.9(2) . .
O6 N5 C3 116.0(2) . .
N2 C1 N3 117.9(2) . .
N2 C1 C2 109.7(2) . .
N3 C1 C2 132.2(2) . .
N1 C2 C1 107.7(2) . .
N1 C2 C3 124.2(3) . .
C1 C2 C3 128.1(2) . .
N4 C3 C2 120.6(2) . .
N5 C3 N4 122.2(2) . .
N5 C3 C2 116.8(2) . .
loop_
_geom_bond_atom_site_label_1
_geom_bond_atom_site_label_2
_geom_bond_distance
_geom_bond_site_symmetry_2
Ag1 O1 2.411(2) .
Ag1 O1 2.491(2) 2_556
Ag1 O5 2.593(2) 4_576
Ag1 O6 2.539(2) 4_576
Ag1 N1 2.357(2) .
O1 Ag1 2.491(2) 2_546
O1 H1A 0.8218 .
O1 H1B 0.8868 .
O2 N1 1.388(3) .
O2 N2 1.362(3) .
O3 N4 1.255(3) .
O4 N4 1.237(3) .
O5 Ag1 2.593(2) 4_575
O5 N5 1.241(3) .
O6 Ag1 2.539(2) 4_575
O6 N5 1.258(3) .
N1 C2 1.300(3) .
N2 C1 1.305(3) .
N3 N3 1.259(4) 3_666
N3 C1 1.391(4) .
N4 C3 1.374(3) .
N5 C3 1.371(3) .
C1 C2 1.431(4) .
C2 C3 1.450(3) .
loop_
_geom_hbond_atom_site_label_D
_geom_hbond_atom_site_label_H
_geom_hbond_atom_site_label_A
_geom_hbond_distance_DH
_geom_hbond_distance_HA
_geom_hbond_distance_DA
_geom_hbond_angle_DHA
_geom_hbond_site_symmetry_A
O1 H1A O4 0.82 2.24 2.945(3) 144.4 4_566
O1 H1A O5 0.82 2.08 2.769(3) 141.2 4_566
O1 H1B O3 0.89 2.00 2.848(3) 160.2 2_556
O1 H1B O4 0.89 2.47 3.205(3) 141.2 2_556
O1 H1B N4 0.89 2.57 3.438(3) 167.5 2_556
loop_
_geom_torsion_atom_site_label_1
_geom_torsion_atom_site_label_2
_geom_torsion_atom_site_label_3
_geom_torsion_atom_site_label_4
_geom_torsion
_geom_torsion_site_symmetry_1
Ag1 O5 N5 O6 -1.3(2) 4_575
Ag1 O5 N5 C3 179.6(2) 4_575
Ag1 O6 N5 O5 1.3(3) 4_575
Ag1 O6 N5 C3 -179.49(19) 4_575
Ag1 N1 C2 C1 -155.80(17) .
Ag1 N1 C2 C3 25.2(4) .
O2 N1 C2 C1 0.8(3) .
O2 N1 C2 C3 -178.2(2) .
O2 N2 C1 N3 -174.4(2) .
O2 N2 C1 C2 2.1(3) .
O3 N4 C3 N5 -179.3(2) .
O3 N4 C3 C2 8.8(4) .
O4 N4 C3 N5 1.0(4) .
O4 N4 C3 C2 -170.9(2) .
O5 N5 C3 N4 -4.7(4) .
O5 N5 C3 C2 167.5(2) .
O6 N5 C3 N4 176.1(2) .
O6 N5 C3 C2 -11.7(3) .
N1 O2 N2 C1 -1.6(3) .
N1 C2 C3 N4 -59.8(4) .
N1 C2 C3 N5 127.9(3) .
N2 O2 N1 Ag1 157.83(17) .
N2 O2 N1 C2 0.5(3) .
N2 C1 C2 N1 -1.9(3) .
N2 C1 C2 C3 177.1(2) .
N3 N3 C1 N2 166.6(3) 3_666
N3 N3 C1 C2 -8.9(5) 3_666
N3 C1 C2 N1 174.0(3) .
N3 C1 C2 C3 -7.1(5) .
C1 C2 C3 N4 121.5(3) .
C1 C2 C3 N5 -50.8(4) .
