#------------------------------------------------------------------------------
#$Date: 2017-10-25 04:13:42 +0300 (Wed, 25 Oct 2017) $
#$Revision: 202287 $
#$URL: file:///home/coder/svn-repositories/cod/cif/7/12/08/7120816.cif $
#------------------------------------------------------------------------------
#
# This file is available in the Crystallography Open Database (COD),
# http://www.crystallography.net/
#
# All data on this site have been placed in the public domain by the
# contributors.
#
data_7120816
loop_
_publ_author_name
'Li, Zijian'
'Liu, Yan'
'Xia, Qingchun'
'Cui, Yong'
_publ_section_title
;
 Chiral binary metal-organic frameworks for asymmetric sequential
 reactions
;
_journal_name_full               'Chem. Commun.'
_journal_paper_doi               10.1039/C7CC06979K
_journal_year                    2017
_chemical_absolute_configuration rmad
_chemical_formula_moiety         'C106 H118 Cd2 Mn2 N12 O18.71 V'
_chemical_formula_sum            'C106 H118 Cd2 Mn2 N12 O18.71 V'
_chemical_formula_weight         2245.06
_space_group_crystal_system      orthorhombic
_space_group_IT_number           18
_space_group_name_Hall           'P 2 2ab'
_space_group_name_H-M_alt        'P 21 21 2'
_symmetry_space_group_name_Hall  'P 2 2ab'
_symmetry_space_group_name_H-M   'P 21 21 2'
_atom_sites_solution_hydrogens   geom
_audit_block_doi                 10.5517/ccdc.csd.cc1p8k1k
_audit_creation_date             2016-09-20
_audit_creation_method
;
Olex2 1.2
(compiled 2016.09.09 svn.r3337 for OlexSys, GUI svn.r5227)
;
_audit_update_record
;
2017-06-20 deposited with the CCDC.
2017-10-23 downloaded from the CCDC.
;
_cell_angle_alpha                90
_cell_angle_beta                 90
_cell_angle_gamma                90
_cell_formula_units_Z            4
_cell_length_a                   34.7570(10)
_cell_length_b                   17.7053(5)
_cell_length_c                   23.9558(6)
_cell_measurement_reflns_used    9783
_cell_measurement_temperature    100(2)
_cell_measurement_theta_max      47.32
_cell_measurement_theta_min      3.14
_cell_volume                     14742.0(7)
_computing_molecular_graphics    'Olex2 (Dolomanov et al., 2009)'
_computing_publication_material  'Olex2 (Dolomanov et al., 2009)'
_computing_structure_refinement  'ShelXL (Sheldrick, 2015)'
_diffrn_ambient_temperature      100.01
_diffrn_measured_fraction_theta_full 0.995
_diffrn_measured_fraction_theta_max 0.995
_diffrn_measurement_device_type  'CCD area detector'
_diffrn_measurement_method       'phi and omega scans'
_diffrn_radiation_monochromator  graphite
_diffrn_radiation_type           CuK\a
_diffrn_radiation_wavelength     1.54178
_diffrn_reflns_av_R_equivalents  0.0570
_diffrn_reflns_av_unetI/netI     0.0534
_diffrn_reflns_Laue_measured_fraction_full 0.995
_diffrn_reflns_Laue_measured_fraction_max 0.995
_diffrn_reflns_limit_h_max       33
_diffrn_reflns_limit_h_min       -20
_diffrn_reflns_limit_k_max       16
_diffrn_reflns_limit_k_min       -16
_diffrn_reflns_limit_l_max       22
_diffrn_reflns_limit_l_min       -22
_diffrn_reflns_number            53769
_diffrn_reflns_point_group_measured_fraction_full 0.988
_diffrn_reflns_point_group_measured_fraction_max 0.988
_diffrn_reflns_theta_full        47.355
_diffrn_reflns_theta_max         47.355
_diffrn_reflns_theta_min         2.240
_exptl_absorpt_coefficient_mu    4.560
_exptl_absorpt_correction_type   none
_exptl_crystal_colour            green
_exptl_crystal_density_diffrn    1.012
_exptl_crystal_description       block
_exptl_crystal_F_000             4627
_exptl_crystal_size_max          0.06
_exptl_crystal_size_mid          0.05
_exptl_crystal_size_min          0.03
_refine_diff_density_max         0.891
_refine_diff_density_min         -0.873
_refine_diff_density_rms         0.084
_refine_ls_abs_structure_details
;
 Flack x determined using 4608 quotients [(I+)-(I-)]/[(I+)+(I-)]
 (Parsons, Flack and Wagner, Acta Cryst. B69 (2013) 249-259).
;
_refine_ls_abs_structure_Flack   0.249(5)
_refine_ls_extinction_method     none
_refine_ls_goodness_of_fit_ref   1.045
_refine_ls_hydrogen_treatment    constr
_refine_ls_matrix_type           full
_refine_ls_number_parameters     1262
_refine_ls_number_reflns         13279
_refine_ls_number_restraints     2496
_refine_ls_restrained_S_all      0.991
_refine_ls_R_factor_all          0.0715
_refine_ls_R_factor_gt           0.0639
_refine_ls_shift/su_max          0.001
_refine_ls_shift/su_mean         0.000
_refine_ls_structure_factor_coef Fsqd
_refine_ls_weighting_details
'w=1/[\s^2^(Fo^2^)+(0.0811P)^2^+72.4940P] where P=(Fo^2^+2Fc^2^)/3'
_refine_ls_weighting_scheme      calc
_refine_ls_wR_factor_gt          0.1649
_refine_ls_wR_factor_ref         0.1712
_reflns_Friedel_coverage         0.809
_reflns_Friedel_fraction_full    0.980
_reflns_Friedel_fraction_max     0.980
_reflns_number_gt                11741
_reflns_number_total             13279
_reflns_threshold_expression     'I > 2\s(I)'
_cod_data_source_file            c7cc06979k2.cif
_cod_data_source_block           MOF-1
_cod_database_code               7120816
_shelx_space_group_comment
;
The symmetry employed for this shelxl refinement is uniquely defined
by the following loop, which should always be used as a source of
symmetry information in preference to the above space-group names.
They are only intended as comments.
;
_olex2_refinement_description
;
1. Fixed Uiso
 At 1.2 times of:
  All C(H) groups, All C(H,H) groups
 At 1.5 times of:
  All C(H,H,H) groups
2. Restrained distances
 C102-C103 = C102-C105 = C104-C102
 1.53 with sigma of 0.02
 C92-C90 = C93-C90 = C91-C90
 1.53 with sigma of 0.02
 C102-C98
 1.51 with sigma of 0.02
 C88-C90
 1.51 with sigma of 0.02
 C52-C55 = C52-C54 = C52-C53
 1.53 with sigma of 0.02
 C71-C68 = C70-C68 = C68-C69
 1.53 with sigma of 0.02
 C52-C50
 1.51 with sigma of 0.02
 C64-C68
 1.51 with sigma of 0.02
 C16-C14 = C17-C14 = C15-C14 = C30-C32 = C33-C30 = C30-C31
 1.53 with sigma of 0.02
 C28-C30 = C12-C14
 1.51 with sigma of 0.02
3. Uiso/Uaniso restraints and constraints
All non-hydrogen atoms have similar U: within 2A with sigma of 0.02 and sigma
for terminal atoms of 0.04
Uanis(N7) \\sim Ueq: with sigma of 0.001 and sigma for terminal atoms of 0.2
4. Rigid body (RIGU) restrains
 All non-hydrogen atoms
 with sigma for 1-2 distances of 0.001 and sigma for 1-3 distances of 0.001
5. Others
 Sof(Mn1A)=1-FVAR(1)
 Sof(O17A)=0.5*(1-FVAR(2))
 Sof(Mn1)=Sof(O17)=FVAR(1)
 Sof(Mn2A)=1-FVAR(2)
 Sof(O18A)=0.5*(1-FVAR(3))
 Sof(Mn2)=Sof(O18)=FVAR(2)
 Sof(O19A)=Sof(V2)=1-FVAR(3)
 Sof(O19)=Sof(V1)=FVAR(3)
6.a Ternary CH refined with riding coordinates:
 C77(H77), C1(H1), C39(H39), C78(H78), C2(H2), C40(H40)
6.b Secondary CH2 refined with riding coordinates:
 C5(H5A,H5B), C41(H41A,H41B), C43(H43A,H43B), C6(H6A,H6B), C79(H79A,H79B),
 C44(H44A,H44B), C42(H42A,H42B), C82(H82A,H82B), C4(H4A,H4B), C3(H3A,H3B),
 C81(H81A,H81B), C80(H80A,H80B)
6.c Aromatic/amide H refined with riding coordinates:
 C20(H20), C19(H19), C22(H22), C21(H21), C101(H101), C99(H99), C85(H85),
 C87(H87), C11(H11), C9(H9), C59(H59), C60(H60), C57(H57), C58(H58), C38(H38),
 C35(H35), C36(H36), C37(H37), C49(H49), C47(H47), C27(H27), C25(H25), C67(H67),
  C65(H65), C61(H61), C76(H76), C73(H73), C74(H74), C75(H75), C23(H23),
 C45(H45), C7(H7), C95(H95), C83(H83)
6.d Fitted hexagon refined as free rotating group:
 C100(C101,C96,C97,C98,C99), C85(C86,C87,C88,C89,C84), C10(C11,C12,C13,C8,C9),
 C59(C60,C56,C57,C58,N8), C38(C34,C35,C36,N4,C37), C26(C27,C28,C29,C24,C25),
 C62(C67,C66,C65,C64,C63)
6.e Idealised Me refined as rotating group:
 C53(H53A,H53B,H53C), C17(H17A,H17B,H17C), C33(H33A,H33B,H33C), C71(H71A,H71B,
 H71C), C15(H15A,H15B,H15C), C16(H16A,H16B,H16C), C70(H70A,H70B,H70C), C69(H69A,
 H69B,H69C), C55(H55A,H55B,H55C), C32(H32A,H32B,H32C), C31(H31A,H31B,H31C),
 C91(H91A,H91B,H91C), C92(H92A,H92B,H92C), C93(H93A,H93B,H93C), C104(H10A,H10B,
 H10C), C103(H10D,H10E,H10F), C105(H10G,H10H,H10I), C54(H54A,H54B,H54C)
;
_shelx_res_file
;
    a_sq.res created by SHELXL-2014/7

TITL a in P2(1)2(1)2
CELL 1.54178 34.757 17.7053 23.9558 90 90 90
ZERR 4 0.001 0.0005 0.0006 0 0 0
LATT -1
SYMM -X,-Y,+Z
SYMM 0.5-X,0.5+Y,-Z
SYMM 0.5+X,0.5-Y,-Z
SFAC C H Cd Mn N O V
UNIT 424 472 8 8 48 74.83 4
DFIX 1.53 C102 C103 C102 C105 C104 C102
DFIX 1.53 C92 C90 C93 C90 C91 C90
DFIX 1.51 C102 C98
DFIX 1.51 C88 C90
DFIX 1.53 C52 C55 C52 C54 C52 C53
DFIX 1.53 C71 C68 C70 C68 C68 C69
DFIX 1.51 C52 C50
DFIX 1.51 C64 C68
DFIX 1.53 C16 C14 C17 C14 C15 C14 C30 C32 C33 C30 C30 C31
DFIX 1.51 C28 C30 C12 C14
SIMU 0.02 0.04 2
RIGU 0.001 0.001
ISOR 0.001 0.2 N7

L.S. 10 0 443
PLAN  20
TEMP -173.14
BOND
ABIN
MORE -1
BOND $H
CONF
fmap 2
acta
OMIT 7 0 5
OMIT 6 0 0
OMIT 2 0 16
OMIT -7 1 2
OMIT 4 0 16
REM <olex2.extras>
REM <HklSrc "%.\\a_sq.hkl">
REM </olex2.extras>

WGHT    0.081100   72.493996
FVAR       0.04671   0.76340   0.65023   0.49669
CD1   3    0.527711    0.592879    1.140746    11.00000    0.02159    0.06577 =
         0.01662    0.00465   -0.00165   -0.00240
CD2   3   -0.027011    0.593211    1.104409    11.00000    0.02093    0.04872 =
         0.01326   -0.00050    0.00100    0.00251
PART 1
MN1   4    0.524134    0.660096    0.637083    21.00000    0.05062    0.06319 =
         0.01965    0.00406   -0.00055   -0.00470
MN2   4   -0.022499    0.658739    0.603807    31.00000    0.05911    0.07609 =
         0.01699   -0.00060   -0.00078    0.01361
PART 0
O7    6    0.036879    0.539129    1.102461    11.00000    0.02201    0.04622 =
         0.02050   -0.00116    0.00104    0.00393
N3    5    0.532546    0.595673    1.043229    11.00000    0.03123    0.05600 =
         0.01704    0.00636    0.00451    0.00297
C20   1    0.517900    0.651606    1.018147    11.00000    0.09426    0.07112 =
         0.01970    0.00509    0.00202    0.03468
AFIX  43
H20   2    0.505035    0.690111    1.038502    11.00000   -1.20000
AFIX   0
C19   1    0.520944    0.655942    0.959722    11.00000    0.09921    0.06459 =
         0.01897    0.00410    0.00205    0.02783
AFIX  43
H19   2    0.511350    0.699361    0.941038    11.00000   -1.20000
AFIX   0
C18   1    0.536769    0.601310    0.930166    11.00000    0.05741    0.05360 =
         0.01921    0.00122   -0.00084    0.00561
C22   1    0.549867    0.539696    0.958164    11.00000    0.09476    0.06670 =
         0.01947    0.00641    0.00900    0.02762
AFIX  43
H22   2    0.559394    0.497276    0.938199    11.00000   -1.20000
AFIX   0
C21   1    0.549224    0.539091    1.017987    11.00000    0.07939    0.07019 =
         0.01996    0.00677    0.00705    0.02893
AFIX  43
H21   2    0.560533    0.498941    1.038550    11.00000   -1.20000
AFIX   0
O8    6    0.030918    0.663285    1.099993    11.00000    0.02438    0.04710 =
         0.02759   -0.00033    0.00180    0.00469
O9    6    0.470705    0.664125    1.133554    11.00000    0.02415    0.06108 =
         0.02508   -0.00437   -0.00285   -0.00489
AFIX  66
C100  1    0.094164    0.612425    1.094755    11.00000    0.02270    0.04785 =
         0.02525   -0.00552    0.00116    0.00340
C101  1    0.116710    0.547821    1.098856    11.00000    0.02072    0.04676 =
         0.02541   -0.00652   -0.00149    0.00168
AFIX  43
H101  2    0.104887    0.499865    1.103562    11.00000   -1.20000
AFIX  65
C96   1    0.156555    0.553383    1.096072    11.00000    0.02057    0.04787 =
         0.04484   -0.00981   -0.00069    0.00111
C97   1    0.173855    0.623549    1.089187    11.00000    0.01961    0.04860 =
         0.07239   -0.00710   -0.00014    0.00063
C98   1    0.151309    0.688154    1.085086    11.00000    0.02497    0.05020 =
         0.10835   -0.00077    0.00497    0.00305
C99   1    0.111464    0.682593    1.087870    11.00000    0.02487    0.04796 =
         0.03451   -0.00473    0.00196    0.00283
AFIX  43
H99   2    0.096055    0.726747    1.085067    11.00000   -1.20000
AFIX   0
O2    6    0.548960    0.591859    0.585278    11.00000    0.05215    0.06056 =
         0.01386    0.00293   -0.00496    0.00021
AFIX  66
C85   1    0.383678    0.549750    1.129454    11.00000    0.01979    0.05483 =
         0.04942   -0.02083    0.00353    0.00097
AFIX  43
H85   2    0.394836    0.501883    1.137134    11.00000   -1.20000
AFIX  65
C86   1    0.406885    0.613479    1.125645    11.00000    0.02339    0.05850 =
         0.05304   -0.01460   -0.00320   -0.00276
C87   1    0.390560    0.683516    1.114409    11.00000    0.02609    0.05832 =
         0.05583   -0.01566   -0.00441   -0.00199
AFIX  43
H87   2    0.406421    0.727072    1.111806    11.00000   -1.20000
AFIX  65
C88   1    0.351027    0.689825    1.106982    11.00000    0.02675    0.05885 =
         0.10389   -0.01359   -0.00958   -0.00207
C89   1    0.327820    0.626096    1.110790    11.00000    0.02101    0.05574 =
         0.07896   -0.02014   -0.00224    0.00152
C84   1    0.344145    0.556059    1.122026    11.00000    0.02053    0.05421 =
         0.05616   -0.02419    0.00126    0.00150
AFIX   0
O3    6   -0.048979    0.602782    0.546963    11.00000    0.06482    0.07451 =
         0.01689    0.00123    0.00011    0.00533
AFIX  66
C10   1    0.539599    0.602771    0.867768    11.00000    0.05329    0.04451 =
         0.01878   -0.00050   -0.00146   -0.00247
C11   1    0.570888    0.568034    0.842335    11.00000    0.05455    0.04783 =
         0.01921   -0.00216   -0.00215    0.00048
AFIX  43
H11   2    0.589670    0.542999    0.864418    11.00000   -1.20000
AFIX  65
C12   1    0.574694    0.569925    0.784592    11.00000    0.06195    0.05993 =
         0.01910   -0.00192   -0.00080    0.00812
C13   1    0.547213    0.606555    0.752281    11.00000    0.05350    0.04792 =
         0.01752    0.00004    0.00192   -0.00126
C8    1    0.515925    0.641293    0.777713    11.00000    0.05147    0.04518 =
         0.01617   -0.00183    0.00043   -0.00326
C9    1    0.512117    0.639402    0.835456    11.00000    0.05418    0.04965 =
         0.01664   -0.00118    0.00059    0.00207
AFIX  43
H9    2    0.490733    0.663144    0.852837    11.00000   -1.20000
AFIX  66
C59   1   -0.054298    0.540090    0.983360    11.00000    0.06213    0.06044 =
         0.01905    0.00709   -0.00468   -0.01483
AFIX  43
H59   2   -0.068081    0.502974    1.003860    11.00000   -1.20000
AFIX  65
C60   1   -0.055977    0.540626    0.925390    11.00000    0.06813    0.05636 =
         0.01964    0.00613   -0.00516   -0.00885
AFIX  43
H60   2   -0.070909    0.503877    0.906268    11.00000   -1.20000
AFIX  65
C56   1   -0.035811    0.594932    0.895396    11.00000    0.05898    0.04755 =
         0.01914    0.00299   -0.00195    0.00041
C57   1   -0.013964    0.648703    0.923372    11.00000    0.06778    0.05438 =
         0.01619    0.00249    0.00352   -0.00959
AFIX  43
H57   2   -0.000181    0.685818    0.902873    11.00000   -1.20000
AFIX  65
C58   1   -0.012284    0.648167    0.981343    11.00000    0.06344    0.05767 =
         0.01645    0.00214    0.00463   -0.01382
AFIX  43
H58   2    0.002647    0.684917    1.000464    11.00000   -1.20000
AFIX  65
N8    5   -0.032451    0.593861    1.011338    11.00000    0.03296    0.04677 =
         0.02125    0.00476    0.00080    0.00458
AFIX   0
O4    6   -0.050491    0.601182    0.659757    11.00000    0.06539    0.08073 =
         0.01718   -0.00008   -0.00662    0.00415
O1    6    0.550045    0.607363    0.695336    11.00000    0.05748    0.06257 =
         0.01744    0.00018    0.00237    0.00388
N2    5    0.476445    0.652073    0.587736    11.00000    0.05210    0.06104 =
         0.02120    0.00464   -0.00099   -0.00347
N6    5    0.024316    0.651321    0.658034    11.00000    0.06024    0.07517 =
         0.01930    0.00168   -0.00264    0.00715
O14   6   -0.095581    0.629295    1.114525    11.00000    0.02757    0.06621 =
         0.05808   -0.00472    0.00509    0.01114
N5    5    0.021446    0.668000    0.549963    11.00000    0.05830    0.06658 =
         0.02096   -0.00099   -0.00061    0.01363
AFIX  66
C38   1    0.553510    0.529158    0.319193    11.00000    0.03936    0.05925 =
         0.02098   -0.00385   -0.00542   -0.00973
AFIX  43
H38   2    0.569075    0.492822    0.337672    11.00000   -1.20000
AFIX  65
C34   1    0.531499    0.579594    0.350134    11.00000    0.04047    0.05735 =
         0.02165   -0.00191   -0.00297   -0.01113
C35   1    0.508726    0.632758    0.323097    11.00000    0.04093    0.06173 =
         0.02187   -0.00116   -0.00024   -0.00696
AFIX  43
H35   2    0.493682    0.667229    0.344243    11.00000   -1.20000
AFIX  65
C36   1    0.507962    0.635487    0.265119    11.00000    0.04056    0.06167 =
         0.02249   -0.00101    0.00167   -0.00566
AFIX  43
H36   2    0.492397    0.671822    0.246641    11.00000   -1.20000
AFIX  65
N4    5    0.529973    0.585051    0.234178    11.00000    0.03345    0.06086 =
         0.02192   -0.00374   -0.00285   -0.00866
C37   1    0.552747    0.531886    0.261214    11.00000    0.04304    0.06507 =
         0.02095   -0.00442   -0.00534   -0.00286
AFIX  43
H37   2    0.567791    0.497416    0.240067    11.00000   -1.20000
AFIX   0
C48   1   -0.038843    0.599555    0.831262    11.00000    0.05984    0.04950 =
         0.01855    0.00178   -0.00276    0.00465
C49   1   -0.073007    0.574934    0.803997    11.00000    0.05888    0.04199 =
         0.01891   -0.00300   -0.00278    0.00840
AFIX  43
H49   2   -0.093076    0.555072    0.826565    11.00000   -1.20000
AFIX   0
C50   1   -0.079071    0.577903    0.746713    11.00000    0.06271    0.06608 =
         0.01881   -0.00266   -0.00487    0.00461
C51   1   -0.047326    0.600060    0.715305    11.00000    0.06119    0.06385 =
         0.01816   -0.00068   -0.00525    0.00745
C46   1   -0.012809    0.622340    0.742434    11.00000    0.06139    0.07210 =
         0.01678    0.00283   -0.00427    0.00405
C47   1   -0.009962    0.621016    0.799475    11.00000    0.06350    0.08337 =
         0.01766    0.00372   -0.00391   -0.00583
AFIX  43
H47   2    0.013500    0.635999    0.816541    11.00000   -1.20000
AFIX  66
C26   1    0.536610    0.580203    0.415003    11.00000    0.04281    0.05818 =
         0.02082   -0.00150   -0.00465   -0.00981
C27   1    0.571367    0.560920    0.439913    11.00000    0.04244    0.05555 =
         0.01850   -0.00229   -0.00493   -0.00940
AFIX  43
H27   2    0.592327    0.544439    0.417565    11.00000   -1.20000
AFIX  65
C28   1    0.575457    0.565751    0.497522    11.00000    0.04676    0.05918 =
         0.01815   -0.00230   -0.00692   -0.00580
C29   1    0.544789    0.589865    0.530221    11.00000    0.04702    0.04866 =
         0.01540    0.00375   -0.00507   -0.00718
C24   1    0.510031    0.609149    0.505311    11.00000    0.04684    0.05363 =
         0.01881    0.00391   -0.00491   -0.00625
C25   1    0.505941    0.604318    0.447703    11.00000    0.04308    0.05300 =
         0.01868    0.00392   -0.00418   -0.00865
AFIX  43
H25   2    0.482186    0.617497    0.430678    11.00000   -1.20000
AFIX   0
N1    5    0.482263    0.682714    0.693528    11.00000    0.05217    0.06222 =
         0.02059    0.00249    0.00083   -0.00064
O12   6    0.596569    0.627433    1.150908    11.00000    0.02748    0.08407 =
         0.05567    0.00780   -0.00633   -0.01169
C14   1    0.611404    0.536520    0.756991    11.00000    0.06665    0.07399 =
         0.02627   -0.00282    0.00239    0.01510
AFIX  66
C62   1   -0.010349    0.618869    0.466884    11.00000    0.05856    0.04865 =
         0.01878    0.00360    0.00058    0.01497
C67   1   -0.005348    0.610901    0.409618    11.00000    0.05705    0.05472 =
         0.02020    0.00150    0.00179    0.00995
AFIX  43
H67   2    0.018187    0.625800    0.392722    11.00000   -1.20000
AFIX  65
C66   1   -0.034780    0.581134    0.377073    11.00000    0.05566    0.04524 =
         0.02060    0.00355    0.00199    0.01179
C65   1   -0.069214    0.559335    0.401794    11.00000    0.05396    0.04407 =
         0.01808    0.00769   -0.00007    0.01400
AFIX  43
H65   2   -0.089330    0.538991    0.379551    11.00000   -1.20000
AFIX  65
C64   1   -0.074217    0.567303    0.459060    11.00000    0.06233    0.06258 =
         0.01793    0.00484    0.00134    0.00680
C63   1   -0.044784    0.597070    0.491605    11.00000    0.06114    0.06404 =
         0.01782    0.00233    0.00089    0.00871
AFIX   0
C106  1    0.052786    0.606865    1.099303    11.00000    0.02238    0.04674 =
         0.00955   -0.00200   -0.00036    0.00352
C5    1    0.375076    0.733812    0.612787    11.00000    0.05804    0.06046 =
         0.03832    0.00209   -0.00498   -0.00015
AFIX  23
H5A   2    0.357112    0.763322    0.589274    11.00000   -1.20000
H5B   2    0.362433    0.685433    0.622421    11.00000   -1.20000
AFIX   0
C61   1    0.021568    0.653676    0.497660    11.00000    0.06144    0.06690 =
         0.02222   -0.00146    0.00029    0.00972
AFIX  43
H61   2    0.044026    0.666540    0.477154    11.00000   -1.20000
AFIX   0
C30   1    0.615492    0.548450    0.521060    11.00000    0.04932    0.06722 =
         0.02537   -0.00378   -0.01116   -0.00302
C53   1   -0.146715    0.533590    0.766741    11.00000    0.06781    0.08616 =
         0.02460   -0.00725   -0.00779   -0.00385
AFIX 137
H53A  2   -0.136626    0.490252    0.787557    11.00000   -1.50000
H53B  2   -0.170990    0.519525    0.748714    11.00000   -1.50000
H53C  2   -0.151204    0.575733    0.792450    11.00000   -1.50000
AFIX   0
C41   1    0.091144    0.711756    0.665939    11.00000    0.06601    0.07814 =
         0.02108    0.00919   -0.00684    0.00161
AFIX  23
H41A  2    0.096642    0.684159    0.700984    11.00000   -1.20000
H41B  2    0.080498    0.761823    0.675936    11.00000   -1.20000
AFIX   0
C76   1   -0.054139    0.532143    0.284246    11.00000    0.05016    0.04445 =
         0.01867    0.00353    0.00535    0.00083
AFIX  43
H76   2   -0.071192    0.497704    0.301926    11.00000   -1.20000
AFIX   0
C72   1   -0.030696    0.577785    0.314593    11.00000    0.05095    0.04174 =
         0.02159    0.00232    0.00214    0.00411
C73   1   -0.005268    0.623226    0.288041    11.00000    0.05696    0.04977 =
         0.01962   -0.00063    0.00124   -0.00457
AFIX  43
H73   2    0.012273    0.652993    0.309038    11.00000   -1.20000
AFIX   0
C74   1   -0.004829    0.626284    0.230997    11.00000    0.04253    0.04469 =
         0.02070   -0.00035    0.00203   -0.00975
AFIX  43
H74   2    0.012454    0.659461    0.212489    11.00000   -1.20000
AFIX   0
N7    5   -0.028082    0.583769    0.201844    11.00000    0.02829    0.02830 =
         0.02204    0.00108    0.00171    0.00248
C75   1   -0.052285    0.537645    0.225827    11.00000    0.04811    0.05051 =
         0.01907    0.00288    0.00276   -0.01545
AFIX  43
H75   2   -0.068832    0.507457    0.203501    11.00000   -1.20000
AFIX   0
O11   6    0.556180    0.718082    1.159538    11.00000    0.03348    0.07808 =
         0.05803   -0.00086   -0.01143   -0.01108
C52   1   -0.117596    0.557383    0.722309    11.00000    0.06464    0.07924 =
         0.02373   -0.00567   -0.00767    0.00123
O6    6    0.290170    0.633416    1.105527    11.00000    0.02163    0.05392 =
         0.10973   -0.01430   -0.00448    0.00017
C43   1    0.119466    0.765161    0.579977    11.00000    0.06044    0.06838 =
         0.01892    0.00930   -0.00455    0.01082
AFIX  23
H43A  2    0.143725    0.771755    0.558875    11.00000   -1.20000
H43B  2    0.109488    0.815974    0.589353    11.00000   -1.20000
AFIX   0
C6    1    0.411394    0.718123    0.580379    11.00000    0.05794    0.06450 =
         0.03262    0.00204   -0.00678    0.00042
AFIX  23
H6A   2    0.404851    0.689480    0.546180    11.00000   -1.20000
H6B   2    0.423090    0.766641    0.568800    11.00000   -1.20000
AFIX   0
C17   1    0.633104    0.594809    0.721308    11.00000    0.06559    0.07706 =
         0.02744   -0.00201    0.00042    0.01362
AFIX 137
H17A  2    0.617039    0.609768    0.689559    11.00000   -1.50000
H17B  2    0.657102    0.572474    0.707568    11.00000   -1.50000
H17C  2    0.639002    0.639333    0.744056    11.00000   -1.50000
AFIX   0
N58   5    0.214123    0.473800    1.096642    11.00000    0.01829    0.05032 =
         0.10098   -0.01210   -0.00270    0.00068
C23   1    0.478519    0.635228    0.533570    11.00000    0.04908    0.05453 =
         0.02043    0.00649   -0.00219   -0.00449
AFIX  43
H23   2    0.455691    0.642063    0.512353    11.00000   -1.20000
AFIX   0
PART 1
O17   6    0.546037    0.742278    0.625655    21.00000    0.04818    0.05950 =
         0.02004    0.00132   -0.00073   -0.00110
PART 0
C68   1   -0.114115    0.549800    0.486465    11.00000    0.06405    0.06999 =
         0.02298    0.00451    0.00466    0.00391
C33   1    0.645551    0.527922    0.477323    11.00000    0.05043    0.07174 =
         0.02887   -0.00464   -0.01009   -0.00288
AFIX 137
H33A  2    0.635696    0.487074    0.453709    11.00000   -1.50000
H33B  2    0.669175    0.511249    0.495947    11.00000   -1.50000
H33C  2    0.651116    0.572239    0.454183    11.00000   -1.50000
AFIX   0
C71   1   -0.144748    0.528809    0.441803    11.00000    0.06845    0.07660 =
         0.02763    0.00415    0.00187    0.00129
AFIX 137
H71A  2   -0.145242    0.567716    0.412715    11.00000   -1.50000
H71B  2   -0.170122    0.525506    0.459475    11.00000   -1.50000
H71C  2   -0.138193    0.479971    0.425064    11.00000   -1.50000
AFIX   0
O5    6    0.211599    0.630920    1.087508    11.00000    0.01941    0.05031 =
         0.09875   -0.01076   -0.00063    0.00141
N76   5    0.286837    0.478880    1.123991    11.00000    0.01989    0.05252 =
         0.10577   -0.01402   -0.00435    0.00353
C94   1    0.449620    0.606573    1.133647    11.00000    0.02268    0.05981 =
         0.01907   -0.00754    0.00083   -0.00343
C15   1    0.638857    0.501387    0.800083    11.00000    0.07500    0.08289 =
         0.03018   -0.00257   -0.00123    0.02088
AFIX 137
H15A  2    0.646988    0.540189    0.826765    11.00000   -1.50000
H15B  2    0.661483    0.480913    0.780927    11.00000   -1.50000
H15C  2    0.625603    0.460663    0.820027    11.00000   -1.50000
AFIX   0
C45   1    0.021526    0.642785    0.710735    11.00000    0.06198    0.08088 =
         0.01939    0.00287   -0.00337    0.00215
AFIX  43
H45   2    0.044363    0.650611    0.731741    11.00000   -1.20000
AFIX   0
C79   1    0.291245    0.334663    1.129862    11.00000    0.03033    0.05468 =
         0.13557   -0.01357   -0.01041    0.00571
AFIX  23
H79A  2    0.301506    0.331947    1.091362    11.00000   -1.20000
H79B  2    0.313322    0.338131    1.155849    11.00000   -1.20000
AFIX   0
C44   1    0.090163    0.724194    0.543148    11.00000    0.05756    0.06385 =
         0.01973    0.00855   -0.00378    0.01562
AFIX  23
H44A  2    0.084203    0.755223    0.509874    11.00000   -1.20000
H44B  2    0.100928    0.675403    0.530360    11.00000   -1.20000
AFIX   0
C42   1    0.127824    0.722171    0.633811    11.00000    0.06443    0.07799 =
         0.02256    0.01541   -0.00834    0.00483
AFIX  23
H42A  2    0.139137    0.672292    0.624900    11.00000   -1.20000
H42B  2    0.146580    0.750704    0.656672    11.00000   -1.20000
AFIX   0
C16   1    0.599243    0.469852    0.720404    11.00000    0.07799    0.07469 =
         0.02957   -0.00477    0.00039    0.01446
AFIX 137
H16A  2    0.583681    0.434684    0.742497    11.00000   -1.50000
H16B  2    0.622194    0.443771    0.706506    11.00000   -1.50000
H16C  2    0.584064    0.488393    0.688769    11.00000   -1.50000
AFIX   0
C70   1   -0.130752    0.615795    0.519445    11.00000    0.06035    0.07038 =
         0.02166    0.00566    0.00388    0.00225
AFIX 137
H70A  2   -0.114493    0.625852    0.552030    11.00000   -1.50000
H70B  2   -0.156838    0.603170    0.531855    11.00000   -1.50000
H70C  2   -0.131621    0.660789    0.495653    11.00000   -1.50000
AFIX   0
C77   1    0.232752    0.402080    1.096329    11.00000    0.02418    0.05144 =
         0.11333   -0.01326   -0.00541    0.00342
AFIX  13
H77   2    0.243399    0.394231    1.057985    11.00000   -1.20000
AFIX   0
C82   1    0.207201    0.333463    1.109821    11.00000    0.02720    0.05259 =
         0.12511   -0.00676   -0.01057    0.00129
AFIX  23
H82A  2    0.184955    0.331781    1.084042    11.00000   -1.20000
H82B  2    0.197355    0.337191    1.148502    11.00000   -1.20000
AFIX   0
C4    1    0.383556    0.776880    0.665202    11.00000    0.05504    0.06329 =
         0.03838    0.00053   -0.00264   -0.00188
AFIX  23
H4A   2    0.359689    0.780973    0.687556    11.00000   -1.20000
H4B   2    0.391803    0.828666    0.655214    11.00000   -1.20000
AFIX   0
C1    1    0.439799    0.674506    0.613438    11.00000    0.05263    0.06107 =
         0.02418    0.00419   -0.00002   -0.00278
AFIX  13
H1    2    0.426740    0.627433    0.626596    11.00000   -1.20000
AFIX   0
PART 1
O18   6   -0.042530    0.741678    0.605065    31.00000    0.04879    0.07211 =
         0.01215   -0.00265   -0.00121    0.00801
PART 0
C39   1    0.054539    0.710878    0.576030    11.00000    0.05972    0.06670 =
         0.01933    0.00214   -0.00206    0.01236
AFIX  13
H39   2    0.044283    0.761869    0.586072    11.00000   -1.20000
AFIX   0
C3    1    0.415709    0.738837    0.701766    11.00000    0.05406    0.06563 =
         0.03275   -0.00005    0.00114    0.00000
AFIX  23
H3A   2    0.423393    0.773263    0.732363    11.00000   -1.20000
H3B   2    0.405792    0.691572    0.718516    11.00000   -1.20000
AFIX   0
C69   1   -0.110208    0.479613    0.523241    11.00000    0.07519    0.07322 =
         0.03140    0.00943    0.00280    0.00284
AFIX 137
H69A  2   -0.106211    0.435107    0.499620    11.00000   -1.50000
H69B  2   -0.133722    0.473005    0.545282    11.00000   -1.50000
H69C  2   -0.088188    0.485750    0.548386    11.00000   -1.50000
AFIX   0
O16   6   -0.054501    0.719538    1.126710    11.00000    0.03568    0.06301 =
         0.07573   -0.01071    0.00506    0.01110
C7    1    0.484750    0.676771    0.748775    11.00000    0.05418    0.06075 =
         0.02075    0.00272    0.00095    0.00256
AFIX  43
H7    2    0.464459    0.697478    0.770494    11.00000   -1.20000
AFIX   0
C55   1   -0.111282    0.489644    0.683814    11.00000    0.08178    0.08196 =
         0.03253   -0.01157   -0.00335   -0.00054
AFIX 137
H55A  2   -0.094811    0.504612    0.652508    11.00000   -1.50000
H55B  2   -0.136137    0.472073    0.669516    11.00000   -1.50000
H55C  2   -0.098850    0.448822    0.704740    11.00000   -1.50000
AFIX   0
C32   1    0.611991    0.480830    0.562318    11.00000    0.05593    0.07081 =
         0.03251    0.00142   -0.00939   -0.00125
AFIX 137
H32A  2    0.592292    0.492103    0.590375    11.00000   -1.50000
H32B  2    0.636770    0.472603    0.580864    11.00000   -1.50000
H32C  2    0.604706    0.435231    0.541677    11.00000   -1.50000
AFIX   0
C78   1    0.266234    0.404803    1.135835    11.00000    0.02408    0.05367 =
         0.11460   -0.01012   -0.00614    0.00213
AFIX  13
H78   2    0.256027    0.406519    1.174842    11.00000   -1.20000
AFIX   0
C2    1    0.449716    0.721870    0.665449    11.00000    0.05315    0.06371 =
         0.02560    0.00180   -0.00198   -0.00014
AFIX  13
H2    2    0.459793    0.771427    0.651765    11.00000   -1.20000
AFIX   0
C90   1    0.333450    0.767580    1.093433    11.00000    0.03414    0.06005 =
         0.11573   -0.01296   -0.01274    0.00120
C31   1    0.631842    0.618002    0.553487    11.00000    0.05120    0.06771 =
         0.02639   -0.00266   -0.01453   -0.00257
AFIX 137
H31A  2    0.635612    0.660150    0.527540    11.00000   -1.50000
H31B  2    0.656527    0.604493    0.570550    11.00000   -1.50000
H31C  2    0.613640    0.632973    0.582703    11.00000   -1.50000
AFIX   0
C95   1    0.177661    0.483160    1.097421    11.00000    0.01914    0.04788 =
         0.05833   -0.00905   -0.00254    0.00031
AFIX  43
H95   2    0.162603    0.438437    1.099092    11.00000   -1.20000
AFIX   0
C83   1    0.322338    0.486434    1.127493    11.00000    0.01937    0.05360 =
         0.07926   -0.01957   -0.00104    0.00337
AFIX  43
H83   2    0.336755    0.441847    1.134503    11.00000   -1.20000
AFIX   0
PART 2
O18A  6    0.000000    0.500000    0.598692   -30.50000    0.06421    0.07342 =
         0.01685    0.00000    0.00000    0.00181
MN2A  4   -0.014932    0.594204    0.603959   -31.00000    0.07001    0.07559 =
         0.02189    0.00143   -0.00628    0.00170
PART 0
N9    5    0.589463    0.695423    1.164194    11.00000    0.03195    0.08285 =
         0.06245    0.00683   -0.01059   -0.01119
N10   5   -0.089105    0.694818    1.130143    11.00000    0.03510    0.07077 =
         0.10741   -0.02044    0.01090    0.00880
C81   1    0.232625    0.259052    1.102937    11.00000    0.03219    0.05411 =
         0.14844   -0.01110   -0.01491    0.00458
AFIX  23
H81A  2    0.217225    0.214045    1.113041    11.00000   -1.20000
H81B  2    0.240977    0.253689    1.063627    11.00000   -1.20000
AFIX   0
PART 1
O19   6    0.236655    0.569302    1.189987    41.00000    0.01055    0.04397 =
         0.10274   -0.01140   -0.00736    0.00407
PART 0
C80   1    0.268814    0.265001    1.142163    11.00000    0.03321    0.05747 =
         0.15132   -0.00603   -0.01731    0.00269
AFIX  23
H80A  2    0.260345    0.265768    1.181616    11.00000   -1.20000
H80B  2    0.285408    0.220154    1.136721    11.00000   -1.20000
AFIX   0
C91   1    0.310848    0.766377    1.038729    11.00000    0.04048    0.06107 =
         0.11732   -0.01375   -0.01546    0.00400
AFIX 137
H91A  2    0.328692    0.760228    1.007383    11.00000   -1.50000
H91B  2    0.296744    0.813966    1.034524    11.00000   -1.50000
H91C  2    0.292612    0.724166    1.039196    11.00000   -1.50000
AFIX   0
C92   1    0.363923    0.830525    1.089428    11.00000    0.03843    0.06406 =
         0.11861   -0.01254   -0.01279   -0.00198
AFIX 137
H92A  2    0.380490    0.828974    1.122510    11.00000   -1.50000
H92B  2    0.351090    0.879730    1.087354    11.00000   -1.50000
H92C  2    0.379576    0.822915    1.055870    11.00000   -1.50000
AFIX   0
O13   6    0.616254    0.736316    1.183924    11.00000    0.04368    0.09916 =
         0.12131   -0.01041   -0.02654   -0.01522
C40   1    0.061959    0.668663    0.632550    11.00000    0.06002    0.07063 =
         0.01944    0.00478   -0.00273    0.00906
AFIX  13
H40   2    0.074045    0.619122    0.622831    11.00000   -1.20000
AFIX   0
C93   1    0.308819    0.789582    1.144827    11.00000    0.03799    0.06898 =
         0.11862   -0.01642   -0.01017    0.00204
AFIX 137
H93A  2    0.289650    0.750126    1.151875    11.00000   -1.50000
H93B  2    0.295724    0.837601    1.137548    11.00000   -1.50000
H93C  2    0.325503    0.794935    1.177568    11.00000   -1.50000
AFIX   0
O15   6   -0.113572    0.738153    1.145315    11.00000    0.04844    0.10393 =
         0.29428   -0.08344    0.03521    0.01056
PART 2
O17A  6    0.500000    0.500000    0.654937   -20.50000    0.05877    0.06208 =
         0.01607    0.00000    0.00000    0.00279
PART 0
C102  1    0.169410    0.767436    1.079339    11.00000    0.03670    0.05215 =
         0.13361    0.00051    0.00680   -0.00214
PART 1
V1    7    0.248431    0.562431    1.122249    41.00000    0.01807    0.05169 =
         0.10539   -0.01158   -0.00524    0.00267
PART 0
PART 2
O19A  6    0.262001    0.542125    1.017850   -41.00000    0.01063    0.04699 =
         0.10412   -0.01316   -0.00166   -0.00270
V2    7    0.252695    0.560132    1.079560   -41.00000    0.01735    0.05080 =
         0.10566   -0.01364   -0.00360    0.00161
PART 0
C104  1    0.193919    0.772532    1.027010    11.00000    0.04618    0.05519 =
         0.13641    0.00188    0.01167   -0.00329
AFIX 137
H10A  2    0.215730    0.737713    1.030146    11.00000   -1.50000
H10B  2    0.203494    0.824264    1.022687    11.00000   -1.50000
H10C  2    0.178351    0.758910    0.994422    11.00000   -1.50000
AFIX   0
C103  1    0.194595    0.787831    1.129741    11.00000    0.04166    0.05928 =
         0.13714   -0.00413    0.00360   -0.00188
AFIX 137
H10D  2    0.180724    0.776020    1.164271    11.00000   -1.50000
H10E  2    0.200623    0.841886    1.128783    11.00000   -1.50000
H10F  2    0.218523    0.758612    1.128361    11.00000   -1.50000
AFIX   0
C105  1    0.139434    0.831300    1.073406    11.00000    0.04489    0.05559 =
         0.13999    0.00003    0.00541    0.00235
AFIX 137
H10G  2    0.124472    0.823614    1.039200    11.00000   -1.50000
H10H  2    0.152666    0.880112    1.071539    11.00000   -1.50000
H10I  2    0.122139    0.830706    1.105712    11.00000   -1.50000
AFIX   0
O10   6    0.463625    0.541348    1.138612    11.00000    0.02297    0.06032 =
         0.01847   -0.00523    0.00356   -0.00291
C54   1   -0.134330    0.624608    0.689804    11.00000    0.06334    0.07787 =
         0.01843   -0.00994   -0.00843    0.00070
AFIX 137
H54A  2   -0.138131    0.667304    0.715247    11.00000   -1.50000
H54B  2   -0.159073    0.610138    0.673361    11.00000   -1.50000
H54C  2   -0.116458    0.639256    0.660073    11.00000   -1.50000
AFIX   0
PART 2
MN1A  4    0.516747    0.595413    0.647438   -21.00000    0.06042    0.06310 =
         0.02065    0.00157    0.00081    0.00391
HKLF 4

REM  a in P2(1)2(1)2
REM R1 =  0.0639 for   11741 Fo > 4sig(Fo)  and  0.0715 for all   13279 data
REM   1262 parameters refined using   2496 restraints

END

WGHT      0.0811     72.4824

REM Highest difference peak  0.891,  deepest hole -0.873,  1-sigma level  0.084
Q1    1  -0.0588  0.5952  1.1080  11.00000  0.05    0.89
Q2    1   0.4947  0.5932  1.1395  11.00000  0.05    0.81
Q3    1   0.5597  0.5889  1.1408  11.00000  0.05    0.81
Q4    1   0.0045  0.5939  1.1082  11.00000  0.05    0.75
Q5    1  -0.0291  0.5945  0.6417  11.00000  0.05    0.68
Q6    1   0.5291  0.5943  1.1067  11.00000  0.05    0.60
Q7    1   0.2456  0.5565  0.9857  11.00000  0.05    0.57
Q8    1  -0.0626  0.7736  0.5836  11.00000  0.05    0.56
Q9    1   0.5129  0.5884  1.0412  11.00000  0.05    0.55
Q10   1   0.5306  0.5933  0.6746  11.00000  0.05    0.49
Q11   1  -0.0259  0.6380  0.9682  11.00000  0.05    0.43
Q12   1   0.5280  0.5968  0.2121  11.00000  0.05    0.43
Q13   1   0.5321  0.5994  0.5979  11.00000  0.05    0.41
Q14   1  -0.0316  0.5482  0.2058  11.00000  0.05    0.39
Q15   1  -0.0274  0.5920  1.0380  11.00000  0.05    0.39
Q16   1  -0.0325  0.7157  0.8920  11.00000  0.05    0.38
Q17   1   0.5319  0.5782  0.3833  11.00000  0.05    0.38
Q18   1   0.5273  0.6459  1.1636  11.00000  0.05    0.38
Q19   1  -0.0302  0.6254  0.2084  11.00000  0.05    0.38
Q20   1  -0.0440  0.6024  0.6053  11.00000  0.05    0.36
;
_shelx_res_checksum              74192
_shelx_fab_checksum              92609
_shelx_fab_file
;
    0    2    0    -18.96     -0.42
    0    6    0     57.46      0.20
    0    8    0     17.54     -0.31
    0   10    0      8.22      0.37
    0   12    0     11.53     -0.22
    0   14    0     -1.47     -1.19
    0   16    0     -1.82      0.27
    0    2    1    143.76      0.07
    0    3    1      0.38     93.97
    0    4    1    -17.49      0.63
    0    5    1     -0.09    -21.68
    0    6    1    -40.12     -0.10
    0    7    1     -1.71     12.15
    0    8    1     29.50     -1.47
    0    9    1     -0.85      1.58
    0   10    1     -1.28     -0.88
    0   11    1     -0.20    -19.03
    0   12    1    -18.59      0.42
    0   13    1      0.20     -7.12
    0   14    1      2.14      0.11
    0   15    1     -0.11      7.17
    0   16    1      4.74     -0.40
    0    0    2   -125.68      0.28
    0    2    2     20.84     -0.67
    0    3    2     -0.35   -123.45
    0    4    2      4.12      0.02
    0    5    2     -0.02    -17.47
    0    6    2     18.64     -0.43
    0    7    2     -0.20     29.21
    0    8    2     -7.28      0.73
    0    9    2      0.35      0.97
    0   10    2    -13.97      0.22
    0   11    2      0.21     13.31
    0   12    2     -5.72     -0.14
    0   13    2      0.53     -3.36
    0   14    2     -1.23     -0.10
    0   15    2     -0.81     -4.86
    0   16    2     10.32      0.02
    0    0    3    285.62     -1.59
    0    1    3      0.39    277.38
    0    2    3     40.11     -0.28
    0    3    3      0.56     26.64
    0    4    3    -28.41     -1.12
    0    5    3     -0.58    -62.99
    0    6    3    -15.04      0.19
    0    7    3      0.96      3.35
    0    8    3     13.13      0.24
    0    9    3     -1.14     42.40
    0   10    3     -3.20     -0.56
    0   11    3     -0.30      0.83
    0   12    3      8.28     -0.94
    0   13    3      0.14     -8.70
    0   14    3      1.41      0.22
    0   15    3      2.40      0.55
    0   16    3     -1.22      0.13
    0    1    4      0.48     40.72
    0    2    4    -66.44      1.37
    0    3    4     -0.95    -92.28
    0    4    4    -37.67      0.87
    0    5    4      0.73     58.87
    0    6    4     20.05     -0.04
    0    7    4      0.39     20.80
    0    8    4    -10.39     -2.77
    0    9    4     -0.31    -27.85
    0   10    4      0.91      0.60
    0   11    4     -0.54     -9.01
    0   12    4     -1.76     -0.11
    0   13    4      0.33     -3.09
    0   14    4      2.21     -0.53
    0   15    4     -0.34     10.70
    0   16    4     -2.25     -0.21
    0    1    5     -0.66    -14.31
    0    2    5    -49.76      0.72
    0    3    5      0.34     56.35
    0    4    5     44.96     -1.13
    0    5    5     -0.27    -44.76
    0    6    5     14.31     -0.65
    0    7    5     -0.69     25.68
    0    8    5    -15.97     -0.07
    0    9    5      0.15     12.60
    0   10    5    -21.04     -0.41
    0   11    5      0.19    -13.27
    0   12    5      3.67      0.51
    0   13    5      0.21      0.00
    0   14    5     11.96      0.00
    0   15    5     -0.03      0.94
    0   16    5     -4.48      0.16
    0    0    6   -168.26      0.85
    0    2    6     60.43     -0.98
    0    3    6      0.31    -49.10
    0    4    6     27.90      0.04
    0    5    6     -0.20      3.83
    0    6    6    -51.57      0.39
    0    7    6     -0.35    -12.14
    0    8    6     -0.77      0.27
    0    9    6      1.13     -0.37
    0   10    6     10.10     -0.94
    0   11    6      0.39      5.33
    0   12    6      3.22     -0.56
    0   13    6     -0.13     -0.71
    0   14    6      0.26      0.51
    0   15    6      0.00     -0.24
    0   16    6     -0.42      0.19
    0    0    7     49.78     -1.71
    0    1    7      0.11     43.11
    0    2    7    -11.63     -0.27
    0    3    7     -0.21    -54.80
    0    4    7    -23.12      0.15
    0    5    7     -0.21     15.03
    0    6    7      5.95      0.22
    0    7    7      2.62     45.90
    0    8    7    -12.79     -0.32
    0    9    7     -0.56    -14.33
    0   10    7     -0.20     -0.90
    0   11    7     -0.30    -12.17
    0   12    7      8.19      0.26
    0   13    7      0.21      6.15
    0   14    7     -4.21      0.24
    0   15    7      1.24      7.00
    0   16    7     -1.51      0.02
    0    0    8    -27.82      0.74
    0    1    8     -1.29    -35.01
    0    2    8    -16.00     -0.03
    0    3    8     -0.13     25.90
    0    4    8     13.23     -0.40
    0    5    8      1.13      1.08
    0    6    8      1.87     -0.24
    0    7    8     -0.10    -10.62
    0    8    8    -16.86     -0.63
    0    9    8     -0.08      0.12
    0   10    8      0.24      2.61
    0   11    8      0.05      0.24
    0   12    8     -2.01     -0.52
    0   13    8      0.01      3.29
    0   14    8     -0.70     -0.25
    0   15    8      0.33      6.54
    0    0    9    -56.69     -0.21
    0    1    9      0.67      8.65
    0    2    9     22.51      0.20
    0    3    9      0.32      3.66
    0    4    9     17.26      0.12
    0    5    9     -0.47    -14.69
    0    6    9    -15.14     -0.33
    0    7    9     -0.80     -3.14
    0    8    9      0.99      0.68
    0    9    9      0.83     -5.27
    0   10    9     13.22     -0.37
    0   11    9      0.90      5.76
    0   12    9      4.05      0.14
    0   13    9     -0.28      2.61
    0   14    9      0.05      0.19
    0   15    9     -0.32     -3.69
    0    0   10    -15.91     -0.33
    0    1   10      0.66     -6.93
    0    2   10      5.13     -0.52
    0    3   10      0.60     -4.83
    0    4   10      3.53      0.32
    0    5   10     -0.62     -4.00
    0    6   10    -11.32      0.83
    0    7   10      0.19     -7.20
    0    8   10     -3.14     -0.20
    0    9   10      0.28     -4.45
    0   10   10      2.05     -0.92
    0   11   10     -0.16     -0.95
    0   12   10      2.54      0.37
    0   13   10      0.24      0.16
    0   14   10     -7.68      0.26
    0   15   10      0.20      3.12
    0    0   11    -44.23     -4.66
    0    1   11      1.08     -6.89
    0    2   11    -13.33     -0.75
    0    3   11     -0.29     -2.71
    0    4   11    -16.54     -0.18
    0    5   11      0.28     15.95
    0    6   11      7.66     -0.43
    0    7   11      0.75      9.65
    0    8   11      1.69      0.27
    0    9   11     -0.47     -7.92
    0   10   11     -0.92     -0.17
    0   11   11     -0.61      0.11
    0   12   11     -7.73      0.31
    0   13   11     -0.09      0.39
    0   14   11      1.67      0.30
    0    0   12      1.48      7.80
    0    1   12     -0.71     19.20
    0    2   12     -6.25     -1.76
    0    3   12      0.53      7.14
    0    4   12     24.84      0.16
    0    5   12     -1.19     -2.64
    0    6   12      4.26      0.16
    0    7   12     -0.20     -4.66
    0    8   12      6.93     -0.05
    0    9   12     -0.04     -1.96
    0   10   12      1.41      1.22
    0   11   12      0.39      1.61
    0   12   12     -2.97     -0.01
    0   13   12      0.05      1.03
    0   14   12      0.90     -0.10
    0    0   13    -37.17     -3.27
    0    1   13      0.40    -11.88
    0    2   13     -1.13     -0.31
    0    3   13      0.28     10.18
    0    4   13    -36.74      0.64
    0    5   13      0.72    -21.33
    0    6   13     -3.83      0.77
    0    7   13     -0.72    -11.53
    0    8   13      4.66     -0.34
    0    9   13      0.49     -1.11
    0   10   13     -1.86      0.14
    0   11   13     -0.13      7.90
    0   12   13      5.19      0.04
    0   13   13     -0.28      0.86
    0    0   14     -2.63      2.80
    0    1   14      3.51    -70.67
    0    2   14    -27.46      2.14
    0    3   14      0.23     -2.09
    0    4   14      9.81     -0.87
    0    5   14      0.18     17.55
    0    6   14     -1.77     -1.27
    0    7   14      0.13     29.36
    0    8   14      5.09      0.50
    0    9   14      0.41      0.83
    0   10   14     -1.93     -0.48
    0   11   14      0.08     -9.93
    0   12   14     -5.37      0.01
    0   13   14     -0.36      1.72
    0    0   15    -12.38    -13.08
    0    1   15      4.42     51.14
    0    2   15      2.70     -0.31
    0    3   15      0.75      4.30
    0    4   15     -5.61     -0.83
    0    5   15     -3.49     -9.06
    0    6   15      3.34     -0.49
    0    7   15      0.00    -17.76
    0    8   15     -2.72     -0.21
    0    9   15      0.52    -14.19
    0   10   15      3.65     -0.15
    0   11   15     -0.14     -4.70
    0   12   15      1.46      0.00
    0    0   16     10.77     34.55
    0    1   16     -2.48    -39.23
    0    2   16    -12.83     -0.35
    0    3   16      0.70    -12.15
    0    4   16      4.32      1.67
    0    5   16      0.64    -17.10
    0    6   16     -5.27      0.03
    0    7   16     -0.32     -1.19
    0    8   16      3.32      0.26
    0    9   16     -0.20      4.83
    0   10   16      4.09      0.47
    0   11   16     -0.24     -0.47
    0   12   16      2.15      0.03
    0    0   17     -2.23    -32.36
    0    1   17     -4.15     -2.84
    0    2   17      1.27      5.67
    0    3   17      0.10     -2.76
    0    4   17     -4.76     -2.62
    0    5   17      3.01     -3.95
    0    6   17      0.35     -0.89
    0    7   17     -0.09      2.28
    0    8   17      0.23      0.31
    0    9   17     -0.17     -2.64
    0   10   17      4.01      0.51
    0   11   17     -0.02      2.09
    0    0   18      3.12     15.94
    0    1   18      3.62      1.71
    0    2   18    -12.17     -0.25
    0    3   18     -2.32      5.16
    0    4   18      5.89     -0.10
    0    5   18     -1.16      6.43
    0    6   18      7.43     -0.51
    0    7   18      0.12     -4.10
    0    8   18     -0.04      0.25
    0    9   18      0.29     -5.61
    0   10   18      6.52      0.08
    0    0   19     -1.14      1.07
    0    1   19     -0.44     -2.20
    0    2   19      3.73     -0.99
    0    3   19      1.12      4.31
    0    4   19      8.82      2.90
    0    5   19     -0.73     -7.31
    0    6   19     -0.39     -0.33
    0    7   19     -0.04     -1.95
    0    8   19      0.83     -0.37
    0    9   19     -0.05     -1.19
    0    0   20      0.23     -6.47
    0    1   20     -1.61     -1.09
    0    2   20     -4.46      1.14
    0    3   20      0.24    -10.66
    0    4   20      0.57     -2.25
    0    5   20      1.59      1.72
    0    6   20     -0.43      0.59
    0    7   20     -0.16     -4.96
    0    8   20      5.39      0.11
    0    0   21     -0.64     -0.15
    0    1   21     -0.97      5.64
    0    2   21     -1.84      3.11
    0    3   21     -2.45      4.04
    0    4   21     -4.65     -0.19
    0    5   21      0.17     -1.98
    0    6   21     -0.22     -0.86
    0    0   22     -4.19      2.16
    0    1   22      0.04      5.20
    0    2   22     -2.43     -2.32
    0    3   22      0.01     -4.48
    0    4   22     -2.04      0.87
    1    1    0      5.11     -1.76
    1    2    0   -325.53      0.23
    1    3    0    -12.75      0.44
    1    4    0     88.19     -0.70
    1    5    0    -12.78      0.22
    1    6    0     30.12     -0.74
    1    7    0      7.21     -0.20
    1    8    0    -15.18      0.74
    1    9    0     -1.08      0.04
    1   10    0      2.79      0.60
    1   11    0      6.84     -0.31
    1   12    0     -1.49     -1.11
    1   13    0     -1.97      0.14
    1   14    0     -0.10      0.28
    1   15    0     -1.29      0.10
    1   16    0     -6.59      2.59
    1    0    1     -2.11     -1.53
    1    1    1     -2.19     36.21
    1    2    1    -36.82    -23.14
    1    3    1     -9.25   -102.16
    1    4    1    -69.57     16.29
    1    5    1    -14.78    -35.22
    1    6    1      5.48      3.29
    1    7    1      1.37      7.50
    1    8    1      0.76     -1.22
    1    9    1     -0.30     -4.24
    1   10    1    -12.23      4.90
    1   11    1      0.44      5.53
    1   12    1      1.83     -3.09
    1   13    1     -1.91     13.10
    1   14    1     11.64     -1.46
    1   15    1      1.18      5.68
    1   16    1      1.52      0.62
    1    0    2      2.59      5.13
    1    1    2     46.04   -141.53
    1    2    2    -63.35     -3.83
    1    3    2    -29.82    -64.13
    1    4    2    -65.19     -2.69
    1    5    2     -8.97     21.20
    1    6    2      8.20     -3.87
    1    7    2     -2.18     -4.68
    1    8    2     13.44     -0.48
    1    9    2      7.70      4.83
    1   10    2     14.54      1.10
    1   11    2     -2.91     -7.87
    1   12    2      4.34      1.46
    1   13    2     -0.95     -3.63
    1   14    2     -1.42      1.44
    1   15    2      3.96      3.85
    1   16    2      4.01     -1.03
    1    0    3      0.17    -51.47
    1    1    3     57.07    -83.25
    1    2    3    -14.52      1.69
    1    3    3    -31.06    -44.28
    1    4    3      0.85    -12.09
    1    5    3    -21.79     18.62
    1    6    3     25.37     -0.53
    1    7    3      1.48     23.67
    1    8    3    -10.95      9.80
    1    9    3      2.94    -19.99
    1   10    3     -4.91     -1.79
    1   11    3      2.13     -7.27
    1   12    3      7.96      3.17
    1   13    3     -0.35      0.42
    1   14    3      4.20     -4.19
    1   15    3     -2.35      5.91
    1   16    3     -1.01      0.92
    1    0    4     -0.09     -9.14
    1    1    4     21.03    -78.20
    1    2    4    -44.25    -14.72
    1    3    4    -17.43    -37.30
    1    4    4     69.07     -3.86
    1    5    4    -11.07      9.66
    1    6    4     -9.02     -4.65
    1    7    4      0.03    -25.29
    1    8    4     -7.13     19.69
    1    9    4    -11.85     -4.80
    1   10    4     11.11     -2.53
    1   11    4      4.63      3.20
    1   12    4     -7.52     -4.01
    1   13    4     -3.16      8.94
    1   14    4     -3.25      0.01
    1   15    4     -2.12     -0.40
    1   16    4     -6.88      3.24
    1    0    5     -1.38     31.68
    1    1    5      2.30    -15.16
    1    2    5     72.85     16.16
    1    3    5     26.11    -62.77
    1    4    5     17.39    -16.97
    1    5    5     -8.27    -12.38
    1    6    5     -4.92    -13.73
    1    7    5     -6.67     27.22
    1    8    5     -0.49      7.33
    1    9    5      0.52    -13.49
    1   10    5      2.40     15.08
    1   11    5     -0.29     -3.89
    1   12    5     15.30     -2.40
    1   13    5      1.69      1.33
    1   14    5     -7.05     -5.11
    1   15    5      2.33      3.41
    1   16    5     -3.25      1.99
    1    0    6      1.32     67.12
    1    1    6     25.92    -21.36
    1    2    6     41.90    -26.70
    1    3    6     -6.25     21.82
    1    4    6    -48.71    -23.95
    1    5    6      7.84     16.36
    1    6    6      7.48     10.89
    1    7    6    -10.24     -8.44
    1    8    6     24.37     -5.89
    1    9    6     -3.12     18.37
    1   10    6      6.72     -0.94
    1   11    6      4.61      3.69
    1   12    6      2.54      3.93
    1   13    6      1.70      1.19
    1   14    6      1.43     -4.13
    1   15    6     -0.24      3.02
    1   16    6     -0.66     -1.94
    1    0    7     -0.24    -16.20
    1    1    7     14.37    -23.17
    1    2    7     -5.88      1.40
    1    3    7    -30.81     -4.31
    1    4    7     21.26      8.60
    1    5    7     14.65     26.55
    1    6    7     -2.31    -12.87
    1    7    7      8.92     -6.47
    1    8    7    -11.33      3.33
    1    9    7    -23.98    -20.15
    1   10    7      9.12     -1.16
    1   11    7     -4.41      4.09
    1   12    7     -4.43     -4.96
    1   13    7      6.64      3.50
    1   14    7     -2.58      0.63
    1   15    7     -0.55     -6.97
    1   16    7     -1.12      1.06
    1    0    8      0.57     -1.91
    1    1    8    -23.51     -7.64
    1    2    8     17.17     16.58
    1    3    8     29.56      3.90
    1    4    8      7.41      1.60
    1    5    8     -1.61    -18.68
    1    6    8     -1.45     -3.29
    1    7    8     -3.69      5.63
    1    8    8     -2.91      2.44
    1    9    8     -2.97      1.53
    1   10    8      8.33     -0.82
    1   11    8     -1.55      2.98
    1   12    8      2.97      2.41
    1   13    8      2.40      1.67
    1   14    8     -6.10      0.12
    1   15    8     -0.99     -1.32
    1    0    9     -1.20     26.17
    1    1    9      5.01      7.66
    1    2    9     13.28    -18.27
    1    3    9      3.12      0.42
    1    4    9    -15.27     -4.42
    1    5    9     -5.31     18.59
    1    6    9     -4.44     16.73
    1    7    9      5.30      8.23
    1    8    9     13.53     -2.72
    1    9    9     -0.95      6.83
    1   10    9     -6.82    -11.77
    1   11    9      0.71      8.92
    1   12    9     -7.86      0.87
    1   13    9      4.39     -4.81
    1   14    9      1.84      4.76
    1   15    9     -1.44      0.80
    1    0   10     -0.60      2.94
    1    1   10      1.49     15.58
    1    2   10     16.72    -13.51
    1    3   10    -11.28     -0.01
    1    4   10      2.95      0.91
    1    5   10      2.10    -10.39
    1    6   10    -11.46     11.27
    1    7   10      2.66     -1.32
    1    8   10     -6.19     -7.97
    1    9   10      0.95     13.40
    1   10   10      8.32     -3.76
    1   11   10     -3.86     -9.67
    1   12   10      3.49     -0.10
    1   13   10      2.33     -3.79
    1   14   10     -5.27      1.78
    1   15   10      1.25     -0.61
    1    0   11      0.18     14.35
    1    1   11     -4.82     -2.20
    1    2   11     -0.79      4.82
    1    3   11     -6.40      3.81
    1    4   11    -20.33     -7.62
    1    5   11      5.73     -4.70
    1    6   11      2.23      4.51
    1    7   11     -2.50     -4.40
    1    8   11      1.07      1.61
    1    9   11     -2.06     -9.46
    1   10   11     -1.20     -3.07
    1   11   11      5.19     -0.20
    1   12   11      0.64      4.31
    1   13   11     -3.16      0.75
    1   14   11      4.99     -0.54
    1    0   12      0.00     -2.30
    1    1   12      3.80      7.09
    1    2   12      5.55      4.33
    1    3   12     -0.37     -0.18
    1    4   12      9.36     -5.11
    1    5   12    -10.15     -0.01
    1    6   12     -4.57     -3.36
    1    7   12      6.30     -1.78
    1    8   12     -1.55      6.54
    1    9   12      4.78      1.43
    1   10   12     -3.89     -1.62
    1   11   12      2.89      1.38
    1   12   12      2.44     -2.15
    1   13   12     -3.44     -0.26
    1   14   12     -4.50      4.44
    1    0   13     -2.77     17.73
    1    1   13    -19.22      3.02
    1    2   13     12.10    -10.15
    1    3   13     16.90      1.58
    1    4   13     -6.66    -10.23
    1    5   13     -2.80      0.17
    1    6   13     -2.07     13.66
    1    7   13     -4.93      2.80
    1    8   13     -2.24      1.51
    1    9   13      6.48     11.52
    1   10   13      1.09     -3.07
    1   11   13     -2.31      5.90
    1   12   13     -2.79     -4.25
    1   13   13     -0.78     -4.09
    1    0   14      4.72     16.88
    1    1   14     -4.60     12.89
    1    2   14      1.33     -0.90
    1    3   14     -4.88     -3.31
    1    4   14      4.34     -6.09
    1    5   14     11.91      8.72
    1    6   14      5.67      5.84
    1    7   14     -3.98      6.56
    1    8   14     -4.01     -7.56
    1    9   14     -6.45    -11.76
    1   10   14     -1.55      5.05
    1   11   14      0.19     -3.19
    1   12   14      3.05     -0.02
    1   13   14      1.51      0.49
    1    0   15     -1.89     -7.76
    1    1   15     -4.45      0.10
    1    2   15      1.32      0.78
    1    3   15     13.68     -5.42
    1    4   15      0.04      6.65
    1    5   15      0.12     -3.20
    1    6   15     -2.38     -3.06
    1    7   15     -9.94      1.83
    1    8   15     -5.77      2.10
    1    9   15     -1.14     -4.61
    1   10   15     -9.21      1.44
    1   11   15      5.78     -3.85
    1   12   15     -3.67     -0.65
    1    0   16     -0.27    -10.61
    1    1   16     -8.16      5.24
    1    2   16     -4.36      2.43
    1    3   16      2.26     22.52
    1    4   16      1.46      7.23
    1    5   16      1.71      2.94
    1    6   16     -5.55     -0.23
    1    7   16      0.05     -7.43
    1    8   16      2.13     -2.08
    1    9   16     -2.18     -5.03
    1   10   16     -4.27     -4.95
    1   11   16      2.17     -3.49
    1   12   16      1.34      0.06
    1    0   17      0.27      4.76
    1    1   17     -8.31      3.18
    1    2   17      5.06      8.28
    1    3   17      8.92    -17.83
    1    4   17    -13.57      2.15
    1    5   17     -3.80      6.72
    1    6   17    -11.89     -3.98
    1    7   17     -0.38      5.44
    1    8   17      3.75     -8.41
    1    9   17      0.08      0.97
    1   10   17     21.49     -1.18
    1   11   17     -1.45      3.81
    1    0   18      1.36      5.32
    1    1   18      2.45     -8.34
    1    2   18     -4.27     -1.17
    1    3   18     -0.64     12.17
    1    4   18      6.85      2.67
    1    5   18     -1.53      4.43
    1    6   18      6.54      3.22
    1    7   18     -2.06     -0.51
    1    8   18     -5.13     -8.57
    1    9   18     -1.24     -2.01
    1   10   18    -16.06      0.32
    1    0   19     -1.14     -5.19
    1    1   19     -1.46     -1.04
    1    2   19    -12.30      7.64
    1    3   19     -4.44     -5.90
    1    4   19      3.97      5.81
    1    5   19      0.67     -6.41
    1    6   19      0.40     -5.44
    1    7   19      2.14     -0.73
    1    8   19     -1.16      3.29
    1    9   19      4.82      2.03
    1    0   20     -0.09      7.14
    1    1   20     -6.10      2.41
    1    2   20      2.03      2.80
    1    3   20      5.96      0.36
    1    4   20     -5.49      1.04
    1    5   20     -2.29      0.45
    1    6   20     -4.11     -3.80
    1    7   20      3.57      1.88
    1    8   20     -4.57     -0.64
    1    0   21      0.18      7.45
    1    1   21      1.74     -5.31
    1    2   21      2.59     -0.06
    1    3   21     -3.89     -2.54
    1    4   21     -0.39     -3.39
    1    5   21      0.47      0.93
    1    6   21     -3.06      0.34
    1    0   22      0.41     -0.95
    1    1   22     -1.29     -8.60
    1    2   22     -5.34      3.76
    1    3   22     -2.45     -1.10
    1    4   22     -0.49      2.26
    2    1    0     22.08     -0.48
    2    2    0   -103.68     -1.91
    2    3    0      6.79      0.32
    2    5    0     -2.64     -0.35
    2    6    0    -21.04     -0.05
    2    7    0      0.20      0.20
    2    8    0      4.91      1.98
    2    9    0      0.70      0.15
    2   10    0     -5.49     -0.33
    2   11    0     -1.69      0.33
    2   12    0     -7.43      0.17
    2   13    0     -2.05     -0.10
    2   14    0     -0.65      1.07
    2   15    0     -1.34      0.11
    2   16    0     -2.85     -0.36
    2    0    1    325.23      0.11
    2    1    1      5.60      0.21
    2    2    1    -91.82      2.54
    2    3    1    -11.68      8.22
    2    4    1    -34.48     36.27
    2    5    1      6.02    -28.54
    2    6    1      1.46      3.94
    2    7    1     14.61      5.82
    2    8    1      2.67     13.75
    2    9    1      2.26      4.90
    2   10    1      5.19      1.94
    2   11    1      9.68      4.91
    2   12    1      1.05     -1.26
    2   13    1     -0.79     -1.57
    2   14    1     -2.90      1.43
    2   15    1      5.49      1.07
    2   16    1      0.33      5.69
    2    0    2     52.07     -0.97
    2    1    2    -77.00    -70.65
    2    2    2      1.98      7.09
    2    3    2     -4.97    -60.59
    2    4    2    -41.73     27.66
    2    5    2     15.25    -28.58
    2    6    2      5.58     -3.82
    2    7    2     17.87      7.34
    2    8    2     12.15      5.80
    2    9    2      9.11     -1.80
    2   10    2     -4.03     -8.02
    2   11    2     -0.84     -6.15
    2   12    2      4.18     -0.62
    2   13    2      2.75      1.59
    2   14    2      2.24      0.95
    2   15    2      1.96      0.67
    2   16    2     -4.05     -1.36
    2    0    3    -94.57      3.91
    2    1    3    -23.14    -94.92
    2    2    3    -33.00     33.68
    2    3    3    -29.34   -103.15
    2    4    3    -12.75    -26.34
    2    5    3     15.55     17.36
    2    6    3     16.09     25.28
    2    7    3      9.37    -11.23
    2    8    3     -5.86    -12.17
    2    9    3     -3.39     -5.95
    2   10    3     -1.47      4.70
    2   11    3     -6.44     -0.26
    2   12    3      0.21     -0.60
    2   13    3      2.09     -6.83
    2   14    3     -3.12      2.59
    2   15    3     -2.36     -1.36
    2   16    3     -0.81     -1.41
    2    0    4    -60.80      3.20
    2    1    4    -28.49     -7.02
    2    2    4     20.44    -32.40
    2    3    4    -27.97     17.94
    2    4    4     66.19     -1.04
    2    5    4    -10.38    -31.87
    2    6    4    -11.67     20.05
    2    7    4    -15.64      3.88
    2    8    4      1.48      5.37
    2    9    4      6.20     11.50
    2   10    4      2.79     -1.50
    2   11    4     12.69     -1.80
    2   12    4     -1.44      2.54
    2   13    4     -3.85      3.43
    2   14    4      0.09      3.98
    2   15    4      3.41     -6.58
    2   16    4      0.73      3.20
    2    0    5    102.57     -1.43
    2    1    5    -20.78     12.28
    2    2    5     17.40    -41.55
    2    3    5    -29.16    -33.58
    2    4    5    -11.95      2.22
    2    5    5    -29.42      9.23
    2    6    5     21.02     14.10
    2    7    5      7.55     -4.67
    2    8    5      3.30     24.30
    2    9    5      5.20     -7.94
    2   10    5     -0.10    -14.24
    2   11    5      2.35     -0.12
    2   12    5     -0.30    -13.36
    2   13    5      0.92      2.78
    2   14    5      2.83      7.08
    2   15    5     -3.57      1.29
    2   16    5     -0.50      4.84
    2    0    6     40.15      0.12
    2    1    6    -13.53    -32.10
    2    2    6      4.25    -43.15
    2    3    6    -10.00      4.82
    2    4    6      2.99     25.82
    2    5    6      9.33      2.93
    2    6    6      6.51     -3.92
    2    7    6    -10.09     26.87
    2    8    6      9.59    -12.84
    2    9    6      4.27     -3.18
    2   10    6     -2.41     13.19
    2   11    6     -1.92     -2.19
    2   12    6      0.03     -2.16
    2   13    6      1.39     -5.48
    2   14    6     -1.40      0.12
    2   15    6     -0.75      1.79
    2   16    6     -0.44      1.04
    2    0    7    -34.13      2.23
    2    1    7    -41.57    -19.38
    2    2    7     14.51      8.98
    2    3    7     18.02     -9.64
    2    4    7     11.07    -33.72
    2    5    7     16.55     14.65
    2    6    7     -0.69     -4.25
    2    7    7    -33.46    -10.47
    2    8    7     -1.57      5.27
    2    9    7    -10.70     -3.76
    2   10    7      4.25      0.14
    2   11    7     21.75     -0.39
    2   12    7      2.44      3.09
    2   13    7      8.04     -0.93
    2   14    7     -0.41      1.48
    2   15    7     -8.70     -2.01
    2   16    7     -2.20      0.44
    2    0    8      7.99     -1.22
    2    1    8     28.86     12.76
    2    2    8     14.77    -18.86
    2    3    8     -1.87      3.75
    2    4    8     -1.08    -20.32
    2    5    8    -21.86     -1.58
    2    6    8      2.54     -2.82
    2    7    8     -2.09      6.31
    2    8    8      0.74     10.72
    2    9    8      6.53      8.57
    2   10    8      4.96     -2.86
    2   11    8      2.93     -2.15
    2   12    8     -0.27     -6.08
    2   13    8     -0.72     -2.17
    2   14    8      4.21     -2.35
    2   15    8     -4.11     -5.42
    2    0    9     21.90      1.23
    2    1    9     -2.54      0.73
    2    2    9     -0.28    -16.79
    2    3    9    -15.75     -8.02
    2    4    9      4.35     16.06
    2    5    9      4.80      0.72
    2    6    9     -4.07     -5.09
    2    7    9      4.39      6.96
    2    8    9     -8.40    -23.37
    2    9    9     -1.38      2.53
    2   10    9     -0.82      1.60
    2   11    9      0.81      0.26
    2   12    9     -2.51      7.77
    2   13    9     -3.08     -0.67
    2   14    9      0.21      2.41
    2   15    9     -5.32     -0.15
    2    0   10     -0.59      1.39
    2    1   10    -12.29     -2.88
    2    2   10      9.03     -3.60
    2    3   10      5.89     -1.34
    2    4   10     -6.34     14.47
    2    5   10     10.48      8.32
    2    6   10      2.08    -15.23
    2    7   10    -12.60     11.88
    2    8   10      1.84    -11.37
    2    9   10     -4.21     -4.28
    2   10   10     -3.35      8.17
    2   11   10      0.42      1.98
    2   12   10      3.58      4.33
    2   13   10      6.42     -1.80
    2   14   10      4.23     -0.84
    2   15   10     -3.79      1.02
    2    0   11      1.13      4.56
    2    1   11      8.65      2.32
    2    2   11     12.54    -16.75
    2    3   11     10.12      5.78
    2    4   11     23.06    -10.40
    2    5   11     -2.63     -4.20
    2    6   11     -2.38     17.72
    2    7   11     -8.23     -6.58
    2    8   11     -5.02      1.09
    2    9   11      6.63      1.39
    2   10   11      0.61      1.32
    2   11   11      0.81     -2.75
    2   12   11      0.29     -2.99
    2   13   11     -2.81      0.22
    2   14   11      2.44     -6.50
    2    0   12     -3.23     -8.84
    2    1   12     -4.73    -11.07
    2    2   12      7.33      0.78
    2    3   12    -10.00      2.31
    2    4   12    -21.44    -12.03
    2    5   12      5.52     -5.65
    2    6   12     -2.86      7.74
    2    7   12     11.37      0.72
    2    8   12     -6.39      2.16
    2    9   12      1.13     -3.99
    2   10   12     -2.24    -10.25
    2   11   12     -2.11      2.39
    2   12   12      1.39      3.26
    2   13   12     -5.24     -0.79
    2   14   12      2.64     -3.23
    2    0   13     42.90      5.75
    2    1   13     25.06     -6.82
    2    2   13      8.20    -15.59
    2    3   13      5.00      1.31
    2    4   13     25.45     15.87
    2    5   13    -20.38     18.19
    2    6   13     -4.09     -3.77
    2    7   13      0.44      9.69
    2    8   13     -5.33    -11.04
    2    9   13      3.76     -1.10
    2   10   13      3.35     -4.89
    2   11   13     -2.01     -6.04
    2   12   13      3.79      2.58
    2   13   13      2.94     -2.46
    2    0   14    -17.11     -0.27
    2    1   14      9.05     57.43
    2    2   14     13.68    -19.30
    2    3   14      7.84      7.37
    2    4   14     -7.33      6.39
    2    5   14     -9.04    -16.33
    2    6   14     -0.19      2.43
    2    7   14    -19.68    -19.82
    2    8   14      2.24     -3.32
    2    9   14      5.58     -7.38
    2   10   14     -0.28     -1.59
    2   11   14      2.76      3.34
    2   12   14      3.74     -7.10
    2   13   14      0.02      4.19
    2    0   15      6.16     12.65
    2    1   15     12.72    -31.09
    2    2   15     -7.51      4.61
    2    3   15      3.61     -3.67
    2    4   15      1.96     -1.34
    2    5   15    -26.25     -3.58
    2    6   15      4.83      9.10
    2    7   15      1.85     10.92
    2    8   15      5.33     -0.20
    2    9   15      1.78      8.42
    2   10   15     -3.28     -5.74
    2   11   15      1.01      6.84
    2   12   15      0.00     -2.30
    2    0   16     -3.24    -38.86
    2    1   16      2.81     33.77
    2    2   16      3.42      7.45
    2    3   16      6.53     14.78
    2    4   16      3.90     -5.20
    2    5   16      1.55      8.59
    2    6   16     -1.31    -10.05
    2    7   16     -2.23      1.06
    2    8   16     -3.96     -0.55
    2    9   16      1.56     -7.99
    2   10   16      1.30      1.36
    2   11   16      4.24     -0.01
    2   12   16      1.75      2.74
    2    0   17    -12.36     33.58
    2    1   17     15.59      0.04
    2    2   17    -10.36    -12.63
    2    3   17      2.15     -0.47
    2    4   17      9.18    -16.54
    2    5   17     -9.53     -1.69
    2    6   17      4.00     -6.72
    2    7   17      4.86      1.75
    2    8   17      0.43     -2.78
    2    9   17      1.60      1.14
    2   10   17     -2.17      0.09
    2   11   17      5.68     -0.23
    2    0   18     -6.15    -12.73
    2    1   18     -5.89     -3.65
    2    2   18      2.13     -0.73
    2    3   18     -6.32     -1.10
    2    4   18     -2.63      0.05
    2    5   18     -3.92     -2.65
    2    6   18     -3.11    -11.07
    2    7   18     -0.55     -1.19
    2    8   18      3.18     -5.55
    2    9   18     -0.12      5.40
    2   10   18     -3.94      2.76
    2    0   19     -0.23     -5.88
    2    1   19      4.43      0.09
    2    2   19     -8.52     10.81
    2    3   19      1.32     -2.56
    2    4   19     -1.29    -10.39
    2    5   19     12.90      6.29
    2    6   19      0.12     -1.86
    2    7   19      2.13      1.29
    2    8   19     -0.13      0.57
    2    9   19     -3.70      1.10
    2    0   20      0.73      4.98
    2    1   20      3.81      1.66
    2    2   20      1.60     -8.74
    2    3   20     11.98      6.10
    2    4   20     -0.49     -3.51
    2    5   20     -2.02     -3.19
    2    6   20      0.25      1.77
    2    7   20      8.23      6.88
    2    8   20     -5.29      1.82
    2    0   21     -1.05      1.00
    2    1   21     -5.80     -3.42
    2    2   21     -0.14     -9.64
    2    3   21     -0.19     -6.78
    2    4   21      1.18      0.33
    2    5   21      4.91      0.64
    2    6   21      2.36      5.14
    2    0   22      0.81     -2.01
    2    1   22     -3.60      0.02
    2    2   22      1.40      7.07
    2    3   22      3.19      0.16
    2    4   22      1.50     -3.38
    3    1    0      4.28      4.61
    3    3    0     18.81      0.14
    3    5    0     11.45      0.19
    3    6    0     52.92      0.87
    3    7    0      2.72     -0.65
    3    8    0     -1.43      0.10
    3    9    0     -2.14     -0.49
    3   10    0     -4.22     -1.08
    3   11    0    -11.78      0.14
    3   12    0     -6.70      0.45
    3   13    0      6.07     -0.16
    3   14    0     -3.93     -0.23
    3   15    0      2.28     -0.22
    3   16    0      2.48     -1.26
    3    0    1      3.05    -16.74
    3    1    1     16.42    105.45
    3    2    1    -44.72     30.94
    3    3    1     11.72    -22.74
    3    4    1    -25.40    -16.95
    3    5    1     13.71     -2.63
    3    6    1     38.68    -11.19
    3    7    1      7.26     19.59
    3    8    1     20.53      0.12
    3    9    1      6.79     -7.84
    3   10    1    -12.41     -5.46
    3   11    1      1.03     -4.55
    3   12    1     -1.03      3.50
    3   13    1     -1.42      0.50
    3   14    1      0.46      3.63
    3   15    1     -1.52      3.64
    3   16    1     -1.77     -0.70
    3    0    2     -3.34     -9.78
    3    1    2    -42.08   -172.87
    3    2    2     -8.05     -6.01
    3    3    2    -12.35    -59.41
    3    4    2     -0.02     13.54
    3    5    2      2.99     89.02
    3    6    2     20.08     10.86
    3    7    2     10.56     17.56
    3    8    2    -37.54      4.35
    3    9    2     -4.80    -13.55
    3   10    2      2.05      1.28
    3   11    2      1.75      4.25
    3   12    2      4.02     -3.53
    3   13    2      0.23     -4.00
    3   14    2      6.92     -1.63
    3   15    2     -3.38      1.78
    3   16    2     -1.63     -0.48
    3    0    3      0.16     75.92
    3    1    3    -52.43    -84.06
    3    2    3    -75.27      7.63
    3    3    3     18.73    -22.36
    3    4    3      5.45     24.35
    3    5    3     17.04      7.67
    3    6    3      6.30     -0.33
    3    7    3     -2.79     30.02
    3    8    3      1.95     -0.96
    3    9    3      3.86      8.35
    3   10    3     10.70     -4.52
    3   11    3     -3.84    -20.48
    3   12    3     -5.82     -3.09
    3   13    3     -2.27      2.69
    3   14    3     -3.68      2.30
    3   15    3      4.02      1.61
    3   16    3      0.20      0.45
    3    0    4      0.56     29.87
    3    1    4     -4.38    -63.10
    3    2    4     34.84     30.63
    3    3    4      9.04     -1.48
    3    4    4     12.44    -19.55
    3    5    4      4.81     28.76
    3    6    4    -20.91      5.00
    3    7    4     17.07     -8.30
    3    8    4      0.50    -15.12
    3    9    4     12.28     -6.19
    3   10    4     -8.71      1.61
    3   11    4     -5.85      6.25
    3   12    4      9.13      5.27
    3   13    4      7.36     -1.82
    3   14    4      5.05      2.14
    3   15    4      1.31     -0.89
    3   16    4     -2.87     -4.99
    3    0    5      0.60    -37.50
    3    1    5     -4.37     12.03
    3    2    5    -34.19    -34.35
    3    3    5    -39.07    -10.24
    3    4    5     12.10      7.58
    3    5    5     -0.05      6.11
    3    6    5    -18.70      0.71
    3    7    5      8.35      7.91
    3    8    5    -29.10      5.11
    3    9    5     -6.02     -9.44
    3   10    5     10.41    -16.36
    3   11    5      2.38      4.42
    3   12    5     11.61     -5.25
    3   13    5     -2.72      5.87
    3   14    5     -7.87      3.56
    3   15    5     -1.70      0.31
    3   16    5     -1.96     -1.28
    3    0    6     -0.62    -41.37
    3    1    6    -47.68    -41.28
    3    2    6     58.97     15.00
    3    3    6      1.30    -13.06
    3    4    6    -40.78     19.59
    3    5    6     -2.92     22.91
    3    6    6      1.87     -4.96
    3    7    6     12.65      1.95
    3    8    6      4.20      8.51
    3    9    6     -0.77    -24.60
    3   10    6     -7.32      0.88
    3   11    6     -4.76     -5.51
    3   12    6     -4.41     -6.38
    3   13    6     -4.30     -0.29
    3   14    6      0.20      3.85
    3   15    6      0.96      3.64
    3   16    6      1.17      3.04
    3    0    7      0.82     12.58
    3    1    7    -12.16    -47.62
    3    2    7      4.19      7.31
    3    3    7     21.00     17.24
    3    4    7      1.73    -10.50
    3    5    7     10.92     24.12
    3    6    7     -1.81     15.57
    3    7    7     -6.94    -22.93
    3    8    7      1.84     -4.10
    3    9    7     16.20     -5.60
    3   10    7     13.21      1.78
    3   11    7      6.30      9.19
    3   12    7     -4.11      6.36
    3   13    7     -0.25      5.03
    3   14    7      2.09      1.00
    3   15    7      1.04     -1.37
    3   16    7      1.48     -2.82
    3    0    8     -1.25    -13.38
    3    1    8     19.14     20.71
    3    2    8      0.72    -34.19
    3    3    8    -15.48      0.00
    3    4    8    -10.64     -0.08
    3    5    8     -2.97    -12.30
    3    6    8    -17.38      3.38
    3    7    8      6.35      8.00
    3    8    8      1.12      3.29
    3    9    8     -0.75      2.99
    3   10    8      3.67     -5.84
    3   11    8      2.75     -5.30
    3   12    8     -0.14     -2.36
    3   13    8      1.36     -0.62
    3   14    8      3.06     -3.00
    3   15    8      1.04     -2.15
    3    0    9      1.15    -15.81
    3    1    9     -6.18     -9.27
    3    2    9      6.30      6.43
    3    3    9     -7.99     -8.08
    3    4    9    -14.60      2.31
    3    5    9      4.92    -14.47
    3    6    9    -14.56     -2.88
    3    7    9      1.84      0.33
    3    8    9      3.31      0.09
    3    9    9     -5.19     -3.38
    3   10    9     16.46      2.78
    3   11    9     -1.59     -2.25
    3   12    9      7.65     -1.89
    3   13    9     -2.06     -1.98
    3   14    9     -7.47     -0.40
    3   15    9      0.46      2.94
    3    0   10      0.39    -16.48
    3    1   10      2.60      3.87
    3    2   10     -3.30     19.37
    3    3   10     16.07      1.84
    3    4   10    -17.85     12.56
    3    5   10     -1.48     10.61
    3    6   10      9.33     -5.40
    3    7   10     -5.84     -9.52
    3    8   10      4.00     -0.28
    3    9   10     -0.67     -7.77
    3   10   10      1.36      3.43
    3   11   10      3.07      4.91
    3   12   10     -1.33      1.55
    3   13   10     -0.03      3.21
    3   14   10      0.19     -0.63
    3   15   10      2.33      0.83
    3    0   11     -0.93    -10.75
    3    1   11     12.97      4.90
    3    2   11     31.23    -12.68
    3    3   11      6.80     -1.44
    3    4   11      7.47     -0.60
    3    5   11     -4.19     -3.96
    3    6   11    -11.06      3.39
    3    7   11     -3.83     -5.76
    3    8   11     -2.34     -2.05
    3    9   11      2.59     10.20
    3   10   11      0.08     -2.36
    3   11   11     -0.43     -0.56
    3   12   11     -2.75     -2.46
    3   13   11      1.55      5.28
    3   14   11     -1.14      0.79
    3    0   12      0.38      7.56
    3    1   12     -4.74     -2.10
    3    2   12      1.43     -1.72
    3    3   12      0.43     -8.65
    3    4   12    -20.28     -0.91
    3    5   12      6.62     -5.55
    3    6   12     -2.76      0.93
    3    7   12     -8.07     -2.38
    3    8   12      5.39     -1.88
    3    9   12     -5.60      4.08
    3   10   12      3.82     -1.64
    3   11   12     -1.14      2.45
    3   12   12      3.34      0.95
    3   13   12      1.74     -0.44
    3   14   12      0.88      0.34
    3    0   13      2.32     -7.41
    3    1   13     18.39     12.53
    3    2   13    -10.67      7.73
    3    3   13    -13.56     -0.48
    3    4   13      2.46     12.42
    3    5   13      1.28     -5.73
    3    6   13      0.44     -9.93
    3    7   13      6.95     -1.49
    3    8   13      2.39    -14.06
    3    9   13     -3.54     -9.79
    3   10   13      8.76      5.89
    3   11   13      3.21     -7.48
    3   12   13      2.29      4.20
    3   13   13      3.27     -0.23
    3    0   14     -6.15    -15.31
    3    1   14      1.48      3.05
    3    2   14     13.98      0.44
    3    3   14     10.94    -10.66
    3    4   14     -2.81      0.11
    3    5   14     -5.66     -3.29
    3    6   14     -0.45     -2.68
    3    7   14      1.37     -3.23
    3    8   14      2.60     10.45
    3    9   14     10.89      0.65
    3   10   14      0.48     -6.00
    3   11   14     -1.61      3.36
    3   12   14     -3.02     -2.46
    3   13   14     -2.48      6.62
    3    0   15      1.64      9.71
    3    1   15      2.05     -3.06
    3    2   15     -2.14     -4.03
    3    3   15    -14.17    -14.81
    3    4   15      1.01     -8.66
    3    5   15      4.50     -1.72
    3    6   15     11.83      3.30
    3    7   15      9.83      3.83
    3    8   15      5.71     -3.12
    3    9   15     -3.46      8.09
    3   10   15      5.16      0.99
    3   11   15     -4.09      6.80
    3   12   15      5.03      2.59
    3    0   16      0.29     13.25
    3    1   16      6.93     -2.49
    3    2   16     13.17     -5.93
    3    3   16      2.74    -11.63
    3    4   16      4.58     -4.58
    3    5   16     -0.54     -4.43
    3    6   16     -7.54      1.05
    3    7   16      0.89      5.13
    3    8   16      3.98      5.63
    3    9   16      1.01      7.27
    3   10   16      2.86      4.61
    3   11   16     -1.21      4.90
    3    0   17     -1.11     -5.35
    3    1   17     10.44     -7.87
    3    2   17     12.94    -11.84
    3    3   17     -5.34      6.35
    3    4   17     20.02     -0.08
    3    5   17      1.89      7.73
    3    6   17      2.75      9.80
    3    7   17      1.28      2.11
    3    8   17     -7.11      0.60
    3    9   17     -2.20     -3.16
    3   10   17    -18.64      3.83
    3   11   17      0.04     -3.86
    3    0   18     -1.86      1.60
    3    1   18     -1.58      5.16
    3    2   18      1.68      1.32
    3    3   18     -2.90     -3.93
    3    4   18     -0.04     -6.91
    3    5   18      0.81     -0.38
    3    6   18      1.13      1.76
    3    7   18      0.95      2.78
    3    8   18      0.86     10.02
    3    9   18      2.28     -3.44
    3   10   18      9.24     -1.77
    3    0   19      0.93      6.51
    3    1   19      1.45      4.37
    3    2   19      8.93     -9.16
    3    3   19      6.39      8.60
    3    4   19      7.17     -6.34
    3    5   19     -1.86      4.44
    3    6   19     -1.00      3.67
    3    7   19     -0.35      1.85
    3    8   19     -3.16      0.32
    3    9   19     -3.35     -1.52
    3    0   20     -0.22     -1.58
    3    1   20      4.38     -7.56
    3    2   20     -1.16     -6.99
    3    3   20     -3.18     -0.44
    3    4   20      5.48     -2.78
    3    5   20     -1.22     -1.33
    3    6   20      3.26      0.21
    3    7   20     -5.72     -1.29
    3    8   20      7.08      3.15
    3    0   21     -0.51     -4.52
    3    1   21     -5.17     -3.28
    3    2   21     -4.03     -1.46
    3    3   21      5.82      3.28
    3    4   21      0.15      4.11
    3    5   21     -1.05      1.76
    3    6   21      2.72     -0.21
    3    0   22     -1.00     -0.20
    3    1   22      2.94      1.33
    3    2   22      5.27     -5.93
    3    3   22     -0.47      1.47
    3    4   22      1.28     -4.80
    4    1    0     -0.52      1.44
    4    2    0     83.90      3.66
    4    3    0     -0.21     -0.45
    4    4    0    178.01      1.39
    4    5    0      8.95      0.31
    4    6    0     -6.87      1.05
    4    7    0      2.61     -0.69
    4    8    0     -3.95     -2.73
    4    9    0    -10.33     -0.96
    4   10    0     -3.18      0.87
    4   11    0      5.81     -0.12
    4   12    0     -0.08      0.21
    4   13    0     -1.07      0.19
    4   14    0      4.60     -0.18
    4   15    0      0.22     -0.14
    4   16    0      4.88     -0.08
    4    0    1   -265.89      0.78
    4    1    1     -7.99    160.24
    4    2    1    -11.72    -19.29
    4    3    1      9.16    -60.00
    4    4    1     50.34    -22.03
    4    5    1     -6.93     24.70
    4    6    1     33.74    -20.15
    4    7    1     -1.03     -0.75
    4    8    1    -14.90     -1.62
    4    9    1     -7.84     -4.24
    4   10    1      0.32     -6.63
    4   11    1    -10.80     10.87
    4   12    1     11.76     -0.88
    4   13    1     -4.00      9.25
    4   14    1      0.25      0.34
    4   15    1     -2.33    -10.51
    4   16    1     -4.23     -2.41
    4    0    2     47.67      1.34
    4    1    2    -22.72   -121.34
    4    2    2     23.42     10.63
    4    3    2    -28.35    140.22
    4    4    2     24.94    -17.18
    4    5    2      9.81     51.78
    4    6    2     -5.90      5.02
    4    7    2      4.68    -13.41
    4    8    2     -1.13     -1.36
    4    9    2    -14.81     -0.90
    4   10    2     11.49      1.89
    4   11    2     -6.14     -5.58
    4   12    2      2.42     -0.47
    4   13    2      3.27      1.37
    4   14    2     -1.64      1.55
    4   15    2     -1.21      5.96
    4   16    2     -3.64     -0.63
    4    0    3    -79.95     -1.66
    4    1    3    -36.59    -96.02
    4    2    3    -41.89      1.34
    4    3    3      0.44    100.78
    4    4    3     42.63     28.02
    4    5    3     -4.66     51.02
    4    6    3      6.14    -12.63
    4    7    3      6.23      1.71
    4    8    3     -7.44     -1.97
    4    9    3      9.02    -11.78
    4   10    3     -2.68     -9.28
    4   11    3     -1.66      1.17
    4   12    3     -5.53     -2.29
    4   13    3     -0.46      9.39
    4   14    3      3.90     -4.67
    4   15    3      0.16      4.22
    4   16    3      5.62      5.07
    4    0    4    -71.38     -1.66
    4    1    4     -2.04      4.30
    4    2    4    -19.20    -11.30
    4    3    4     13.29     26.64
    4    4    4    -37.07    -12.28
    4    5    4     26.82     -4.88
    4    6    4     -6.40     17.39
    4    7    4      9.40     -9.31
    4    8    4      4.26     -9.37
    4    9    4    -10.90      6.29
    4   10    4     -1.99     -6.49
    4   11    4     -4.23      9.73
    4   12    4     -1.56     -4.01
    4   13    4     -2.13      2.34
    4   14    4     -1.96      0.05
    4   15    4     -4.07     -1.82
    4   16    4      0.07     -5.13
    4    0    5     11.98      2.51
    4    1    5     18.39     -5.87
    4    2    5     19.26     -8.58
    4    3    5      4.40     -4.36
    4    4    5    -35.51    -18.68
    4    5    5     16.68     27.95
    4    6    5    -35.49      8.45
    4    7    5     -0.40     -0.84
    4    8    5      6.93      8.83
    4    9    5      1.45     -2.82
    4   10    5     11.31      1.81
    4   11    5      3.24      9.18
    4   12    5      1.59      2.61
    4   13    5      2.54     -2.85
    4   14    5    -10.34      2.65
    4   15    5      1.10     -2.26
    4   16    5      1.26     -3.67
    4    0    6     53.21     -1.50
    4    1    6    -22.99    -38.55
    4    2    6    -46.49    -25.20
    4    3    6      6.67     34.55
    4    4    6    -27.45     18.99
    4    5    6     -5.72      3.81
    4    6    6     25.30      1.04
    4    7    6     -1.63    -28.01
    4    8    6    -10.79      6.74
    4    9    6      2.09     -0.55
    4   10    6    -10.02     -8.98
    4   11    6      7.24     -5.54
    4   12    6     -2.78     -1.73
    4   13    6     -0.70      8.31
    4   14    6      3.77      0.17
    4   15    6      1.57      0.50
    4   16    6     -0.43      2.00
    4    0    7     11.09     -2.39
    4    1    7     -4.39     10.36
    4    2    7    -16.20     13.76
    4    3    7     12.71     38.52
    4    4    7      5.81      6.08
    4    5    7     14.13    -22.64
    4    6    7     -3.23      2.80
    4    7    7    -17.42    -15.80
    4    8    7     12.29     -1.19
    4    9    7      4.30      6.39
    4   10    7     -8.09      1.14
    4   11    7     -3.00     14.36
    4   12    7    -11.05     -3.69
    4   13    7      0.45     -3.71
    4   14    7      4.06     -3.27
    4   15    7     -2.02     -1.58
    4    0    8     18.33      1.75
    4    1    8     16.35      8.73
    4    2    8     -6.04     17.78
    4    3    8      7.09    -30.56
    4    4    8    -19.88      6.52
    4    5    8     -0.61     -6.18
    4    6    8     -1.53     14.25
    4    7    8     -2.71     -1.23
    4    8    8      5.10    -14.15
    4    9    8     -4.22    -12.09
    4   10    8     -1.18      6.81
    4   11    8      0.98     -2.09
    4   12    8     -1.50      5.21
    4   13    8      2.99      1.45
    4   14    8     -2.84      1.77
    4   15    8     -3.19      0.59
    4    0    9     -7.14     -0.98
    4    1    9     -6.92     -6.71
    4    2    9    -13.18    -18.52
    4    3    9      0.78     10.62
    4    4    9    -21.97     25.59
    4    5    9      6.85     11.53
    4    6    9     12.81      2.57
    4    7    9     -8.39     -3.48
    4    8    9     12.84     -3.73
    4    9    9     -1.23     -3.39
    4   10    9     -9.17     -2.11
    4   11    9      8.82     -5.55
    4   12    9     -2.41      9.48
    4   13    9     -0.92     -1.29
    4   14    9      1.98     -1.43
    4   15    9      0.34      2.78
    4    0   10      7.83     -2.09
    4    1   10      7.86     11.71
    4    2   10    -18.57     19.66
    4    3   10     -4.08      9.78
    4    4   10     10.93     -2.11
    4    5   10     -4.82     -7.86
    4    6   10      7.65     -0.10
    4    7   10      4.50    -13.78
    4    8   10     -1.02      0.49
    4    9   10      3.28      9.07
    4   10   10      2.51     -0.32
    4   11   10     -2.85     -0.48
    4   12   10     -5.54     -3.27
    4   13   10      2.75      0.20
    4   14   10      1.32     -1.67
    4   15   10     -1.78     -1.71
    4    0   11     20.67     -4.07
    4    1   11    -18.35     -4.65
    4    2   11     -5.47     -6.01
    4    3   11     -5.71     -8.49
    4    4   11    -12.86     13.46
    4    5   11      3.88     -7.74
    4    6   11     -1.08     -6.59
    4    7   11     -5.46      6.28
    4    8   11      2.33    -13.36
    4    9   11      8.10      3.37
    4   10   11      1.50      7.98
    4   11   11     -3.25     -0.66
    4   12   11      7.53      4.56
    4   13   11     -1.43     -4.93
    4   14   11     -1.38      0.13
    4    0   12     -1.86     10.19
    4    1   12      5.97      0.57
    4    2   12     -5.47     -1.17
    4    3   12     -3.31     -9.85
    4    4   12     13.61     -6.85
    4    5   12     -8.71      8.43
    4    6   12      8.25      9.00
    4    7   12     -1.32     11.77
    4    8   12      0.69     -0.15
    4    9   12      2.62      1.43
    4   10   12     -1.14     -1.83
    4   11   12      1.46     -2.71
    4   12   12     -3.37      6.30
    4   13   12      0.65      1.67
    4   14   12      0.70      0.46
    4    0   13    -37.00     -6.43
    4    1   13     10.46     14.08
    4    2   13    -12.62     -8.97
    4    3   13      1.50     -0.47
    4    4   13    -11.78      8.50
    4    5   13     -0.82     -9.79
    4    6   13      5.24      0.45
    4    7   13      6.89     -3.83
    4    8   13      2.87      1.02
    4    9   13     -0.18     -1.93
    4   10   13     -9.23      1.13
    4   11   13     -4.14      4.29
    4   12   13     -0.02     -0.32
    4   13   13     -0.44      3.75
    4    0   14     31.51     -3.05
    4    1   14     -3.23    -36.13
    4    2   14      8.63     -0.31
    4    3   14      9.55    -15.75
    4    4   14      5.83      3.01
    4    5   14      0.78     18.05
    4    6   14      2.33      3.26
    4    7   14      2.30      8.04
    4    8   14     -8.63      1.39
    4    9   14     -0.19      9.54
    4   10   14      1.93      1.96
    4   11   14     -2.91     -2.09
    4   12   14      2.76      0.91
    4   13   14     -1.48     -7.19
    4    0   15      8.32    -10.32
    4    1   15      6.62     16.46
    4    2   15      9.33      2.34
    4    3   15      1.65     -3.58
    4    4   15      2.02      0.13
    4    5   15     12.74     11.71
    4    6   15    -14.14     -7.36
    4    7   15     -5.29     -0.60
    4    8   15    -11.19      2.56
    4    9   15      9.22     -9.04
    4   10   15      2.66      4.71
    4   11   15      2.65     -5.33
    4   12   15     -1.99     -3.81
    4    0   16     -3.40     41.34
    4    1   16      6.75    -18.87
    4    2   16      4.08      2.89
    4    3   16      7.89    -14.29
    4    4   16     -6.13      3.52
    4    5   16    -13.40    -10.44
    4    6   16      1.94      7.54
    4    7   16      4.97      5.81
    4    8   16      6.23     -1.71
    4    9   16     -6.01      7.87
    4   10   16     -5.21     -9.01
    4   11   16      3.02      0.12
    4    0   17     15.93    -32.55
    4    1   17     -0.11      8.07
    4    2   17     18.51     14.42
    4    3   17     -2.28      4.09
    4    4   17     -3.03      9.03
    4    5   17     -4.26      2.57
    4    6   17     -7.15     -3.26
    4    7   17      3.28     -1.77
    4    8   17      5.25      5.43
    4    9   17     -5.76     -3.66
    4   10   17     -1.20      8.89
    4   11   17     -0.12      0.99
    4    0   18      6.31      7.24
    4    1   18     -2.75      6.98
    4    2   18      6.92     -7.92
    4    3   18     -0.48     -5.63
    4    4   18      2.80      8.62
    4    5   18     10.86     -2.73
    4    6   18      3.14      7.98
    4    7   18      0.28      0.71
    4    8   18     -9.69     -3.06
    4    9   18      7.79      0.12
    4   10   18      0.46      1.73
    4    0   19      1.92     10.18
    4    1   19     -7.38      1.44
    4    2   19      6.41      1.82
    4    3   19     -0.57      0.22
    4    4   19     -0.10     -2.00
    4    5   19     -7.22     -0.50
    4    6   19     -0.60      4.25
    4    7   19     -0.87     -1.09
    4    8   19      1.34     -2.03
    4    9   19     -3.28      3.16
    4    0   20      0.00     -2.92
    4    1   20      9.67      1.02
    4    2   20     -0.52      3.53
    4    3   20     -8.78     -1.31
    4    4   20      1.06     -1.59
    4    5   20     -6.16      1.92
    4    6   20      4.14      1.40
    4    7   20      1.34     -1.58
    4    0   21      4.12     -2.47
    4    1   21     -3.34      3.61
    4    2   21      2.43     -3.24
    4    3   21      7.10      8.05
    4    4   21      1.09      4.06
    4    5   21     -1.43     -1.22
    4    6   21     -1.76      0.45
    4    0   22      2.31      1.44
    4    1   22     -3.74     -3.95
    4    2   22      0.56     -4.72
    4    3   22     -3.08      0.18
    4    4   22     -1.65     -2.92
    5    1    0    -13.57     -3.68
    5    3    0    -27.94     -0.99
    5    4    0    -66.04      0.77
    5    5    0     12.01      1.78
    5    6    0    -22.88     -0.60
    5    7    0    -11.44      0.34
    5    8    0      5.02      0.25
    5    9    0      1.48      1.01
    5   10    0     -3.82      0.45
    5   11    0      4.49      0.66
    5   12    0      9.60      0.01
    5   13    0     -3.13      0.03
    5   14    0      3.42     -0.08
    5   15    0     -3.41     -0.19
    5   16    0     -1.37      0.27
    5    0    1     -4.77     31.47
    5    1    1     -6.79      6.24
    5    2    1    -13.51     13.46
    5    3    1    -10.32     32.24
    5    4    1     68.27    -11.08
    5    5    1     -3.19     32.42
    5    6    1    -10.65     11.19
    5    7    1    -10.72     -1.48
    5    8    1    -14.96     -1.81
    5    9    1    -11.98     -6.19
    5   10    1      5.34      0.84
    5   11    1     -5.58     -0.77
    5   12    1     -6.39      2.10
    5   13    1      7.34     -5.56
    5   14    1      0.95     -4.07
    5   15    1      0.09     -1.62
    5   16    1      2.12     -2.98
    5    0    2      2.85     11.85
    5    1    2     -1.41     79.50
    5    2    2     57.38      9.32
    5    3    2     79.47      4.94
    5    4    2     22.46    -12.16
    5    5    2      6.44    -22.49
    5    6    2     27.05    -15.05
    5    7    2      0.43     -5.47
    5    8    2      3.12     -8.33
    5    9    2     -7.59     -2.12
    5   10    2     -7.60     -9.16
    5   11    2      0.85      7.69
    5   12    2      1.10      7.14
    5   13    2      4.53      5.54
    5   14    2     -9.86      2.93
    5   15    2     -2.38     -1.79
    5   16    2     -0.20      2.57
    5    0    3     -0.65     -5.23
    5    1    3    -34.81    -30.24
    5    2    3     14.82    -21.82
    5    3    3     12.11     54.33
    5    4    3     44.45    -18.90
    5    5    3     23.56    -24.80
    5    6    3    -16.95     -6.29
    5    7    3     12.68    -21.15
    5    8    3    -14.26    -15.94
    5    9    3     -6.42     12.13
    5   10    3     -1.26      9.70
    5   11    3     -0.01      2.23
    5   12    3      4.18     -1.85
    5   13    3      2.31     -2.01
    5   14    3      1.57      6.15
    5   15    3     -0.52      3.54
    5   16    3     -3.16     -2.06
    5    0    4     -1.11      5.77
    5    1    4    -26.73     61.07
    5    2    4     -4.39    -10.73
    5    3    4      4.39     16.58
    5    4    4    -32.26     17.78
    5    5    4     14.47      5.37
    5    6    4     -6.25      2.33
    5    7    4    -19.28     13.25
    5    8    4     10.41     -3.12
    5    9    4      4.08     -3.84
    5   10    4      4.44     -9.59
    5   11    4     -1.18     -2.37
    5   12    4    -13.62     -3.62
    5   13    4     -7.11      0.80
    5   14    4     -1.92      0.33
    5   15    4      1.18     -2.01
    5   16    4      4.32     -1.52
    5    0    5      1.50      9.72
    5    1    5      5.59      4.27
    5    2    5     11.70     28.26
    5    3    5     10.86     34.59
    5    4    5      6.08     19.67
    5    5    5     14.99     18.76
    5    6    5     25.30     30.38
    5    7    5     20.05    -18.84
    5    8    5      2.82    -16.39
    5    9    5      5.26     -0.37
    5   10    5     -3.84     -4.62
    5   11    5     -6.22      6.16
    5   12    5     -4.26     10.76
    5   13    5      3.01     -8.02
    5   14    5      3.52      5.46
    5   15    5     -1.50     -0.73
    5   16    5      0.74      0.81
    5    0    6     -0.09    -47.89
    5    1    6      2.86     32.90
    5    2    6    -23.19     21.08
    5    3    6     18.35     18.24
    5    4    6     27.43      9.55
    5    5    6      2.06    -24.40
    5    6    6     -0.33     -8.91
    5    7    6     -1.77      0.75
    5    8    6     -5.19      4.06
    5    9    6      6.97      5.12
    5   10    6      1.90      1.47
    5   11    6     -0.08      9.10
    5   12    6      6.00      1.61
    5   13    6      5.54     -0.76
    5   14    6     -4.56      2.95
    5   15    6     -0.39     -2.88
    5   16    6     -0.77     -0.21
    5    0    7     -1.07     18.30
    5    1    7    -12.27     -9.17
    5    2    7     -9.33    -18.48
    5    3    7     20.79     -2.29
    5    4    7    -13.89     -2.96
    5    5    7    -38.62     -2.56
    5    6    7      5.60      5.93
    5    7    7    -10.83     -1.90
    5    8    7     -3.97      3.04
    5    9    7     14.57     10.80
    5   10    7     -9.30     -1.56
    5   11    7      4.30     -5.38
    5   12    7     -1.02     -0.51
    5   13    7    -11.82     -2.42
    5   14    7      0.17     -2.23
    5   15    7      0.22      2.78
    5    0    8      1.72      8.57
    5    1    8     -0.89     -5.12
    5    2    8    -17.84     19.53
    5    3    8    -23.61      6.42
    5    4    8     16.74     10.42
    5    5    8     12.35      8.30
    5    6    8     13.16      7.39
    5    7    8      0.33     -2.02
    5    8    8     -0.17     -9.06
    5    9    8     -3.48     -4.78
    5   10    8      2.09      3.20
    5   11    8      3.24      2.90
    5   12    8     -3.76      0.25
    5   13    8     -5.11      1.84
    5   14    8      1.80      9.52
    5   15    8     -0.49      0.14
    5    0    9     -0.59    -29.78
    5    1    9     -6.56      3.55
    5    2    9     17.43     19.69
    5    3    9      9.75      6.53
    5    4    9      1.93     12.45
    5    5    9      3.26     13.18
    5    6    9     16.55    -24.03
    5    7    9    -12.36      1.94
    5    8    9      1.07      4.57
    5    9    9      5.41     -5.93
    5   10    9    -14.11     14.76
    5   11    9     -3.49      2.55
    5   12    9     -3.65      4.50
    5   13    9     -1.02     -0.57
    5   14    9      3.45     -7.21
    5   15    9      3.95     -4.10
    5    0   10     -0.71      6.88
    5    1   10      2.82     -8.19
    5    2   10      4.77     -5.20
    5    3   10     -6.04      2.92
    5    4   10      9.53    -20.99
    5    5   10     -6.85     -4.44
    5    6   10      0.45     -7.85
    5    7   10     -1.28      5.70
    5    8   10     -5.40      9.92
    5    9   10      3.69      5.19
    5   10   10      1.13      3.31
    5   11   10     -0.53     -5.52
    5   12   10      0.10     -0.31
    5   13   10     -2.59      2.50
    5   14   10     -0.28     -1.41
    5    0   11      0.37    -20.50
    5    1   11    -11.99     -0.81
    5    2   11    -11.71     12.99
    5    3   11      2.14      6.56
    5    4   11     -3.26     20.56
    5    5   11     -5.14     18.08
    5    6   11      0.74     -4.07
    5    7   11      9.92     -1.19
    5    8   11      5.70    -12.05
    5    9   11     -1.75     -6.84
    5   10   11      5.10      4.18
    5   11   11     -5.19     -3.89
    5   12   11      3.99     -0.72
    5   13   11      0.74      3.16
    5   14   11     -2.21      4.25
    5    0   12     -0.12      4.59
    5    1   12      5.14      2.46
    5    2   12     -4.98     -9.85
    5    3   12     -1.02      6.94
    5    4   12     24.76     10.52
    5    5   12      7.07     13.01
    5    6   12      4.50      2.91
    5    7   12      3.76      2.21
    5    8   12    -12.25     -7.64
    5    9   12     -5.86     -4.12
    5   10   12      1.93      0.71
    5   11   12     -1.10     -0.09
    5   12   12      2.99      3.79
    5   13   12      3.19     -2.56
    5   14   12     -2.37     -5.28
    5    0   13     -1.50    -27.75
    5    1   13     11.09      4.98
    5    2   13      4.99      8.35
    5    3   13    -11.75      8.54
    5    4   13    -15.85     -0.56
    5    5   13      1.04      0.70
    5    6   13      2.39    -16.02
    5    7   13     -4.74      5.01
    5    8   13      1.93     28.38
    5    9   13     -1.29      8.46
    5   10   13      2.74      2.01
    5   11   13     -3.53      4.31
    5   12   13     -0.99     -4.38
    5   13   13     -5.60      4.24
    5    0   14      2.44    -11.07
    5    1   14      3.51     -7.53
    5    2   14     -8.25      0.71
    5    3   14     -6.53      7.30
    5    4   14     -4.55      5.17
    5    5   14    -11.31      6.80
    5    6   14      0.52      1.87
    5    7   14      2.79     -4.30
    5    8   14      0.57     -8.88
    5    9   14      0.97      9.60
    5   10   14      0.26      1.23
    5   11   14     -1.86     -1.37
    5   12   14      3.62      1.88
    5   13   14     -0.98      0.69
    5    0   15     -2.23      9.29
    5    1   15      7.08     -7.09
    5    2   15     -2.54     -1.05
    5    3   15    -13.27     13.36
    5    4   15      0.78     -0.37
    5    5   15      2.04      6.92
    5    6   15    -18.97      4.79
    5    7   15      5.62     -9.24
    5    8   15     -7.62      0.09
    5    9   15      1.32     -3.14
    5   10   15     -0.73     -5.63
    5   11   15     -3.98      3.56
    5   12   15     -1.19     -1.58
    5    0   16     -0.69      8.25
    5    1   16      7.58      4.24
    5    2   16    -10.02     -0.63
    5    3   16    -10.76     -5.26
    5    4   16     -6.13     -5.60
    5    5   16     -4.08      5.79
    5    6   16      5.32     -3.33
    5    7   16      1.00      4.82
    5    8   16     -0.71     -0.88
    5    9   16     -2.01     -9.40
    5   10   16     -2.62      2.29
    5   11   16     -3.18     -1.00
    5    0   17      0.29      7.61
    5    1   17      5.64      4.02
    5    2   17      0.80     -5.89
    5    3   17     -8.75     -4.13
    5    4   17    -18.32     -9.91
    5    5   17      1.63     -7.69
    5    6   17      3.43      2.78
    5    7   17      0.16     -4.60
    5    8   17      6.75     13.71
    5    9   17      0.69      5.14
    5   10   17      3.44     -2.43
    5    0   18      0.36     -6.68
    5    1   18     -3.76     -9.14
    5    2   18      3.17     -9.65
    5    3   18      4.85     -0.37
    5    4   18      3.87     -1.58
    5    5   18      3.53     -6.86
    5    6   18     -5.40     -2.81
    5    7   18     -0.49      2.70
    5    8   18     -3.37      2.36
    5    9   18      1.71      5.12
    5   10   18     -3.20      1.59
    5    0   19     -1.22      9.07
    5    1   19     -0.94     -2.69
    5    2   19     -0.24     -2.22
    5    3   19      0.87     -3.44
    5    4   19     -6.38     -3.98
    5    5   19      1.35     -4.64
    5    6   19     -2.92      3.88
    5    7   19     -6.87      0.44
    5    8   19      3.59     -5.64
    5    9   19      0.00     -5.15
    5    0   20      0.72     -4.08
    5    1   20      4.03      2.26
    5    2   20     -0.34     -0.98
    5    3   20      0.89      0.38
    5    4   20      0.74      1.66
    5    5   20      4.28      5.22
    5    6   20     -6.55      4.90
    5    7   20      0.52     -1.17
    5    0   21     -0.30     -0.72
    5    1   21      4.11      1.77
    5    2   21      4.55     -4.45
    5    3   21      0.16     -1.53
    5    4   21      0.42      0.23
    5    5   21      1.76     -1.69
    5    6   21      1.54     -0.54
    5    0   22      0.42      2.91
    5    1   22     -3.64     -3.65
    5    2   22     -1.34      3.01
    5    3   22      8.35     -0.67
    6    0    0   -201.77     -0.60
    6    1    0    -52.80     -0.90
    6    2    0     54.60    -15.74
    6    3    0      0.79      0.70
    6    4    0     26.35     -1.38
    6    5    0      3.14     -0.84
    6    6    0    -18.64      0.74
    6    7    0      4.84     -0.07
    6    8    0    -15.98      0.85
    6    9    0      2.90      1.48
    6   10    0      7.47     -0.43
    6   11    0     -3.48      0.11
    6   12    0      2.81     -0.07
    6   13    0      2.29     -0.26
    6   14    0      1.26      0.08
    6   15    0     -1.38     -0.03
    6   16    0      2.25      0.38
    6    0    1     65.35     -2.69
    6    1    1     -6.76   -114.31
    6    2    1     43.86     42.89
    6    3    1     -8.82    -54.30
    6    4    1      4.82     -3.59
    6    5    1     11.30     26.87
    6    6    1    -11.20     11.46
    6    7    1      5.39    -15.11
    6    8    1    -11.42     -3.91
    6    9    1     -3.22    -14.45
    6   10    1    -10.65      8.38
    6   11    1      2.51     -3.71
    6   12    1      1.62      0.80
    6   13    1      4.94     -3.16
    6   14    1      0.77     -0.88
    6   15    1     -0.42      1.33
    6   16    1     -0.68     -4.07
    6    0    2    -46.63     -2.90
    6    1    2     49.51    -13.42
    6    2    2    -85.48    -23.42
    6    3    2     28.25     36.29
    6    4    2     11.07      9.49
    6    5    2     -5.40      6.17
    6    6    2    -12.17    -17.16
    6    7    2    -18.72    -31.83
    6    8    2    -19.60     -1.66
    6    9    2      3.89      8.02
    6   10    2      6.64      5.52
    6   11    2      8.01      6.78
    6   12    2     -7.30      1.65
    6   13    2     -1.89      0.73
    6   14    2     -3.33     -6.60
    6   15    2     -7.12     -0.86
    6   16    2     -0.40      1.77
    6    0    3     -6.21      2.95
    6    1    3     16.84     39.31
    6    2    3     98.09    -39.02
    6    3    3     17.03     23.77
    6    4    3      7.55    -25.01
    6    5    3      2.58    -42.10
    6    6    3    -19.35     18.63
    6    7    3     -1.90     14.55
    6    8    3     16.75     10.57
    6    9    3    -12.45    -10.45
    6   10    3      6.75      5.05
    6   11    3     -1.22     -1.36
    6   12    3     -3.69      1.61
    6   13    3      1.88      9.64
    6   14    3     -0.76      4.61
    6   15    3      4.15     -1.93
    6   16    3     -3.62     -3.32
    6    0    4     77.13      2.47
    6    1    4    -17.33    -36.17
    6    2    4     50.22     10.95
    6    3    4     -6.05     11.02
    6    4    4    -11.63     16.66
    6    5    4     -0.34      5.45
    6    6    4     10.40     -9.72
    6    7    4      7.10    -20.31
    6    8    4      2.29     -1.32
    6    9    4      0.38      2.11
    6   10    4     -6.06      4.31
    6   11    4     -4.30     -1.65
    6   12    4      8.02     10.73
    6   13    4      4.06    -10.73
    6   14    4     -0.64     -3.59
    6   15    4      2.80      3.85
    6   16    4      4.48      1.39
    6    0    5    -36.13     -1.39
    6    1    5      2.78     -0.40
    6    2    5    -13.70     33.48
    6    3    5     21.54      2.87
    6    4    5     23.66     18.90
    6    5    5     13.09     -9.50
    6    6    5    -10.93    -19.08
    6    7    5     -8.63    -12.87
    6    8    5     -0.47    -21.03
    6    9    5    -13.23      0.10
    6   10    5      5.59     -2.94
    6   11    5     -4.23     -0.14
    6   12    5     -8.83      2.58
    6   13    5     -1.23     -0.53
    6   14    5     -3.05     -2.47
    6   15    5     -2.35      0.09
    6   16    5      1.88      0.18
    6    0    6     30.62      0.20
    6    1    6     55.17     32.45
    6    2    6     -5.63     14.74
    6    3    6     28.75     -6.15
    6    4    6      2.21    -22.10
    6    5    6     -8.08      4.14
    6    6    6     15.52      9.67
    6    7    6     -2.64      0.22
    6    8    6     -1.56      2.38
    6    9    6     -1.58      8.02
    6   10    6      4.70      0.93
    6   11    6     -5.16      6.21
    6   12    6      2.62      1.74
    6   13    6     -0.54     -2.42
    6   14    6     -3.04     -1.04
    6   15    6     -1.67     -2.91
    6   16    6      1.52     -3.48
    6    0    7     -7.69      1.86
    6    1    7      2.11    -24.27
    6    2    7      9.33    -19.76
    6    3    7    -18.77     26.74
    6    4    7      0.07     17.44
    6    5    7    -15.53    -21.85
    6    6    7     -3.76     15.84
    6    7    7     20.61     -7.98
    6    8    7      2.05     -9.02
    6    9    7     11.47     13.09
    6   10    7      1.37      0.89
    6   11    7     -4.49     -9.89
    6   12    7      2.75      0.37
    6   13    7     -9.01      0.13
    6   14    7      1.88      1.86
    6   15    7      4.47      0.32
    6    0    8     -4.03     -1.96
    6    1    8    -13.42     10.07
    6    2    8      6.38     23.54
    6    3    8      1.38      6.14
    6    4    8      9.84     17.31
    6    5    8     12.48     11.17
    6    6    8    -10.27    -13.27
    6    7    8     -4.48      8.39
    6    8    8      7.63     -7.62
    6    9    8      3.95     -5.44
    6   10    8     -9.91     -6.38
    6   11    8     -1.25     11.15
    6   12    8      9.29      6.51
    6   13    8     -3.34     -0.54
    6   14    8     -0.43     -3.42
    6   15    8      3.99      3.25
    6    0    9     35.29     -0.38
    6    1    9     12.03     -1.89
    6    2    9     -2.32     28.30
    6    3    9     17.35     -6.47
    6    4    9      1.75    -15.65
    6    5    9     -6.15     -3.37
    6    6    9     10.85     -3.58
    6    7    9     -2.35     -7.10
    6    8    9     -3.85      9.54
    6    9    9     -5.86      7.31
    6   10    9      6.61      4.07
    6   11    9     -1.70      2.29
    6   12    9      3.95     -7.14
    6   13    9      6.74      0.07
    6   14    9     -0.38     -2.51
    6   15    9      0.35      0.33
    6    0   10     -0.23      1.36
    6    1   10     -8.99      2.02
    6    2   10      2.59    -12.22
    6    3   10    -12.49     -8.74
    6    4   10      1.29     -1.14
    6    5   10     -6.97     -4.57
    6    6   10     -4.55      3.66
    6    7   10      8.63      1.74
    6    8   10      1.62      4.66
    6    9   10      4.77     -0.73
    6   10   10     -1.77      3.22
    6   11   10      1.01     -0.65
    6   12   10     -0.18     -0.63
    6   13   10     -1.61      6.09
    6   14   10     -0.58      0.51
    6    0   11     14.19      4.42
    6    1   11      9.10      6.91
    6    2   11     -4.36     17.92
    6    3   11     -8.99     14.70
    6    4   11     -3.52      3.27
    6    5   11     -2.71      3.98
    6    6   11      1.27     -2.24
    6    7   11      7.52     -8.37
    6    8   11     -1.06     -3.62
    6    9   11      0.54      1.27
    6   10   11     -4.05      0.00
    6   11   11     -3.46     10.51
    6   12   11     -9.13      0.89
    6   13   11      1.56     10.18
    6   14   11     -0.41      0.46
    6    0   12     -5.32    -10.81
    6    1   12     -7.41     -5.35
    6    2   12     -4.12     -2.00
    6    3   12      4.36      7.55
    6    4   12      1.69     11.15
    6    5   12     10.51     -2.77
    6    6   12     -6.75     -8.29
    6    7   12     -8.13     -4.54
    6    8   12      5.62     -2.82
    6    9   12     -6.06      3.48
    6   10   12     -3.08      5.90
    6   11   12      0.34     -3.08
    6   12   12      7.19     -0.04
    6   13   12      3.32     -3.36
    6   14   12     -4.88      0.02
    6    0   13     17.46      3.19
    6    1   13    -28.05      5.56
    6    2   13      9.05     16.26
    6    3   13     -2.29    -14.26
    6    4   13     -0.31    -20.16
    6    5   13      6.13      3.62
    6    6   13     11.84      3.72
    6    7   13      0.77      4.96
    6    8   13      9.76     14.96
    6    9   13     -4.65      3.81
    6   10   13      1.07     -0.54
    6   11   13      1.71     -3.35
    6   12   13    -11.96      0.59
    6   13   13      0.72     -2.43
    6    0   14     -6.83      2.75
    6    1   14      1.56     17.92
    6    2   14    -10.05      3.43
    6    3   14     -8.24     13.94
    6    4   14    -12.24     -0.46
    6    5   14      4.93     -0.16
    6    6   14     -3.86     -5.33
    6    7   14      9.94     -5.82
    6    8   14     -1.56     -3.65
    6    9   14     -1.34     -7.89
    6   10   14      2.48      2.09
    6   11   14     -5.58      4.36
    6   12   14     -7.46      3.56
    6   13   14     10.88      2.18
    6    0   15     -8.61     10.19
    6    1   15    -15.23    -25.38
    6    2   15     -6.38     -7.17
    6    3   15      1.13      0.82
    6    4   15      4.32      4.99
    6    5   15      7.56     -1.03
    6    6   15     11.50      1.96
    6    7   15    -11.45      8.38
    6    8   15      3.42     -2.79
    6    9   15     -7.31     13.84
    6   10   15      3.56     -2.74
    6   11   15      1.91     -9.57
    6   12   15      3.08      5.15
    6    0   16      2.28    -36.09
    6    1   16     -9.42     11.48
    6    2   16     -0.68     -1.11
    6    3   16    -10.45      7.76
    6    4   16     -6.58     -1.88
    6    5   16     11.49     11.61
    6    6   16     -4.40      1.00
    6    7   16     -1.76      1.06
    6    8   16      1.00      2.58
    6    9   16      0.11     -2.16
    6   10   16      0.20      4.30
    6   11   16     -0.12     -3.32
    6    0   17     -2.64     24.95
    6    1   17    -10.55     -7.68
    6    2   17     -5.34     -9.06
    6    3   17      4.62     -6.65
    6    4   17    -11.56     12.14
    6    5   17      3.62      6.03
    6    6   17     -0.81      3.27
    6    7   17      0.24     -5.00
    6    8   17     -9.94    -11.15
    6    9   17      0.69      4.80
    6   10   17      2.20     -3.50
    6    0   18     -1.41     -3.21
    6    1   18      4.61     -6.19
    6    2   18     -2.36      1.76
    6    3   18      5.66      2.83
    6    4   18     -4.39      0.32
    6    5   18    -12.64      1.53
    6    6   18     -5.11      0.78
    6    7   18     -2.51      5.33
    6    8   18      4.16      2.27
    6    9   18     -0.32     -2.99
    6    0   19      2.19     -6.75
    6    1   19      9.27     -1.06
    6    2   19     -1.01    -12.72
    6    3   19      0.02     -1.28
    6    4   19     -8.25      7.74
    6    5   19      3.44     -4.59
    6    6   19      1.25      3.15
    6    7   19      3.00      1.55
    6    8   19     -6.93     -1.04
    6    0   20     -0.57      1.33
    6    1   20     -5.17     -2.41
    6    2   20      1.08     -3.28
    6    3   20      0.09      0.77
    6    4   20     -0.53      2.31
    6    5   20      1.09      1.95
    6    6   20     -4.92      2.45
    6    7   20     -0.95     -7.08
    6    0   21     -1.61      2.65
    6    1   21      6.74     -3.05
    6    2   21     -0.05      6.13
    6    3   21     -6.29     -8.42
    6    4   21     -3.18     -0.73
    6    5   21     -7.03      2.17
    6    0   22     -2.18      0.03
    6    1   22      5.43      2.09
    6    2   22     -0.59      1.46
    6    3   22      6.74      2.27
    7    1    0     22.39      2.26
    7    3    0     24.64      0.11
    7    4    0     31.45      5.49
    7    5    0    -12.70     -3.94
    7    6    0    -39.22     -0.80
    7    7    0     -6.24     -2.70
    7    8    0     -0.75     -0.70
    7    9    0      8.59     -0.05
    7   10    0      3.49      0.38
    7   11    0     -2.19     -0.08
    7   12    0     -1.38      0.02
    7   13    0      1.22     -0.37
    7   14    0      4.12     -0.16
    7   15    0      0.69      0.09
    7   16    0     -6.60     -0.82
    7    0    1      1.91    -38.30
    7    1    1    -10.56   -106.80
    7    2    1     68.47    -11.69
    7    3    1     14.23    -46.52
    7    4    1    -29.74      5.07
    7    5    1      7.33      8.43
    7    6    1     -4.80      2.49
    7    7    1      7.53    -13.75
    7    8    1      0.21      1.97
    7    9    1      2.60     14.07
    7   10    1      2.41     -3.21
    7   11    1      5.35      2.94
    7   12    1      2.85     -0.76
    7   13    1     -1.38     -4.50
    7   14    1     -6.60      6.74
    7   15    1     -0.58     -3.40
    7   16    1      1.41      2.48
    7    0    2     -3.43     16.26
    7    1    2    -33.42     78.59
    7    2    2    -80.00      9.50
    7    3    2    -29.24     89.93
    7    4    2      3.69     -4.68
    7    5    2      3.93    -43.78
    7    6    2    -25.69     12.92
    7    7    2    -10.73    -13.25
    7    8    2      9.74      5.22
    7    9    2     -3.88      7.00
    7   10    2      2.65      7.76
    7   11    2      1.78     -7.98
    7   12    2     -5.86     -1.99
    7   13    2     -1.22     -1.98
    7   14    2      2.06     -7.05
    7   15    2     -1.56     -3.34
    7   16    2      3.09     -1.29
    7    0    3      1.63     -1.64
    7    1    3     46.95    132.01
    7    2    3     73.57      3.75
    7    3    3     15.61      6.44
    7    4    3    -41.03      9.82
    7    5    3    -17.50      2.52
    7    6    3     -1.15      4.15
    7    7    3    -14.84      0.16
    7    8    3      6.08      8.77
    7    9    3     -8.53    -12.14
    7   10    3     -4.66     -4.43
    7   11    3      2.39     10.08
    7   12    3     -1.44      1.68
    7   13    3      1.61     -1.70
    7   14    3      5.43     -0.57
    7   15    3     -3.84     -5.15
    7   16    3      1.41     -0.07
    7    0    4      1.07    -66.37
    7    1    4     -6.91    -25.23
    7    2    4      7.03    -11.88
    7    3    4     13.51    -10.33
    7    4    4     25.45     19.28
    7    5    4    -10.78    -19.25
    7    6    4      9.95      2.76
    7    7    4     -2.61      1.51
    7    8    4     -8.44    -10.01
    7    9    4      4.30     12.99
    7   10    4      0.80     18.75
    7   11    4     -2.39     -6.03
    7   12    4     10.49      5.97
    7   13    4      0.20     -4.10
    7   14    4      1.84     -0.80
    7   15    4      1.92      2.63
    7   16    4      0.41      4.38
    7    0    5     -2.32     -8.39
    7    1    5    -12.11     -6.20
    7    2    5    -38.47     -4.26
    7    3    5     -1.99     -5.88
    7    4    5    -31.83    -17.76
    7    5    5     -2.01     -7.99
    7    6    5     -1.31     -5.02
    7    7    5    -34.16     -4.26
    7    8    5     20.33     -2.07
    7    9    5      0.74      4.46
    7   10    5     -3.03     -2.14
    7   11    5      4.57      0.07
    7   12    5     -6.69      2.89
    7   13    5     -4.09      2.60
    7   14    5      2.81     -5.70
    7   15    5     -3.07      0.32
    7   16    5      4.85     -4.76
    7    0    6      0.01      6.00
    7    1    6     37.39     11.49
    7    2    6    -31.43     -0.32
    7    3    6     -5.78     20.41
    7    4    6     13.24      0.06
    7    5    6    -15.36     -5.81
    7    6    6      2.41     -6.41
    7    7    6      3.71    -13.72
    7    8    6    -19.56     -5.11
    7    9    6     -5.64      6.89
    7   10    6      3.33     -1.52
    7   11    6     -0.79     -3.09
    7   12    6     -0.07     -1.19
    7   13    6     -4.34      0.62
    7   14    6      3.18     -1.57
    7   15    6     -1.34      1.05
    7    0    7      2.31    -12.30
    7    1    7      3.96     50.58
    7    2    7     13.05      5.27
    7    3    7     12.43    -15.16
    7    4    7      7.16     -1.21
    7    5    7     -4.45    -28.33
    7    6    7     -5.34     -5.07
    7    7    7      6.08     23.39
    7    8    7      4.47     -3.24
    7    9    7      1.49      2.04
    7   10    7     -1.67      1.48
    7   11    7     -5.55     -1.29
    7   12    7      6.35     -2.73
    7   13    7     -0.54     -1.64
    7   14    7     -0.25      3.17
    7   15    7      0.06      0.27
    7    0    8     -0.74     15.30
    7    1    8     21.51    -24.44
    7    2    8      4.31      0.77
    7    3    8     -3.40    -15.48
    7    4    8    -29.97     -9.48
    7    5    8     -6.43     17.79
    7    6    8      8.49    -11.99
    7    7    8    -11.95    -11.52
    7    8    8      1.33      2.69
    7    9    8     11.76     -2.37
    7   10    8     -3.05      9.62
    7   11    8     -4.85      1.57
    7   12    8      0.91     -1.99
    7   13    8     -1.37     -0.15
    7   14    8     -3.43    -10.89
    7   15    8      0.67      3.07
    7    0    9     -0.58     13.88
    7    1    9      6.93     -4.67
    7    2    9    -31.58      5.48
    7    3    9      8.11      3.56
    7    4    9     13.29     -7.03
    7    5    9     -1.13    -11.45
    7    6    9      2.59     -4.95
    7    7    9      1.41     -5.60
    7    8    9    -11.36     -3.83
    7    9    9      2.95      3.37
    7   10    9     -0.23     -3.38
    7   11    9      3.10     -0.73
    7   12    9     -0.72     -3.44
    7   13    9     -4.55      4.61
    7   14    9      1.89      1.32
    7   15    9     -3.81      2.40
    7    0   10      0.94     14.52
    7    1   10     -9.80     -6.64
    7    2   10      2.07      9.73
    7    3   10     -5.33    -10.20
    7    4   10      4.56      1.66
    7    5   10      9.07     -2.32
    7    6   10     -5.82      2.84
    7    7   10     11.07      2.87
    7    8   10      2.03     -0.12
    7    9   10    -13.25      3.07
    7   10   10     -2.73     -2.62
    7   11   10      2.50      4.39
    7   12   10     -0.29     -2.27
    7   13   10      2.34     -3.49
    7   14   10     -2.01     -0.06
    7    0   11     -0.16      7.05
    7    1   11      3.81      0.07
    7    2   11     -6.84      7.43
    7    3   11      0.13     -4.02
    7    4   11     10.16     -9.44
    7    5   11     -5.83    -18.93
    7    6   11      3.99    -12.45
    7    7   11     -4.21      4.84
    7    8   11     -8.21     21.86
    7    9   11      8.21      2.78
    7   10   11     -5.73      6.84
    7   11   11     -4.31      0.43
    7   12   11      1.07     -8.65
    7   13   11      3.96     -3.11
    7   14   11      4.16     -6.05
    7    0   12     -0.12     -4.53
    7    1   12     -6.99     -2.26
    7    2   12     13.76     -1.92
    7    3   12     -2.31     -1.89
    7    4   12     -8.36      1.50
    7    5   12      1.33     -8.34
    7    6   12     -5.89      5.11
    7    7   12     -1.53     -0.82
    7    8   12     -1.62     -3.25
    7    9   12      4.78     -6.60
    7   10   12     -3.28     -5.22
    7   11   12      1.27     -0.90
    7   12   12      0.97     -1.72
    7   13   12     -2.48      3.85
    7    0   13      1.22     10.76
    7    1   13     -5.62    -14.38
    7    2   13     -6.88     -2.03
    7    3   13     -7.42    -13.86
    7    4   13     16.15      5.43
    7    5   13      3.65      7.04
    7    6   13      8.79      2.77
    7    7   13      8.97    -16.13
    7    8   13    -18.19    -20.49
    7    9   13     -9.53     -3.83
    7   10   13     -8.19     -8.99
    7   11   13      6.11     -2.79
    7   12   13      4.95      6.79
    7   13   13      5.65     -0.68
    7    0   14     -1.05      4.99
    7    1   14      1.84      4.31
    7    2   14     -9.18      3.49
    7    3   14     -1.09     28.59
    7    4   14      1.12      4.33
    7    5   14     -0.21     -7.92
    7    6   14     -0.23     -5.59
    7    7   14     -6.89    -13.21
    7    8   14      0.07      7.75
    7    9   14      3.40    -12.07
    7   10   14      1.95      4.02
    7   11   14      6.86      2.50
    7   12   14     -0.67      0.51
    7    0   15      0.70    -11.50
    7    1   15      7.01      3.24
    7    2   15      4.96      5.56
    7    3   15      3.25     -0.61
    7    4   15      8.78     -3.00
    7    5   15     -8.02     -3.28
    7    6   15      5.24     -2.17
    7    7   15     -2.87      3.60
    7    8   15     16.08      2.59
    7    9   15     12.75     -4.42
    7   10   15      5.05     -0.40
    7   11   15     -3.22      0.46
    7   12   15     -4.44      0.33
    7    0   16      0.14     -8.14
    7    1   16     -2.25    -10.22
    7    2   16      0.02      4.19
    7    3   16      3.39     -1.79
    7    4   16     -2.42      3.65
    7    5   16      1.47     -1.66
    7    6   16      7.29      1.85
    7    7   16     -0.03     -2.17
    7    8   16      3.40     -6.78
    7    9   16      7.01     -2.88
    7   10   16      0.69      0.96
    7   11   16      4.75      2.60
    7    0   17      0.57      8.38
    7    1   17     -6.88     -0.73
    7    2   17    -13.43      4.82
    7    3   17      0.70      4.50
    7    4   17      0.64      5.80
    7    5   17      2.88      0.66
    7    6   17      2.06    -11.82
    7    7   17     -1.71     -1.80
    7    8   17     -2.61     -0.08
    7    9   17      3.10      0.37
    7   10   17      0.15      0.79
    7    0   18      0.03     -0.85
    7    1   18      1.43      7.03
    7    2   18      0.78     16.52
    7    3   18     -3.33      3.83
    7    4   18     -6.32     12.91
    7    5   18     -1.75      5.12
    7    6   18      0.27     -6.47
    7    7   18      4.32     -0.63
    7    8   18      4.63     -4.43
    7    9   18     -0.07      0.33
    7    0   19      0.45     -2.93
    7    1   19     -2.40     -1.93
    7    2   19     -2.82      0.96
    7    3   19      1.45      0.70
    7    4   19      3.44      5.38
    7    5   19      3.15     -0.41
    7    6   19     -0.17      1.02
    7    7   19     -2.85      0.44
    7    8   19      3.91      3.56
    7    0   20     -0.50      2.41
    7    1   20     -3.42     -0.76
    7    2   20      1.98      4.03
    7    3   20     -9.77     -0.87
    7    4   20      0.02     -1.45
    7    5   20      0.10     -4.06
    7    6   20      3.36      4.13
    7    7   20      3.81      4.27
    7    0   21     -0.04     -6.81
    7    1   21     -5.82     -2.54
    7    2   21     -5.33      9.85
    7    3   21      1.16     -1.47
    7    4   21     -0.49      5.51
    7    5   21     -4.85      3.87
    7    0   22      0.31     -0.75
    7    1   22      0.42      2.39
    7    2   22      0.66     -6.20
    8    0    0    185.52     -2.61
    8    1    0      2.62     -0.22
    8    2    0     55.15     23.27
    8    3    0      2.21     -0.98
    8    4    0    -87.04     -1.18
    8    5    0    -17.31     -1.16
    8    6    0    -11.33     -1.98
    8    7    0     -4.02      0.73
    8    8    0      7.42     -0.26
    8    9    0     -0.87      1.16
    8   10    0     -3.41      0.00
    8   11    0      5.56     -0.57
    8   12    0      1.59      0.10
    8   13    0     -0.68     -0.03
    8   14    0    -11.85     -0.48
    8   15    0      4.04      0.16
    8   16    0     -5.54     -0.13
    8    0    1     17.76      3.47
    8    1    1     -2.42     23.73
    8    2    1    -21.63    -34.80
    8    3    1     -6.48     66.91
    8    4    1     -8.40     -3.96
    8    5    1     -6.98     19.43
    8    6    1     -3.47     10.58
    8    7    1    -12.51     -9.48
    8    8    1      4.54     -3.89
    8    9    1     12.35     16.29
    8   10    1      1.88      3.42
    8   11    1      5.86     -1.56
    8   12    1     -5.12      1.22
    8   13    1      2.86      0.61
    8   14    1      5.26     -5.60
    8   15    1     -3.64     11.69
    8   16    1      1.61      3.43
    8    0    2      2.49      9.38
    8    1    2     13.87     38.98
    8    2    2     71.45     -0.04
    8    3    2    -14.08    -20.76
    8    4    2     38.27     -5.88
    8    5    2      2.18    -37.36
    8    6    2     -1.47     17.51
    8    7    2      7.71     11.61
    8    8    2      8.77     -1.28
    8    9    2     -0.03     -3.12
    8   10    2      2.15      1.08
    8   11    2      0.88      0.11
    8   12    2     -3.27      3.08
    8   13    2     -2.62     -4.14
    8   14    2      7.08      5.59
    8   15    2      5.70     -7.22
    8   16    2      4.18     -0.51
    8    0    3     43.70     -3.52
    8    1    3     12.83     41.78
    8    2    3    -36.57      7.99
    8    3    3      9.82    -49.45
    8    4    3    -40.57     14.01
    8    5    3     -0.28     -4.12
    8    6    3    -13.88    -32.56
    8    7    3    -11.79      1.51
    8    8    3    -10.59     -2.78
    8    9    3      0.26     -2.03
    8   10    3      6.20      4.03
    8   11    3      6.51     -5.98
    8   12    3      4.97      4.31
    8   13    3     -3.41     -4.47
    8   14    3     -4.50     -3.04
    8   15    3     -2.37     -3.44
    8   16    3     -2.03      0.35
    8    0    4    -13.77     -0.80
    8    1    4     25.77     12.29
    8    2    4     -5.44      0.14
    8    3    4     13.46     12.25
    8    4    4    -27.12    -16.70
    8    5    4    -23.88      0.94
    8    6    4     -5.48     -6.18
    8    7    4     -2.71     10.63
    8    8    4     11.87     -1.58
    8    9    4      4.59     -4.60
    8   10    4      0.43      1.28
    8   11    4     -2.44     -0.72
    8   12    4     -3.41     -5.46
    8   13    4      2.73      4.48
    8   14    4     -3.93     -1.46
    8   15    4     -0.06      2.35
    8   16    4     -5.19     -0.68
    8    0    5    -23.01      0.66
    8    1    5    -11.35      3.95
    8    2    5      9.57     -7.61
    8    3    5    -11.62     11.83
    8    4    5     27.02      2.68
    8    5    5     -7.32     -4.00
    8    6    5     17.30     13.52
    8    7    5      8.41     -6.08
    8    8    5     -0.03     -7.66
    8    9    5      4.94     17.40
    8   10    5      1.79      9.13
    8   11    5      0.60     -1.80
    8   12    5      5.48      4.94
    8   13    5     -1.17     -3.67
    8   14    5      2.93     -6.59
    8   15    5      0.80      1.12
    8    0    6    -26.64      1.79
    8    1    6    -20.59     19.56
    8    2    6      5.86     29.59
    8    3    6    -16.26    -18.91
    8    4    6     12.61     -5.64
    8    5    6      6.24    -34.48
    8    6    6    -24.59     -8.59
    8    7    6      2.73      8.79
    8    8    6     -2.15     -4.41
    8    9    6     -1.41      1.43
    8   10    6      4.82     -1.62
    8   11    6     -3.19     -3.45
    8   12    6     -0.66     -0.94
    8   13    6     -1.52     -2.11
    8   14    6      0.19      1.31
    8   15    6      2.95     -0.84
    8    0    7     11.18     -0.24
    8    1    7     40.92      6.11
    8    2    7      2.40     -9.16
    8    3    7     -0.01    -15.43
    8    4    7     -8.11     -1.31
    8    5    7    -12.31     20.03
    8    6    7      0.69    -15.90
    8    7    7     14.92     13.34
    8    8    7     -8.89      2.36
    8    9    7     -4.00     -1.39
    8   10    7      2.93     -1.09
    8   11    7     -3.80      4.60
    8   12    7      5.98      2.22
    8   13    7      3.77      0.63
    8   14    7     -7.28     -0.79
    8   15    7      1.95     -2.08
    8    0    8    -26.08      1.86
    8    1    8    -20.03    -20.42
    8    2    8     -5.08    -18.13
    8    3    8     -5.20      8.28
    8    4    8      8.93    -13.66
    8    5    8      0.00     -6.04
    8    6    8      8.47      1.33
    8    7    8      1.57     -9.18
    8    8    8      2.02     10.24
    8    9    8      1.84     11.37
    8   10    8      5.70     -0.35
    8   11    8      2.86     -6.08
    8   12    8     -4.60     -6.91
    8   13    8      1.39     -3.53
    8   14    8     -2.24      1.79
    8   15    8     -0.04      0.56
    8    0    9    -23.20      0.68
    8    1    9      0.42      8.60
    8    2    9      1.03      4.87
    8    3    9     -2.94      2.49
    8    4    9     12.98    -24.06
    8    5    9    -11.84      0.77
    8    6    9    -13.06     -3.40
    8    7    9     10.96      1.94
    8    8    9     -8.33      4.33
    8    9    9      4.08     -3.73
    8   10    9     -8.98     -0.73
    8   11    9     -6.69     -0.73
    8   12    9      1.93     -4.31
    8   13    9      0.60     -0.03
    8   14    9     -5.11      0.24
    8    0   10     12.08      0.03
    8    1   10     -5.65     -9.17
    8    2   10      0.16      0.51
    8    3   10     14.54      1.01
    8    4   10     -9.96     -3.26
    8    5   10      9.17      5.90
    8    6   10      0.01     -2.12
    8    7   10     -8.26      4.50
    8    8   10     -3.23     -2.96
    8    9   10     -7.21     -4.24
    8   10   10      3.22     -1.07
    8   11   10      4.93     -0.51
    8   12   10     -3.60      0.77
    8   13   10     -2.66     -1.10
    8   14   10     -1.88      0.94
    8    0   11     -9.65     -5.60
    8    1   11     15.24      0.17
    8    2   11      1.91      8.30
    8    3   11     -0.18    -11.03
    8    4   11     -2.75    -17.04
    8    5   11      3.08     -7.87
    8    6   11     -4.45     -2.42
    8    7   11      5.62      1.42
    8    8   11     10.84      9.44
    8    9   11     -7.57     -4.23
    8   10   11      0.11     -6.30
    8   11   11      2.33     -6.68
    8   12   11     11.37     -0.93
    8   13   11      5.15     -6.49
    8   14   11     -3.47      7.84
    8    0   12     17.28      7.90
    8    1   12     -1.16      8.80
    8    2   12     11.57     -9.00
    8    3   12      2.73     -0.81
    8    4   12    -11.40      9.64
    8    5   12      2.04      4.40
    8    6   12     -5.89     -5.73
    8    7   12      1.43    -14.35
    8    8   12      3.34     -8.79
    8    9   12      5.15      2.60
    8   10   12     14.87      4.57
    8   11   12     -1.76      2.28
    8   12   12     -8.61     -0.98
    8   13   12     -0.06      2.39
    8    0   13     -4.81     -0.86
    8    1   13    -12.49    -10.52
    8    2   13     -9.35      6.12
    8    3   13      1.91      8.14
    8    4   13      3.61     -8.18
    8    5   13     11.14     -2.81
    8    6   13    -11.40     -2.10
    8    7   13     -2.36     -6.02
    8    8   13     -9.11     -4.36
    8    9   13     -1.24     -3.62
    8   10   13      8.95     -3.93
    8   11   13      2.35      0.17
    8   12   13     -2.38      4.27
    8   13   13      0.21     -1.59
    8    0   14     -9.14      0.52
    8    1   14      1.09     -6.39
    8    2   14     -0.78      8.91
    8    3   14     -0.40     -7.74
    8    4   14     10.08     -4.04
    8    5   14     -9.30    -21.62
    8    6   14      8.40     -3.03
    8    7   14      2.38      6.87
    8    8   14      7.62      5.83
    8    9   14      3.60     14.03
    8   10   14     -0.79     -0.88
    8   11   14      1.71      0.73
    8   12   14      1.23      0.33
    8    0   15      0.84    -12.86
    8    1   15     -6.76     20.97
    8    2   15      5.19     -2.69
    8    3   15     -5.17     10.98
    8    4   15    -15.80     -1.45
    8    5   15      7.10     -6.46
    8    6   15     -6.57      4.98
    8    7   15      8.56    -10.13
    8    8   15      9.09     -6.58
    8    9   15     -1.90      1.93
    8   10   15     -4.88      3.43
    8   11   15     -8.40      7.28
    8   12   15     -2.19     -0.74
    8    0   16      0.80     26.30
    8    1   16     -2.74    -14.04
    8    2   16     -0.31     -8.85
    8    3   16     -0.17     -4.67
    8    4   16     12.26      2.76
    8    5   16      1.58      3.95
    8    6   16     11.86     -3.48
    8    7   16     -0.70    -17.61
    8    8   16     -9.45     -2.75
    8    9   16      1.30     -0.09
    8   10   16      2.74      5.60
    8   11   16     -4.23      6.46
    8    0   17      3.06    -15.19
    8    1   17     -6.63     -0.74
    8    2   17     -7.62     -8.64
    8    3   17     -1.36      7.38
    8    4   17     12.53     -4.86
    8    5   17      1.56    -10.71
    8    6   17      7.81      5.04
    8    7   17     -5.58      7.33
    8    8   17     -3.81      6.19
    8    9   17      4.42      0.13
    8   10   17      1.00     -9.57
    8    0   18     -3.91      1.70
    8    1   18      0.96      0.52
    8    2   18      2.84      3.49
    8    3   18      1.40      2.51
    8    4   18     -3.80     -2.89
    8    5   18      7.38      5.43
    8    6   18     -0.48     -2.41
    8    7   18      3.69     -5.68
    8    8   18      0.56      5.23
    8    9   18     -5.97     -1.78
    8    0   19     -1.32      2.49
    8    1   19      1.05      0.05
    8    2   19     -0.61     -3.64
    8    3   19      2.83      4.07
    8    4   19      7.57      2.42
    8    5   19    -12.51      6.93
    8    6   19      3.60     -6.07
    8    7   19     -3.21     -1.47
    8    8   19      6.87      0.21
    8    0   20     -0.79     -0.66
    8    1   20     -3.01     -1.98
    8    2   20      0.50     -1.89
    8    3   20      0.28      0.82
    8    4   20     -0.45      2.82
    8    5   20      3.08     -2.83
    8    6   20     -1.00     -1.86
    8    7   20     -3.59      2.00
    8    0   21     -6.86     -1.27
    8    1   21      2.08      0.65
    8    2   21      0.66      4.41
    8    3   21      1.20      5.54
    8    4   21      2.01     -3.56
    8    5   21      4.75      4.29
    8    0   22      4.32     -0.53
    8    1   22      2.62     -2.57
    8    2   22     -3.51      0.63
    9    1    0    -30.94     -0.25
    9    2    0     44.14     -0.11
    9    3    0     11.31     -0.68
    9    4    0    -84.59     -3.92
    9    5    0     -2.69      2.28
    9    6    0     13.15     -0.07
    9    7    0      8.86      6.14
    9    8    0     14.72      0.22
    9    9    0     -7.86     -0.02
    9   10    0     -2.69     -0.22
    9   11    0      1.32     -0.57
    9   12    0     -1.76      0.50
    9   13    0     -3.94     -0.01
    9   14    0     -5.69     -0.05
    9   15    0      3.35      0.17
    9   16    0      5.83      1.64
    9    0    1      2.54     39.87
    9    1    1     -7.24     24.12
    9    2    1    -63.99    -30.35
    9    3    1     -9.58     54.18
    9    4    1      7.56      6.34
    9    5    1     -0.69    -30.40
    9    6    1    -14.28     -6.44
    9    7    1    -13.97    -15.35
    9    8    1     -4.39      0.00
    9    9    1      3.58      7.82
    9   10    1      8.12      0.59
    9   11    1     -4.58     -0.99
    9   12    1      5.47     -0.22
    9   13    1      0.22      8.99
    9   14    1      2.31     -8.27
    9   15    1      1.44     -1.85
    9   16    1     -4.74      1.76
    9    0    2      1.82    -50.35
    9    1    2     28.50      8.46
    9    2    2     55.11    -10.44
    9    3    2     -4.57    -58.78
    9    4    2    -21.88      2.66
    9    5    2    -12.20    -11.01
    9    6    2    -21.93     -8.32
    9    7    2     -1.91     14.22
    9    8    2     12.76      1.90
    9    9    2     11.79      7.65
    9   10    2      0.22     -2.31
    9   11    2      1.85     -0.92
    9   12    2     -3.19     -5.37
    9   13    2     -6.23      3.64
    9   14    2      4.67      7.37
    9   15    2      5.51     -0.29
    9   16    2     -2.78     -1.98
    9    0    3     -2.34    -42.41
    9    1    3    -34.05    -65.21
    9    2    3    -43.02     20.85
    9    3    3    -21.38    -26.75
    9    4    3     -4.02      2.52
    9    5    3     -7.30     21.91
    9    6    3     10.48      8.71
    9    7    3      3.90     -5.55
    9    8    3     11.29     -3.81
    9    9    3      5.84    -10.04
    9   10    3     -4.85      0.93
    9   11    3     -3.24     12.44
    9   12    3     -0.78      0.30
    9   13    3      1.19      0.64
    9   14    3     -5.91     -4.23
    9   15    3      2.28     -2.09
    9   16    3      2.72      0.19
    9    0    4     -0.64     29.28
    9    1    4     28.76     42.75
    9    2    4    -19.22      8.17
    9    3    4     -0.62     -0.60
    9    4    4    -25.90     -4.63
    9    5    4     10.87    -18.02
    9    6    4     21.15    -12.86
    9    7    4     -5.64      3.51
    9    8    4     -3.44      6.60
    9    9    4     -9.86     -0.49
    9   10    4     -5.08     -3.39
    9   11    4      4.19     -1.60
    9   12    4     -5.47     -5.37
    9   13    4      4.45      4.27
    9   14    4     -2.85     -7.62
    9   15    4     -1.60     -0.81
    9    0    5      1.45     -6.00
    9    1    5     17.82    -12.02
    9    2    5     56.70    -20.20
    9    3    5     10.78     -9.88
    9    4    5      4.69      4.60
    9    5    5    -12.85    -13.63
    9    6    5    -10.54    -15.69
    9    7    5      8.61      9.56
    9    8    5     -1.62      5.35
    9    9    5      5.24      9.74
    9   10    5      0.61      6.13
    9   11    5      2.35    -15.81
    9   12    5     -6.78     -4.96
    9   13    5      0.40      1.40
    9   14    5      2.07      3.33
    9   15    5      7.20     -2.28
    9    0    6      1.26      1.14
    9    1    6    -15.64    -18.61
    9    2    6    -16.45     -5.23
    9    3    6    -22.80    -36.44
    9    4    6     12.93     -5.64
    9    5    6     -8.05      9.85
    9    6    6     -9.03     12.50
    9    7    6     -3.29     17.28
    9    8    6     11.88     -4.02
    9    9    6      2.51     -3.13
    9   10    6      3.34     -4.45
    9   11    6      4.73     -3.37
    9   12    6     -2.83      0.55
    9   13    6     -1.26     -0.29
    9   14    6      0.23     -1.20
    9   15    6     -0.20      2.18
    9    0    7     -2.08     -0.67
    9    1    7      9.07     10.25
    9    2    7      2.50     14.02
    9    3    7    -24.00      3.52
    9    4    7     -9.41      9.35
    9    5    7     18.83      3.11
    9    6    7      0.74    -10.21
    9    7    7      2.92     -2.42
    9    8    7      0.52     -1.33
    9    9    7     -8.77     -4.31
    9   10    7     -1.49      1.87
    9   11    7     -2.85     -0.64
    9   12    7      1.95     -0.82
    9   13    7      7.83     -1.06
    9   14    7     -2.01     -3.56
    9   15    7     -1.33      0.60
    9    0    8     -0.17     10.83
    9    1    8    -15.72     14.38
    9    2    8     11.75     -0.57
    9    3    8     15.63      6.56
    9    4    8     16.05    -20.70
    9    5    8     -6.80    -10.43
    9    6    8      1.49     -7.77
    9    7    8     14.60      4.92
    9    8    8     -7.42      1.34
    9    9    8      1.61      7.77
    9   10    8      0.33     -2.74
    9   11    8     -2.30     -2.12
    9   12    8      3.13     -0.48
    9   13    8      4.03     -2.19
    9   14    8     -2.38      5.12
    9   15    8      1.44     -2.39
    9    0    9      0.75      6.76
    9    1    9      4.93     -0.10
    9    2    9     10.98    -14.21
    9    3    9    -24.61     -1.69
    9    4    9     -1.78     -9.76
    9    5    9     -4.11     -1.71
    9    6    9     -4.35     17.87
    9    7    9     -0.01      3.09
    9    8    9     -0.17      6.37
    9    9    9      5.03      5.92
    9   10    9     10.16     -0.20
    9   11    9     10.57     -2.69
    9   12    9     -1.54     -1.96
    9   13    9     -1.98     -1.20
    9   14    9     -0.87     -0.20
    9    0   10     -0.05    -11.48
    9    1   10     -5.25      2.51
    9    2   10     -7.96     -9.74
    9    3   10     13.74      5.74
    9    4   10     -1.31      1.55
    9    5   10      2.66     -0.91
    9    6   10     -1.85     -8.14
    9    7   10     -1.03     -2.26
    9    8   10      1.87      4.12
    9    9   10     11.80     -6.61
    9   10   10     -2.02     -5.07
    9   11   10     -0.46      7.41
    9   12   10      1.00     -0.17
    9   13   10     -1.00     -0.66
    9   14   10      7.43      3.43
    9    0   11      0.21     11.08
    9    1   11     -2.71      2.50
    9    2   11     -2.34    -13.94
    9    3   11     -6.79     -3.00
    9    4   11     -3.49     -6.84
    9    5   11     18.64      0.64
    9    6   11     -0.86      3.98
    9    7   11      7.48      4.38
    9    8   11      1.83    -11.95
    9    9   11    -16.67      1.04
    9   10   11      0.01     -0.06
    9   11   11      4.13      3.63
    9   12   11     -0.33      5.76
    9   13   11     -2.41     -4.04
    9   14   11     -6.59      1.34
    9    0   12      0.30    -18.95
    9    1   12     -1.54      4.91
    9    2   12     -3.93     12.57
    9    3   12      7.97      7.02
    9    4   12     -2.00     -6.75
    9    5   12     -7.99     -2.07
    9    6   12      7.00     -5.14
    9    7   12     -3.22     -3.07
    9    8   12      8.84     18.44
    9    9   12      9.97      7.98
    9   10   12    -11.61     14.72
    9   11   12     -0.85     -0.13
    9   12   12     -5.94     -1.37
    9   13   12     -3.03      0.49
    9    0   13     -1.41     12.94
    9    1   13     -7.66     -0.98
    9    2   13      2.16    -13.51
    9    3   13     14.42     14.95
    9    4   13      0.92     -4.34
    9    5   13      2.52     -2.59
    9    6   13      0.59     24.80
    9    7   13     -5.72     11.55
    9    8   13      9.44     -0.33
    9    9   13      7.46     -1.39
    9   10   13     -3.93     -0.43
    9   11   13     -0.22      4.79
    9   12   13     -1.90      1.91
    9   13   13     -4.31      2.76
    9    0   14      0.97      0.80
    9    1   14     15.26     -5.84
    9    2   14      7.42      0.43
    9    3   14    -11.84    -33.82
    9    4   14      4.37     -1.54
    9    5   14     10.26      3.61
    9    6   14      2.29     -6.96
    9    7   14      2.71     14.88
    9    8   14     -4.87     -1.66
    9    9   14    -15.85      4.93
    9   10   14      2.22     -7.81
    9   11   14     -5.66     -6.22
    9   12   14     -6.83     -0.24
    9    0   15      0.87     -8.96
    9    1   15     -9.48     -1.85
    9    2   15     -7.79     -1.60
    9    3   15     21.46      7.36
    9    4   15     -9.22     15.09
    9    5   15    -12.75      2.94
    9    6   15     -2.29     -7.02
    9    7   15    -12.15     10.04
    9    8   15    -12.05     -5.90
    9    9   15      1.45    -18.34
    9   10   15     -9.87     10.63
    9   11   15      5.79     -7.53
    9    0   16     -0.87     -6.69
    9    1   16     -7.58      5.61
    9    2   16     -0.61      1.29
    9    3   16      4.15     14.05
    9    4   16      5.07     -5.03
    9    5   16      1.31      1.36
    9    6   16     -5.02      2.92
    9    7   16     -3.52     -1.79
    9    8   16      1.18      1.45
    9    9   16     -2.11      8.09
    9   10   16     -3.10     -4.39
    9   11   16     -1.54     -4.38
    9    0   17     -0.21    -14.97
    9    1   17      0.43      0.39
    9    2   17      8.34     10.80
    9    3   17      1.37     -1.39
    9    4   17      7.55      3.05
    9    5   17     -2.44      1.46
    9    6   17     -7.72     -5.94
    9    7   17      2.66      1.25
    9    8   17      0.70     -6.12
    9    9   17     -2.05     -0.60
    9   10   17     13.31      2.04
    9    0   18      0.59      3.78
    9    1   18      8.15     -3.58
    9    2   18     -5.05     -9.11
    9    3   18     -2.64     -4.65
    9    4   18     -0.53     -3.84
    9    5   18     -0.25     -2.45
    9    6   18     -4.77     -2.25
    9    7   18     -7.18     -2.82
    9    8   18      1.82     -1.17
    9    9   18     -0.30      2.24
    9    0   19      0.01    -18.05
    9    1   19      4.53      1.17
    9    2   19     -4.57      6.67
    9    3   19     -0.43      5.53
    9    4   19     -0.80      3.07
    9    5   19     -4.22      4.75
    9    6   19      0.18     -3.69
    9    7   19     13.10      1.28
    9    8   19     -6.92     -4.78
    9    0   20     -0.18    -10.39
    9    1   20      0.73      4.25
    9    2   20     -4.67      1.91
    9    3   20      7.93      3.21
    9    4   20     -1.38      4.20
    9    5   20      1.01     -0.88
    9    6   20      2.54     -7.11
    9    0   21      0.67      7.00
    9    1   21      9.07      2.58
    9    2   21      2.28     -2.21
    9    3   21     -5.86      1.12
    9    4   21      1.20     -8.89
   10    0    0      5.87      2.97
   10    1    0     37.94     -0.88
   10    2    0   -110.88    -11.43
   10    3    0      1.95      1.38
   10    4    0    -27.11     -0.66
   10    5    0     10.91      2.26
   10    6    0     33.32      0.60
   10    7    0      1.73     -0.23
   10    8    0      9.98     -0.15
   10    9    0     -0.69     -1.60
   10   10    0      0.00      0.20
   10   11    0     -4.12     -0.21
   10   12    0     -1.95     -0.47
   10   13    0     -1.63     -0.13
   10   14    0      3.77      0.27
   10   15    0     -6.94     -0.07
   10   16    0      2.06     -0.08
   10    0    1    -25.19     -1.39
   10    1    1     20.73    -16.90
   10    2    1     24.58     14.44
   10    3    1     21.79      3.75
   10    4    1      1.60      6.33
   10    5    1      0.14    -29.18
   10    6    1     -4.00     -5.48
   10    7    1      1.43      9.08
   10    8    1      4.56     -1.59
   10    9    1    -10.27     -1.91
   10   10    1      7.60     -6.80
   10   11    1     -1.99     -0.95
   10   12    1     -2.01      1.08
   10   13    1     -6.49     -4.35
   10   14    1     -3.18      5.09
   10   15    1     -1.05     -4.62
   10   16    1      1.80     -0.22
   10    0    2      2.46    -10.19
   10    1    2     -0.53     20.60
   10    2    2    -29.36      7.04
   10    3    2      6.37    -48.86
   10    4    2    -32.70      3.97
   10    5    2     -9.56      9.44
   10    6    2     -3.79     -2.35
   10    7    2     -7.18     18.83
   10    8    2      3.75     -3.92
   10    9    2      7.51     -1.34
   10   10    2     -7.94     -5.28
   10   11    2     -3.41     -0.49
   10   12    2      5.90     -5.77
   10   13    2     -0.93      3.03
   10   14    2     -1.65     -6.35
   10   15    2      1.80      0.35
   10   16    2      1.27     -0.07
   10    0    3      5.78     12.46
   10    1    3     -2.05    -35.29
   10    2    3     -3.30     19.88
   10    3    3    -16.34     14.05
   10    4    3      9.58      5.52
   10    5    3     -2.26      0.22
   10    6    3     23.65     18.07
   10    7    3      5.77    -11.98
   10    8    3      2.48     -1.08
   10    9    3      1.24     14.12
   10   10    3     -6.54     -9.03
   10   11    3      3.02      8.62
   10   12    3     -1.64      2.12
   10   13    3     -0.28     -5.87
   10   14    3      2.82     -0.45
   10   15    3     -0.33      1.90
   10    0    4    -28.65     -4.08
   10    1    4      5.91     -0.66
   10    2    4    -12.32     29.33
   10    3    4      6.12    -24.51
   10    4    4     27.30     11.94
   10    5    4      0.90      9.87
   10    6    4      4.06     -8.55
   10    7    4      3.65     10.97
   10    8    4    -15.67      9.44
   10    9    4     -4.57     -1.95
   10   10    4      3.72      3.57
   10   11    4      1.45     -3.61
   10   12    4     -2.89     -2.08
   10   13    4      0.30      2.88
   10   14    4      8.61      0.94
   10   15    4     -3.70     -4.24
   10    0    5     27.67     -1.76
   10    1    5      1.14      5.15
   10    2    5    -23.59    -13.01
   10    3    5     -7.37     -6.75
   10    4    5    -26.36     -2.91
   10    5    5     -6.26     -7.26
   10    6    5      4.63     -0.86
   10    7    5     -5.74     13.67
   10    8    5      1.81     -1.22
   10    9    5     12.21    -14.76
   10   10    5    -14.62     -0.25
   10   11    5     -4.68     -1.28
   10   12    5      0.76     -1.95
   10   13    5     -0.59      2.86
   10   14    5      0.89      2.36
   10   15    5      3.66      0.23
   10    0    6    -24.75     -0.01
   10    1    6    -20.76    -19.56
   10    2    6     25.16     -0.62
   10    3    6    -31.35     12.32
   10    4    6     -2.55     -3.53
   10    5    6      5.83     14.60
   10    6    6     -7.74      8.69
   10    7    6     14.77     -4.29
   10    8    6      9.31      1.28
   10    9    6     -3.60     -1.33
   10   10    6      5.78     -2.22
   10   11    6      7.13      3.38
   10   12    6     -3.51      5.24
   10   13    6     -1.25      2.16
   10   14    6     -0.03      1.44
   10   15    6     -1.17      1.55
   10    0    7     -5.14      1.27
   10    1    7    -19.12     -3.34
   10    2    7     -6.78     12.63
   10    3    7      2.63    -31.27
   10    4    7     -2.38     -3.16
   10    5    7      2.56      7.31
   10    6    7      6.59      0.10
   10    7    7     -7.09      7.06
   10    8    7      4.18      6.94
   10    9    7     -5.81     -5.93
   10   10    7      1.87     -1.76
   10   11    7     -2.19     -8.55
   10   12    7     -2.48     -1.38
   10   13    7      2.90     -1.85
   10   14    7      2.91     -0.53
   10   15    7     -1.54      3.06
   10    0    8     11.28     -0.68
   10    1    8      9.77     -1.12
   10    2    8    -10.99    -22.37
   10    3    8      0.99      7.06
   10    4    8      0.86     -8.35
   10    5    8     -5.50      1.01
   10    6    8      6.51      1.01
   10    7    8      3.75     -3.51
   10    8    8     -9.69     13.86
   10    9    8     -5.19      3.47
   10   10    8     -2.01      2.07
   10   11    8     -6.78     -2.75
   10   12    8     -2.64     -5.21
   10   13    8      1.40      0.68
   10   14    8     -1.41      1.60
   10    0    9     -5.77     -0.52
   10    1    9    -10.53     -4.29
   10    2    9     11.03     -8.57
   10    3    9     -6.27     -5.08
   10    4    9     -1.07      8.51
   10    5    9      1.93     -6.69
   10    6    9     -5.64     12.27
   10    7    9      1.44      4.72
   10    8    9      8.95      0.76
   10    9    9      8.15      1.27
   10   10    9     10.36     -3.21
   10   11    9     -2.01      3.26
   10   12    9     -3.01      0.70
   10   13    9     -7.17      0.78
   10   14    9      2.12      3.73
   10    0   10     -5.72     -1.07
   10    1   10     15.34     -2.93
   10    2   10      6.46      3.72
   10    3   10      4.94      0.40
   10    4   10      2.43     -5.92
   10    5   10      2.08      2.86
   10    6   10      0.62     11.57
   10    7   10     -1.05      5.27
   10    8   10      3.74     -5.92
   10    9   10     -5.43      6.80
   10   10   10     -3.86     -6.45
   10   11   10      1.84     -2.99
   10   12   10      9.23      3.08
   10   13   10      0.06     -5.62
   10   14   10      0.45      0.51
   10    0   11     -2.27      5.42
   10    1   11    -11.86     -2.93
   10    2   11      3.78     -8.08
   10    3   11     10.97     -0.24
   10    4   11      2.55     -0.80
   10    5   11      2.92     11.24
   10    6   11      2.78      1.56
   10    7   11    -10.64      3.63
   10    8   11     -6.87      8.43
   10    9   11     -4.98      3.61
   10   10   11      4.82      0.59
   10   11   11      4.66      0.78
   10   12   11     -6.69     -7.09
   10   13   11     -2.44      0.47
   10    0   12     -3.34     -2.70
   10    1   12      9.67     -3.06
   10    2   12     -0.57     11.43
   10    3   12      1.04     -2.53
   10    4   12     -4.95     -8.49
   10    5   12    -11.71     -5.53
   10    6   12      1.38      6.92
   10    7   12      1.73      6.43
   10    8   12    -12.28      5.58
   10    9   12      6.39     -3.47
   10   10   12     -4.85     -3.84
   10   11   12     -2.16      0.86
   10   12   12      5.15     -4.05
   10   13   12     -0.80     -1.51
   10    0   13     -6.48      2.18
   10    1   13      7.47      3.87
   10    2   13     10.70     -2.61
   10    3   13      3.33     -0.61
   10    4   13      9.28     22.13
   10    5   13     -8.68      3.96
   10    6   13     -9.77     -4.86
   10    7   13     -6.89     -2.77
   10    8   13     -4.18     -9.69
   10    9   13      5.76      7.41
   10   10   13      4.77      6.04
   10   11   13      3.60      2.41
   10   12   13      6.65     -1.45
   10    0   14      4.74     -6.06
   10    1   14    -12.72     11.68
   10    2   14     -2.92     -1.01
   10    3   14     -2.77      6.47
   10    4   14      0.90     -0.17
   10    5   14      6.53     -0.99
   10    6   14     -6.98      5.74
   10    7   14     -2.73     -6.56
   10    8   14     -1.34     -2.60
   10    9   14     -2.10     -5.88
   10   10   14     -5.13     -3.54
   10   11   14      0.63      3.53
   10   12   14      3.16      1.89
   10    0   15      1.55     15.13
   10    1   15      8.72    -11.49
   10    2   15      3.92      5.40
   10    3   15     -6.71     -3.59
   10    4   15     10.17     -2.21
   10    5   15    -10.86      0.96
   10    6   15      5.82     -5.23
   10    7   15     12.45     -8.86
   10    8   15     -1.26      5.52
   10    9   15      2.54     -8.58
   10   10   15     -2.10      6.10
   10   11   15     -2.33     11.65
   10    0   16     -4.00    -16.08
   10    1   16     -0.95      7.89
   10    2   16     -0.61      2.47
   10    3   16      2.76      7.67
   10    4   16     -4.66     -1.72
   10    5   16     -8.26     -2.77
   10    6   16     -3.11      0.96
   10    7   16      1.05      7.86
   10    8   16     -0.77      1.52
   10    9   16      4.32      0.43
   10   10   16     -2.13      0.10
   10    0   17     -4.67      8.54
   10    1   17      6.52      3.45
   10    2   17      5.47     -3.02
   10    3   17     -2.63     -2.66
   10    4   17     -6.96     -0.25
   10    5   17      5.42      7.65
   10    6   17     -3.99     -0.90
   10    7   17     -1.61     -5.57
   10    8   17     10.53      7.07
   10    9   17     -2.51     -1.45
   10   10   17     -4.17     -1.58
   10    0   18      9.34     -0.74
   10    1   18     -9.52      1.76
   10    2   18     -5.84     -1.96
   10    3   18     -6.38      2.17
   10    4   18      5.77     -6.42
   10    5   18     -0.04     -3.10
   10    6   18      5.07     -6.95
   10    7   18      1.14      2.46
   10    8   18      6.76      4.98
   10    9   18     -4.68      0.51
   10    0   19     -2.47     -0.52
   10    1   19      1.60      0.55
   10    2   19      2.88      7.86
   10    3   19     -1.47     -2.45
   10    4   19      0.20     -0.81
   10    5   19      4.33     -8.47
   10    6   19    -10.69     -2.36
   10    7   19     -0.02     -0.48
   10    0   20      0.88     -0.25
   10    1   20     -0.72      2.84
   10    2   20      0.40      4.58
   10    3   20      2.08      0.18
   10    4   20     -1.84      0.63
   10    5   20      1.70      3.00
   10    6   20      0.05     -3.11
   10    0   21      4.72      0.76
   10    1   21     -2.99     -1.42
   10    2   21     -0.48     -2.42
   10    3   21     -0.68     -0.04
   10    4   21      1.27     -1.65
   11    1    0      3.63     -0.65
   11    2    0    -93.97      0.02
   11    3    0     -6.75      0.23
   11    4    0      0.56     -2.13
   11    5    0      4.62     -1.30
   11    6    0     29.93      0.89
   11    7    0     -6.03     -2.98
   11    8    0     -5.09     -0.12
   11    9    0      2.62     -0.96
   11   10    0      0.92      0.36
   11   11    0      1.20      0.00
   11   12    0     -3.02     -0.63
   11   13    0      3.29      0.10
   11   14    0     -4.58      0.06
   11   15    0      2.62      0.03
   11    0    1     -2.99     -3.98
   11    1    1     21.18      9.43
   11    2    1     45.20     27.16
   11    3    1      9.84      7.12
   11    4    1      3.86      8.77
   11    5    1      2.58     16.52
   11    6    1     -1.55     -5.56
   11    7    1      8.60      5.07
   11    8    1      4.83      5.91
   11    9    1      1.51     -4.38
   11   10    1     -3.68      8.56
   11   11    1      5.98     -2.41
   11   12    1     -3.16     -5.86
   11   13    1     -9.07      3.19
   11   14    1      1.06      0.37
   11   15    1      0.75      0.78
   11    0    2      0.26     25.26
   11    1    2     13.41    -19.02
   11    2    2      2.79      6.80
   11    3    2     -6.35      1.48
   11    4    2     16.95      5.19
   11    5    2     12.62     11.71
   11    6    2     10.71      2.73
   11    7    2      3.28      5.21
   11    8    2     -3.04      0.71
   11    9    2      5.50     -1.93
   11   10    2     -2.67      4.87
   11   11    2     -7.31      0.90
   11   12    2      2.88      1.44
   11   13    2      2.22     -6.60
   11   14    2      2.14     -3.07
   11   15    2      0.01      1.12
   11    0    3      0.25     19.63
   11    1    3     25.13      3.66
   11    2    3     -5.47    -17.49
   11    3    3     15.03    -25.03
   11    4    3     -6.84     -9.36
   11    5    3      3.03    -12.46
   11    6    3      5.21     -0.88
   11    7    3     -1.97      9.71
   11    8    3      2.79      1.15
   11    9    3      8.53      5.81
   11   10    3      2.47     -2.99
   11   11    3      2.44     -8.70
   11   12    3     -4.34      1.64
   11   13    3     -0.30      2.44
   11   14    3     -1.05     -1.01
   11   15    3      4.56     -0.05
   11    0    4     -0.19     16.34
   11    1    4    -20.58    -17.51
   11    2    4     -4.39     -0.99
   11    3    4    -13.43     17.00
   11    4    4      8.82     -4.09
   11    5    4     -5.23     12.63
   11    6    4     -2.61      6.01
   11    7    4     13.74     -6.24
   11    8    4      0.50      5.29
   11    9    4     -6.80    -10.76
   11   10    4     -0.27     -3.94
   11   11    4      2.05      1.46
   11   12    4      3.75     -1.34
   11   13    4     -1.16      2.64
   11   14    4      3.77      5.76
   11   15    4     -0.44     -0.58
   11    0    5     -0.89     21.53
   11    1    5     -9.80     -1.19
   11    2    5     -5.51     28.59
   11    3    5     -4.16      6.26
   11    4    5     11.87      1.93
   11    5    5     12.82     10.48
   11    6    5     -0.20     -5.02
   11    7    5      0.65      2.16
   11    8    5     -6.04      6.41
   11    9    5     -8.08     -1.35
   11   10    5     -1.50     10.99
   11   11    5     -1.86      1.97
   11   12    5      4.52     -5.18
   11   13    5     -0.79      2.90
   11   14    5      1.43     -3.43
   11   15    5     -1.18      3.94
   11    0    6     -1.94     20.16
   11    1    6      4.36     10.55
   11    2    6     30.51    -13.04
   11    3    6     15.05     -9.68
   11    4    6    -17.05      4.54
   11    5    6     16.75      0.38
   11    6    6      5.86      1.83
   11    7    6      1.38      7.82
   11    8    6     10.94      2.94
   11    9    6      2.96      0.18
   11   10    6     -6.22      3.38
   11   11    6     -7.10     -3.82
   11   12    6     -5.30      3.90
   11   13    6      8.26      2.57
   11   14    6     -0.27      0.53
   11   15    6      7.47     -1.81
   11    0    7      0.26    -18.91
   11    1    7     -9.33    -18.19
   11    2    7    -14.92     -8.13
   11    3    7     -8.12      6.16
   11    4    7     10.37      2.83
   11    5    7      5.99     13.75
   11    6    7      4.94      6.76
   11    7    7      7.14      1.39
   11    8    7      2.64      3.69
   11    9    7     -3.54     -5.84
   11   10    7      2.00     -4.21
   11   11    7     -0.41     -2.96
   11   12    7     -5.33      0.13
   11   13    7     -1.29      3.33
   11   14    7     -0.01      2.28
   11   15    7     -0.18     -0.19
   11    0    8     -0.02    -23.61
   11    1    8     -3.31      3.91
   11    2    8     -0.07      3.03
   11    3    8      0.58      3.50
   11    4    8      1.84     16.63
   11    5    8      4.46     -1.15
   11    6    8    -10.73     19.78
   11    7    8    -10.43      7.70
   11    8    8      2.39     -1.52
   11    9    8     -5.16     -3.83
   11   10    8      0.47     -1.89
   11   11    8      5.13     -0.92
   11   12    8      1.37      3.30
   11   13    8     -2.16      0.44
   11   14    8      1.31      2.50
   11    0    9     -0.32     -0.97
   11    1    9      2.07     -3.11
   11    2    9      4.01     -3.35
   11    3    9      6.05      0.41
   11    4    9     -9.12      3.24
   11    5    9     -0.97      6.16
   11    6    9     -3.68     -3.35
   11    7    9      6.45      2.19
   11    8    9      6.80     -1.79
   11    9    9    -10.54     -2.65
   11   10    9      1.24     -4.65
   11   11    9     -8.30     -3.35
   11   12    9     -1.51      2.39
   11   13    9     10.69     -0.81
   11   14    9     -0.30      2.96
   11    0   10     -0.56      6.10
   11    1   10      5.57      7.23
   11    2   10      2.32     -7.79
   11    3   10     -4.02      1.03
   11    4   10      1.53      9.41
   11    5   10    -13.01      0.35
   11    6   10     -1.17      9.90
   11    7   10    -10.51      4.95
   11    8   10     -3.13     -1.55
   11    9   10      1.64     -3.22
   11   10   10      3.41      8.17
   11   11   10      2.23     -7.84
   11   12   10     -1.67     -1.17
   11   13   10     -8.73     -0.67
   11   14   10     -5.08     -3.59
   11    0   11     -0.38      6.67
   11    1   11      2.25      1.30
   11    2   11      4.03      1.18
   11    3   11      0.11      2.68
   11    4   11     -8.99     -3.63
   11    5   11     -2.94      3.38
   11    6   11      1.36      7.93
   11    7   11     -9.52     -1.92
   11    8   11      4.02      4.45
   11    9   11     10.92      2.70
   11   10   11     -0.94     -8.16
   11   11   11      1.90      2.60
   11   12   11     -0.08      6.60
   11   13   11     -4.79     -3.66
   11    0   12     -0.20      0.40
   11    1   12      5.41     -5.91
   11    2   12    -11.04      8.93
   11    3   12     -3.20     -6.32
   11    4   12     -2.12      1.20
   11    5   12      2.72      3.84
   11    6   12     -2.13    -13.30
   11    7   12      1.53      7.60
   11    8   12      6.10    -20.86
   11    9   12    -12.93     -0.93
   11   10   12     15.33     -0.47
   11   11   12     -1.22      0.92
   11   12   12     -0.95      0.10
   11   13   12      7.01     -1.62
   11    0   13      1.19      1.47
   11    1   13     -0.90      2.88
   11    2   13      7.61      7.41
   11    3   13     15.63    -11.57
   11    4   13     -6.40     -8.27
   11    5   13    -10.28     -1.49
   11    6   13    -10.80    -12.33
   11    7   13     -9.72     -4.25
   11    8   13      6.10      8.09
   11    9   13      5.06     -1.04
   11   10   13      0.70      5.63
   11   11   13     -2.72     -4.31
   11   12   13     -3.22     -5.84
   11    0   14      0.37      7.26
   11    1   14    -21.32      0.68
   11    2   14     -1.14    -12.21
   11    3   14      6.96     15.69
   11    4   14      0.72      0.65
   11    5   14     -0.25     -1.72
   11    6   14     -3.81      7.38
   11    7   14     16.13      7.29
   11    8   14      2.70      2.69
   11    9   14      6.79      0.68
   11   10   14     -5.56      4.88
   11   11   14      2.48      2.28
   11   12   14      4.73      1.93
   11    0   15     -0.72      1.99
   11    1   15     -7.16      6.21
   11    2   15      4.50      7.09
   11    3   15    -11.87    -16.43
   11    4   15     -4.61    -10.96
   11    5   15     17.04     -6.98
   11    6   15     15.19     -0.64
   11    7   15      9.07     -0.63
   11    8   15      0.27      2.54
   11    9   15    -15.18     24.76
   11   10   15      6.58     -8.82
   11   11   15      2.07     -1.09
   11    0   16      2.12      2.25
   11    1   16      2.15      1.34
   11    2   16      1.24      3.88
   11    3   16      1.43     -6.76
   11    4   16     -2.75      6.19
   11    5   16     -4.50     -6.16
   11    6   16    -13.45      0.26
   11    7   16     -1.25     -0.01
   11    8   16     -4.80      2.13
   11    9   16     -2.55     -2.32
   11   10   16      3.39      3.05
   11    0   17      0.62    -11.25
   11    1   17     -2.28      1.24
   11    2   17     -4.84     -6.40
   11    3   17      8.28     -1.76
   11    4   17      0.05      3.30
   11    5   17     -0.71      2.98
   11    6   17     -1.87      9.49
   11    7   17     -1.67      1.64
   11    8   17      1.06     -1.74
   11    9   17      2.03     -0.59
   11    0   18     -0.18     -3.51
   11    1   18     -9.37     -0.91
   11    2   18      0.21      1.07
   11    3   18      4.74      5.54
   11    4   18      6.43     -6.70
   11    5   18      0.59     -2.11
   11    6   18     13.05      7.96
   11    7   18      7.05     -6.69
   11    8   18     -6.74      0.79
   11    0   19      0.24      4.85
   11    1   19      7.57     -2.65
   11    2   19      3.86     -1.23
   11    3   19    -18.64     -7.84
   11    4   19     -0.51     -2.15
   11    5   19     -2.70    -11.22
   11    6   19     -1.05     -3.56
   11    7   19     -4.50     -6.76
   11    0   20      0.69      0.29
   11    1   20     -1.45      4.93
   11    2   20      2.90      3.70
   11    3   20     -0.30     -6.63
   11    4   20      1.91     -1.60
   11    5   20     -7.71      0.31
   11    0   21     -0.17     -1.58
   11    1   21     -6.06     -0.08
   11    2   21      0.36     -1.23
   11    3   21      4.79      3.20
   12    0    0     38.24     -6.22
   12    1    0      5.29     -1.34
   12    2    0     20.75      2.46
   12    3    0     -8.94     -1.75
   12    4    0     47.42      0.13
   12    5    0     -9.02      0.24
   12    6    0     23.53      0.37
   12    7    0      3.01     -0.05
   12    8    0    -22.17      0.81
   12    9    0      8.39     -0.19
   12   10    0      0.59      0.02
   12   11    0     -1.53      0.20
   12   12    0     -3.80      0.44
   12   13    0      3.91      0.17
   12   14    0      5.98      0.28
   12   15    0      2.48      0.40
   12    0    1    -22.46     -1.01
   12    1    1    -12.44     13.84
   12    2    1    -16.33    -11.28
   12    3    1    -10.36     -7.97
   12    4    1     -6.65      4.78
   12    5    1      2.12    -28.42
   12    6    1     -7.76     -5.39
   12    7    1     -1.24      9.68
   12    8    1      4.78      3.22
   12    9    1      3.98      5.27
   12   10    1     -0.71      3.72
   12   11    1      4.57     -1.86
   12   12    1     -2.00     -1.47
   12   13    1      4.30      0.12
   12   14    1     -4.38      0.02
   12   15    1      4.78     -6.88
   12    0    2     11.12      7.14
   12    1    2    -12.13     -6.82
   12    2    2      7.34      5.81
   12    3    2      5.44     -8.63
   12    4    2    -18.37    -13.89
   12    5    2     -1.63     23.79
   12    6    2     17.32      1.39
   12    7    2      9.42      1.40
   12    8    2     -0.44     13.04
   12    9    2     -7.64     -3.60
   12   10    2     -7.54     -1.37
   12   11    2      1.17     -0.88
   12   12    2      4.24      5.45
   12   13    2      2.35     -6.15
   12   14    2     -6.48      6.05
   12   15    2     -0.41      5.88
   12    0    3    -25.50    -22.50
   12    1    3      8.18    -11.52
   12    2    3     -9.21     -5.54
   12    3    3      0.33     20.55
   12    4    3     15.24     -0.60
   12    5    3     -4.89     19.34
   12    6    3      0.39     -4.91
   12    7    3      4.99     -2.32
   12    8    3     -6.17     -0.56
   12    9    3      1.95     -0.27
   12   10    3     -6.94      4.25
   12   11    3     -6.02     -2.39
   12   12    3      2.87     -3.41
   12   13    3      4.84      1.99
   12   14    3      6.28      0.38
   12   15    3     -2.14      0.96
   12    0    4     19.24      6.19
   12    1    4     -6.78     18.01
   12    2    4     -5.13    -14.87
   12    3    4    -15.31    -14.78
   12    4    4     16.84     -2.26
   12    5    4     10.15    -10.56
   12    6    4      0.49      7.34
   12    7    4    -14.43     -7.34
   12    8    4     -9.60     -3.07
   12    9    4      6.12     -3.43
   12   10    4      2.69     -7.68
   12   11    4      3.64      3.84
   12   12    4      2.52      1.83
   12   13    4     -1.17     -2.42
   12   14    4      1.37      5.96
   12   15    4      5.17      0.97
   12    0    5     25.30      1.99
   12    1    5      5.60    -24.25
   12    2    5     20.22      3.95
   12    3    5      8.93     10.12
   12    4    5    -10.10     -9.34
   12    5    5      1.64      3.39
   12    6    5      0.81      2.50
   12    7    5      6.04      4.03
   12    8    5     -2.96     13.31
   12    9    5    -12.12      1.75
   12   10    5      2.67     -1.26
   12   11    5      4.01     -0.40
   12   12    5     -2.21      0.94
   12   13    5      2.23      3.58
   12   14    5      2.77      5.17
   12   15    5     -2.50     -2.26
   12    0    6     -5.75     -3.08
   12    1    6      6.27     -6.78
   12    2    6     -3.72    -12.14
   12    3    6     13.14     -9.42
   12    4    6     -4.93      8.15
   12    5    6     -5.78     18.02
   12    6    6      8.51    -10.09
   12    7    6     -9.70      9.27
   12    8    6     -0.73      1.75
   12    9    6      4.85    -11.39
   12   10    6    -12.11      1.13
   12   11    6     -4.98     -0.40
   12   12    6      2.92     -1.95
   12   13    6      4.93      1.61
   12   14    6      1.65      0.30
   12   15    6     -1.70      2.78
   12    0    7      3.50     -2.37
   12    1    7     -0.26     21.74
   12    2    7      3.48      6.60
   12    3    7     -2.31     17.43
   12    4    7      3.34     -6.47
   12    5    7      3.49      5.41
   12    6    7     -0.20      2.89
   12    7    7      0.66    -16.02
   12    8    7     -4.57     -1.74
   12    9    7      0.27     -2.07
   12   10    7     -2.45     -4.62
   12   11    7      4.52      6.15
   12   12    7     -3.26      3.57
   12   13    7     -3.76      3.15
   12   14    7      2.13      4.85
   12    0    8     15.99      0.40
   12    1    8      0.68      9.66
   12    2    8      8.56      6.46
   12    3    8     -1.72     -4.10
   12    4    8     -2.48      8.80
   12    5    8      2.57      5.71
   12    6    8    -12.17      7.40
   12    7    8      2.88      2.03
   12    8    8      1.76    -11.56
   12    9    8      1.62     -3.71
   12   10    8      7.52      0.01
   12   11    8      0.24     -0.24
   12   12    8     -5.38      6.49
   12   13    8      0.60      5.81
   12   14    8      3.24      2.54
   12    0    9      8.79      0.80
   12    1    9      2.58     -2.80
   12    2    9     -9.55     -4.78
   12    3    9     -0.18     11.21
   12    4    9     -7.37      2.26
   12    5    9      9.42      2.30
   12    6    9      8.60     -1.02
   12    7    9     -8.94      3.25
   12    8    9     -3.57     -1.33
   12    9    9     -2.50     -2.02
   12   10    9     -9.02      0.51
   12   11    9      3.16     -3.43
   12   12    9      1.92      0.04
   12   13    9     -0.16      0.76
   12   14    9      1.83     -2.29
   12    0   10    -11.65      1.56
   12    1   10     -4.13      2.81
   12    2   10     -0.52     -7.58
   12    3   10     -5.35      3.13
   12    4   10     -6.00      1.20
   12    5   10    -12.00     -2.02
   12    6   10     -5.36     -0.55
   12    7   10      8.06     -8.42
   12    8   10      3.22     11.56
   12    9   10      5.93     -1.45
   12   10   10      3.76     -0.20
   12   11   10     -6.84      2.85
   12   12   10     -4.53     -0.10
   12   13   10     -3.80     -4.32
   12    0   11     -7.78     -3.91
   12    1   11     -0.68      5.75
   12    2   11     -0.01     -5.51
   12    3   11     -0.70     -4.66
   12    4   11     -0.63      8.02
   12    5   11     -5.39     -3.25
   12    6   11     -2.77      5.77
   12    7   11     -1.34      2.84
   12    8   11     -4.70     -7.97
   12    9   11      6.33     -6.40
   12   10   11     -0.35      1.23
   12   11   11     -1.33     -4.61
   12   12   11     -2.92      5.30
   12   13   11     -1.65      0.31
   12    0   12     -7.13      0.10
   12    1   12     -3.20      5.22
   12    2   12     -3.17     10.42
   12    3   12     -0.19     -2.64
   12    4   12      7.57     -6.90
   12    5   12      1.77      2.66
   12    6   12      2.20      0.73
   12    7   12      0.45      1.14
   12    8   12      4.88      6.29
   12    9   12     -9.05      6.47
   12   10   12     -4.85     -1.61
   12   11   12      2.30      0.80
   12   12   12      5.68     -3.92
   12   13   12     -4.42      2.40
   12    0   13      3.85     -3.10
   12    1   13     13.89      0.94
   12    2   13     -6.15    -11.09
   12    3   13     -1.61      2.06
   12    4   13     -6.90     -0.06
   12    5   13     -4.32     -2.87
   12    6   13     11.61     -1.51
   12    7   13      3.78      2.67
   12    8   13     -3.41      0.62
   12    9   13      1.00      0.29
   12   10   13     -3.22      2.56
   12   11   13     -4.80      0.71
   12   12   13      6.54     -4.36
   12    0   14     -5.81     12.51
   12    1   14     -0.96     -8.30
   12    2   14      6.41     -1.53
   12    3   14      3.12     -2.55
   12    4   14      4.11     -2.64
   12    5   14      2.69      8.64
   12    6   14     -2.57     -2.88
   12    7   14     -7.05      3.96
   12    8   14      3.08      3.41
   12    9   14      1.58     -4.89
   12   10   14     -0.49      1.04
   12   11   14      1.07     -5.95
   12    0   15     -7.36    -18.72
   12    1   15     -6.07     12.71
   12    2   15     -8.58      6.05
   12    3   15      5.34     -0.85
   12    4   15      3.20     -4.40
   12    5   15     -7.17      0.02
   12    6   15    -12.26      1.37
   12    7   15      0.07      4.39
   12    8   15     -6.04      1.32
   12    9   15      1.97     -4.31
   12   10   15     -0.08     -5.80
   12   11   15      1.01      0.04
   12    0   16     -3.66     10.09
   12    1   16      9.39      0.75
   12    2   16      1.62      4.01
   12    3   16     -3.91     -8.79
   12    4   16     -8.53      5.09
   12    5   16      8.75     -1.88
   12    6   16      2.86     -2.86
   12    7   16      3.02      2.98
   12    8   16      6.05      0.51
   12    9   16     -1.95     -0.77
   12   10   16      0.16      1.72
   12    0   17     -0.04     -1.48
   12    1   17      4.33     -1.92
   12    2   17     -2.00     10.22
   12    3   17      2.49      1.35
   12    4   17     -0.46     -4.18
   12    5   17     -0.83      1.17
   12    6   17      3.38     -7.82
   12    7   17      7.27     -0.88
   12    8   17      4.00      3.66
   12    9   17     -4.12      3.01
   12    0   18     -9.45     -0.02
   12    1   18      5.13      0.31
   12    2   18     -0.56     -3.53
   12    3   18      2.20     -5.08
   12    4   18      4.34      6.87
   12    5   18     -0.06     -7.76
   12    6   18     -7.06      4.96
   12    7   18     -3.19      4.21
   12    8   18     -2.13     -1.00
   12    0   19     -3.48     -1.23
   12    1   19    -13.06      1.27
   12    2   19     -2.08      8.26
   12    3   19     -4.22     -0.95
   12    4   19     -3.98     -4.30
   12    5   19      5.37      3.58
   12    6   19      5.57      5.45
   12    7   19     -0.26      0.45
   12    0   20     -2.01      1.67
   12    1   20      3.21      0.55
   12    2   20      1.73      3.70
   12    3   20     -0.97     -4.44
   12    4   20      2.27      1.40
   12    5   20      0.52     -1.84
   12    0   21      6.09     -0.63
   12    1   21      0.84      0.30
   12    2   21     -2.76     -7.37
   13    1    0     17.68     -1.92
   13    2    0     20.05     -0.48
   13    3    0     -9.23      1.85
   13    4    0     68.61      1.89
   13    5    0      0.81      0.82
   13    6    0    -28.15     -0.28
   13    7    0      3.93     -0.20
   13    8    0     -8.65      0.65
   13    9    0     -3.82      0.71
   13   10    0      3.77     -0.03
   13   11    0      5.52      0.40
   13   12    0     -1.70      0.28
   13   13    0     -0.49      0.25
   13   14    0     10.48     -0.12
   13   15    0     -9.36      0.21
   13    0    1      2.12     -8.82
   13    1    1    -11.80     15.55
   13    2    1     -4.15    -10.84
   13    3    1    -12.84    -21.87
   13    4    1    -22.67     -8.84
   13    5    1    -11.20    -11.21
   13    6    1     17.49      3.35
   13    7    1     -6.82     14.27
   13    8    1      5.36     -3.31
   13    9    1      2.70     -3.16
   13   10    1     -7.63     -9.38
   13   11    1     -1.41     -2.34
   13   12    1     -0.23      2.61
   13   13    1      2.40     -4.19
   13   14    1      3.82      3.19
   13   15    1     -0.13      1.31
   13    0    2     -0.64      1.61
   13    1    2     -6.40    -26.69
   13    2    2    -14.98     -1.20
   13    3    2     -0.04      9.85
   13    4    2      6.02     -1.48
   13    5    2     -2.13     21.97
   13    6    2      3.33     -1.95
   13    7    2     -2.49    -10.71
   13    8    2     -9.12     -8.61
   13    9    2    -10.88     -5.46
   13   10    2      6.37     -0.84
   13   11    2      3.74     -2.12
   13   12    2      1.45     -0.38
   13   13    2     -2.03      2.43
   13   14    2     -3.22      1.94
   13   15    2     -1.48      5.30
   13    0    3      0.62     11.17
   13    1    3    -14.48     24.46
   13    2    3     13.69     10.06
   13    3    3     -1.90     31.71
   13    4    3     17.95     -2.71
   13    5    3      2.78     -7.96
   13    6    3     -9.18    -12.22
   13    7    3     -2.08      1.55
   13    8    3    -12.36     -0.20
   13    9    3     -4.28      5.88
   13   10    3      3.05     13.57
   13   11    3      3.58     -8.26
   13   12    3      7.47     -3.02
   13   13    3     -4.90     -1.39
   13   14    3      6.36     -1.14
   13   15    3     -6.17      4.43
   13    0    4     -0.10     10.22
   13    1    4     11.86    -15.87
   13    2    4     15.02     -6.61
   13    3    4     -0.76     -7.37
   13    4    4     -3.07    -16.05
   13    5    4     -1.68      4.76
   13    6    4    -18.31      4.25
   13    7    4     -2.14     -2.20
   13    8    4      7.37      2.55
   13    9    4      8.87      7.84
   13   10    4      1.18     -5.03
   13   11    4      0.28      3.90
   13   12    4     -1.49      4.22
   13   13    4      1.39     -3.49
   13   14    4      0.11     -2.67
   13   15    4     -3.26      3.16
   13    0    5     -0.07    -29.06
   13    1    5     -7.07     25.35
   13    2    5    -26.32    -14.56
   13    3    5     -2.72     -1.28
   13    4    5      5.36     14.08
   13    5    5      0.24     -2.06
   13    6    5      6.72      1.95
   13    7    5      6.02     -1.40
   13    8    5     -2.60     -7.84
   13    9    5     -2.50    -10.90
   13   10    5     -0.95     -7.11
   13   11    5     -7.42      6.58
   13   12    5      4.94      1.86
   13   13    5      4.75      1.12
   13   14    5     -2.34      3.56
   13   15    5      0.16     -3.15
   13    0    6     -0.34      6.44
   13    1    6    -21.79    -15.61
   13    2    6      2.42     11.69
   13    3    6      8.31     18.06
   13    4    6     -8.24     -3.98
   13    5    6     14.80      6.17
   13    6    6     -0.79     -6.54
   13    7    6     -6.88    -15.11
   13    8    6     -5.70     -6.52
   13    9    6     -6.25      1.45
   13   10    6      1.34      7.19
   13   11    6      2.72      1.63
   13   12    6      8.71     -4.40
   13   13    6     -7.89     -0.36
   13   14    6      3.85     -0.66
   13    0    7      0.57     13.13
   13    1    7     21.86     -9.00
   13    2    7      6.18     -3.40
   13    3    7      0.23     -3.25
   13    4    7     -5.33     -3.06
   13    5    7     -5.53     -3.32
   13    6    7     -3.38      1.08
   13    7    7    -10.30     -3.55
   13    8    7     -0.82     -3.00
   13    9    7      3.63      1.07
   13   10    7      1.59      2.07
   13   11    7      4.07      0.32
   13   12    7      0.11      4.24
   13   13    7      2.12     -0.30
   13   14    7     -0.26     -2.27
   13    0    8     -0.45    -18.60
   13    1    8     -2.68      2.28
   13    2    8     -6.36    -11.28
   13    3    8     -2.60     -1.12
   13    4    8     -1.24     11.58
   13    5    8      0.63     -8.18
   13    6    8      3.00     -0.79
   13    7    8      5.77     -3.44
   13    8    8      6.55      0.25
   13    9    8     -1.47     -0.83
   13   10    8     -4.36    -12.20
   13   11    8     -4.89     -1.81
   13   12    8     -7.62      1.76
   13   13    8      2.66      5.73
   13   14    8      4.49     -3.18
   13    0    9     -0.58      2.40
   13    1    9    -11.63      5.68
   13    2    9      0.63      5.43
   13    3    9      8.32     -1.81
   13    4    9      5.51      6.38
   13    5    9      5.02     -0.83
   13    6    9     -4.19      5.85
   13    7    9      4.09      0.55
   13    8    9     -1.21     -7.41
   13    9    9     -1.48     -4.74
   13   10    9     -3.94      1.97
   13   11    9     -4.92      6.92
   13   12    9      6.08     -0.28
   13   13    9     -8.11      0.10
   13   14    9      1.06     -0.12
   13    0   10      0.01      3.77
   13    1   10      8.80     -7.44
   13    2   10     -3.59      4.30
   13    3   10     -1.73      4.48
   13    4   10     -7.74     -0.57
   13    5   10      8.09      6.86
   13    6   10     11.42     -7.12
   13    7   10     -1.90      0.15
   13    8   10      4.17    -10.03
   13    9   10      1.34      3.81
   13   10   10     -1.07     -0.19
   13   11   10     -0.81     -3.49
   13   12   10      1.84      4.47
   13   13   10      7.16      0.75
   13    0   11      0.65     -8.00
   13    1   11      7.05     -2.90
   13    2   11     -4.22     -3.45
   13    3   11      2.45     -9.75
   13    4   11      9.34     11.31
   13    5   11    -12.13      8.05
   13    6   11      0.03      3.41
   13    7   11      0.69     -5.30
   13    8   11      0.62     -1.77
   13    9   11      3.17     -6.29
   13   10   11      5.41     -2.41
   13   11   11     -0.27     -2.53
   13   12   11     -6.96     -3.95
   13   13   11      1.08      5.21
   13    0   12     -0.01     10.61
   13    1   12      0.70      1.29
   13    2   12      1.17    -10.52
   13    3   12     -4.33     -2.54
   13    4   12     -9.24     -3.17
   13    5   12      1.89     -2.75
   13    6   12      4.83     15.26
   13    7   12      6.55     -6.14
   13    8   12     -5.70     11.87
   13    9   12      5.59     -0.55
   13   10   12     -1.78     -6.10
   13   11   12     -2.21     -3.07
   13   12   12     -0.20     -1.17
   13    0   13     -0.43     -3.99
   13    1   13      0.56     -2.86
   13    2   13     -4.14      3.95
   13    3   13     -9.54     13.04
   13    4   13     -2.69      3.42
   13    5   13      0.28     -2.77
   13    6   13     -1.61    -10.26
   13    7   13     12.35      8.98
   13    8   13      4.44      0.33
   13    9   13     -4.07      5.57
   13   10   13      5.34      2.20
   13   11   13     -3.71      1.64
   13   12   13     -0.72     -2.33
   13    0   14      0.04      5.00
   13    1   14      3.34      0.30
   13    2   14      1.88      7.82
   13    3   14     15.39    -28.30
   13    4   14     -3.53     -7.71
   13    5   14    -10.29      2.64
   13    6   14     -0.89      5.16
   13    7   14    -14.64      3.42
   13    8   14      1.98      0.18
   13    9   14     -4.07     -0.41
   13   10   14      1.75     -4.31
   13   11   14      1.86      0.88
   13    0   15      0.93      8.33
   13    1   15     -0.58      0.30
   13    2   15      0.13     -5.12
   13    3   15      7.18      8.11
   13    4   15      4.44     -0.91
   13    5   15      3.25      2.08
   13    6   15     -9.81      7.96
   13    7   15      4.49    -12.42
   13    8   15      5.22      3.64
   13    9   15     -2.73      5.98
   13   10   15     -4.20      1.94
   13    0   16     -0.77      2.15
   13    1   16      1.69      4.49
   13    2   16      8.67      0.62
   13    3   16     -4.14     -0.03
   13    4   16      6.87     -7.94
   13    5   16      7.40      0.79
   13    6   16     16.48     -3.92
   13    7   16      6.71     -2.51
   13    8   16     -4.71      5.99
   13    9   16     -1.69      3.74
   13   10   16      4.44     -7.17
   13    0   17      0.08      3.43
   13    1   17      1.23     -2.53
   13    2   17      6.17      3.76
   13    3   17     -2.78     -1.45
   13    4   17     -6.25      4.05
   13    5   17     -0.92     -5.56
   13    6   17      8.11      1.34
   13    7   17     -4.10      1.06
   13    8   17     -1.88     -2.15
   13    9   17     -1.87     -4.12
   13    0   18      0.57      1.11
   13    1   18     -2.81      4.27
   13    2   18     -1.36      0.59
   13    3   18      2.49     -1.65
   13    4   18     -3.67      1.13
   13    5   18     -1.32      7.25
   13    6   18     -8.20      3.29
   13    7   18     -6.15      9.69
   13    8   18      7.30      1.55
   13    0   19      0.61      7.42
   13    1   19     -9.29     11.23
   13    2   19      3.39      2.85
   13    3   19     12.91      5.63
   13    4   19      3.59     -6.10
   13    5   19      0.91      9.68
   13    6   19      5.88      4.82
   13    0   20     -0.47      2.13
   13    1   20      3.65     -7.14
   13    2   20      2.21     -1.06
   13    3   20     -2.01      2.80
   13    4   20     -9.69     -5.11
   13    0   21      0.54      1.01
   14    0    0    -49.62      1.94
   14    1    0     -2.50      0.75
   14    2    0     -2.60     -2.01
   14    3    0     -4.33      0.95
   14    4    0    -18.79      1.44
   14    5    0      2.39     -0.41
   14    6    0    -25.47     -0.07
   14    7    0     -6.01      0.19
   14    8    0     -0.55      0.78
   14    9    0     -4.91      0.26
   14   10    0      3.26     -0.64
   14   11    0      1.96     -0.06
   14   12    0     -2.09     -0.15
   14   13    0     -2.89     -0.17
   14   14    0     -2.93     -0.26
   14   15    0      2.19     -0.29
   14    0    1     46.23      1.28
   14    1    1     -3.30      3.42
   14    2    1     11.95      5.64
   14    3    1     -4.24     -0.30
   14    4    1      3.15     -4.92
   14    5    1     -7.02     23.21
   14    6    1     16.09      3.58
   14    7    1      6.10      4.72
   14    8    1     -6.55      4.15
   14    9    1      3.89     -4.06
   14   10    1     -1.45     -3.14
   14   11    1    -11.42      1.60
   14   12    1      8.38     -3.59
   14   13    1     -3.53      4.41
   14   14    1     -1.53     -0.79
   14   15    1     -0.85      2.80
   14    0    2     -5.50     -6.73
   14    1    2     -9.04     -4.88
   14    2    2      8.12     -0.35
   14    3    2     -4.18     25.10
   14    4    2     13.87      6.01
   14    5    2      7.21    -16.24
   14    6    2     -9.50     -4.02
   14    7    2     -3.01     -8.92
   14    8    2      9.11     -6.13
   14    9    2     -0.68     -0.77
   14   10    2     -0.24      1.63
   14   11    2     -1.46     -4.59
   14   12    2      2.99     -3.26
   14   13    2      3.23      3.85
   14   14    2      4.01     -2.24
   14   15    2     -0.57     -2.35
   14    0    3     18.09     14.10
   14    1    3      3.90     22.78
   14    2    3      1.14    -12.83
   14    3    3      3.13    -23.34
   14    4    3     -0.80    -13.23
   14    5    3      3.41     -1.74
   14    6    3     -0.62      0.76
   14    7    3     -3.02     -4.89
   14    8    3     -3.01      5.05
   14    9    3      2.60     -2.72
   14   10    3      7.25     -0.68
   14   11    3     -0.76      3.33
   14   12    3      0.99     -3.82
   14   13    3     -0.06     -5.59
   14   14    3     -6.84     -0.09
   14   15    3      3.06     -1.40
   14    0    4     -9.00     -6.03
   14    1    4      2.32     -5.79
   14    2    4      6.61    -16.64
   14    3    4      7.62     23.10
   14    4    4    -13.21     -4.72
   14    5    4     -1.47     -0.16
   14    6    4     -3.76      1.18
   14    7    4      5.36      1.50
   14    8    4      4.17     -1.14
   14    9    4     -3.09      6.68
   14   10    4      1.65      1.65
   14   11    4     -1.87     -1.86
   14   12    4      2.73     -5.33
   14   13    4     -3.02      5.85
   14   14    4     -4.54     -3.35
   14   15    4     -3.24     -1.42
   14    0    5    -22.11     -0.94
   14    1    5      6.95     16.64
   14    2    5     -0.14     16.81
   14    3    5     -0.76     -5.17
   14    4    5      0.64     -0.43
   14    5    5     -4.47      2.94
   14    6    5     -3.05     -5.54
   14    7    5     -6.83     -6.11
   14    8    5     -7.03      1.05
   14    9    5      2.93     -6.81
   14   10    5      4.34     -7.84
   14   11    5      1.90      1.84
   14   12    5      6.12     -4.62
   14   13    5      2.81     -0.01
   14   14    5      0.55     -2.23
   14    0    6     10.67      3.33
   14    1    6     15.46      3.33
   14    2    6    -12.87      2.43
   14    3    6     21.73     19.41
   14    4    6      4.64      3.95
   14    5    6      3.80     -5.72
   14    6    6      5.40     -0.58
   14    7    6     -3.91     -9.73
   14    8    6     -1.21     -2.13
   14    9    6     -2.51      1.72
   14   10    6      0.04      2.42
   14   11    6      5.01      3.01
   14   12    6      0.11     -1.35
   14   13    6      0.51      1.21
   14   14    6     -0.99     -2.66
   14    0    7     -5.91      0.42
   14    1    7    -10.40     -7.42
   14    2    7     -2.86     -3.66
   14    3    7      8.52     -6.29
   14    4    7      2.32      3.29
   14    5    7      6.28     -6.17
   14    6    7      2.42     -3.82
   14    7    7     -4.51     -2.39
   14    8    7      3.20      0.48
   14    9    7      1.09     -4.14
   14   10    7      0.09      2.78
   14   11    7      1.21      4.54
   14   12    7     -0.30     -2.49
   14   13    7      2.86      2.82
   14   14    7     -0.59     -1.11
   14    0    8     -4.75     -0.81
   14    1    8      4.90     -3.72
   14    2    8      0.40     18.48
   14    3    8     -3.13     -5.75
   14    4    8     -0.18      3.21
   14    5    8     -2.43     -4.48
   14    6    8      5.07     -7.78
   14    7    8     -1.49     -2.05
   14    8    8     -3.90     -8.29
   14    9    8      5.00     -3.52
   14   10    8     -1.59     -0.29
   14   11    8      1.51     -0.36
   14   12    8      4.34      4.30
   14   13    8     -1.25     -1.83
   14   14    8      1.02     -5.50
   14    0    9     -0.32     -0.56
   14    1    9      3.52     -2.50
   14    2    9      0.53      5.18
   14    3    9     -3.78     -5.99
   14    4    9     -1.46      4.79
   14    5    9      3.09      2.25
   14    6    9     -1.12     -2.62
   14    7    9      4.06     -3.56
   14    8    9     12.28     -4.03
   14    9    9     -8.07     -2.06
   14   10    9      3.90      0.25
   14   11    9      5.54      0.25
   14   12    9     -6.68      2.83
   14   13    9      3.80      1.57
   14    0   10      1.03     -1.54
   14    1   10      1.68      2.58
   14    2   10      1.91      4.13
   14    3   10     -4.01      4.08
   14    4   10      6.35      8.31
   14    5   10      1.60      1.81
   14    6   10      7.70    -10.37
   14    7   10      1.66      1.54
   14    8   10     -4.14      1.14
   14    9   10      6.09    -10.89
   14   10   10     -2.77      2.46
   14   11   10     -3.94      4.05
   14   12   10     -0.88     -4.75
   14   13   10      0.76      7.89
   14    0   11      7.71      2.40
   14    1   11    -13.72     -5.01
   14    2   11     -2.79     -1.29
   14    3   11     -3.22      3.20
   14    4   11      7.59      5.36
   14    5   11     -0.47      3.81
   14    6   11      4.44     -1.05
   14    7   11      8.92     -1.33
   14    8   11      5.36     -4.20
   14    9   11     -0.13      9.62
   14   10   11     -0.84     -0.86
   14   11   11     -4.41     -0.14
   14   12   11      5.02      3.45
   14    0   12     -0.68     -0.73
   14    1   12      1.12     -7.26
   14    2   12     -5.03     -7.00
   14    3   12     -4.21      0.14
   14    4   12      5.48     -0.35
   14    5   12      5.59      2.66
   14    6   12      9.11     -5.65
   14    7   12     -1.87      0.51
   14    8   12     -0.64      4.07
   14    9   12     -0.69     -5.11
   14   10   12     -1.48     -0.67
   14   11   12      2.05     -1.87
   14   12   12     -9.73      2.15
   14    0   13      0.63      4.21
   14    1   13      6.23      1.97
   14    2   13      3.19      0.39
   14    3   13     -8.54     -1.66
   14    4   13     -1.84     -8.25
   14    5   13     -2.62     -3.22
   14    6   13     -4.28      9.76
   14    7   13      6.21      1.52
   14    8   13     10.70      6.10
   14    9   13     -2.55     -5.24
   14   10   13     -8.36     -7.94
   14   11   13     -3.98     -6.60
   14    0   14      7.38    -15.09
   14    1   14     -1.09     -6.86
   14    2   14     -1.46     -2.75
   14    3   14     -0.04      1.93
   14    4   14     -8.87      7.53
   14    5   14     -1.73      8.45
   14    6   14      1.89     -1.24
   14    7   14      0.91     -2.31
   14    8   14     -4.07     -5.67
   14    9   14     -2.61      1.39
   14   10   14      3.66      2.19
   14   11   14      3.70      2.96
   14    0   15      3.21     20.33
   14    1   15     13.13    -20.06
   14    2   15      0.39      2.95
   14    3   15      9.01     -4.44
   14    4   15     -1.22      0.80
   14    5   15      2.61      7.81
   14    6   15     16.28     -0.92
   14    7   15    -10.98     11.96
   14    8   15      3.32      0.17
   14    9   15      1.83      4.01
   14   10   15      2.83     -1.47
   14    0   16      8.22     -7.74
   14    1   16     -4.42      5.00
   14    2   16      0.32     -5.11
   14    3   16     -0.64      0.88
   14    4   16      7.18     -6.60
   14    5   16     -4.67     -3.11
   14    6   16     -6.51      2.48
   14    7   16     -1.38      1.46
   14    8   16      3.74     -1.29
   14    9   16     -1.56      0.75
   14    0   17      7.07     -2.03
   14    1   17      2.61      1.38
   14    2   17      5.43     11.90
   14    3   17     -7.23     -4.73
   14    4   17     -1.63     -1.11
   14    5   17     -8.73     -4.20
   14    6   17     -2.20     -6.22
   14    7   17     -2.55      1.63
   14    8   17     -9.12     -6.31
   14    0   18      4.02      1.26
   14    1   18      4.05     -3.65
   14    2   18      2.38      3.74
   14    3   18      1.37     -1.56
   14    4   18     -4.88      1.44
   14    5   18     -4.97      6.25
   14    6   18      2.69      1.49
   14    7   18     -0.51     -2.61
   14    0   19      1.40      1.89
   14    1   19     -5.41      1.55
   14    2   19      1.40     -5.86
   14    3   19      1.65     -2.09
   14    4   19      0.63     -2.95
   14    5   19      7.92     -3.80
   14    6   19      2.29     -1.30
   14    0   20      1.51     -2.05
   14    1   20      2.22      1.67
   14    2   20     -1.58     -3.63
   14    3   20     -1.26      0.47
   15    1    0     -8.30      1.48
   15    2    0    -10.21      1.46
   15    3    0     -6.80     -0.35
   15    4    0    -10.71     -0.94
   15    5    0      5.47      0.32
   15    6    0     -0.53      1.11
   15    7    0      1.21      0.35
   15    8    0     -3.50     -0.97
   15    9    0      1.28     -0.36
   15   10    0     -8.32      0.54
   15   11    0     -4.66     -1.70
   15   12    0      2.84      0.18
   15   13    0     -5.38      0.33
   15   14    0      5.04      0.39
   15   15    0      6.20      0.04
   15    0    1     -1.96    -13.05
   15    1    1      1.54    -11.86
   15    2    1     -2.15      6.24
   15    3    1     11.52    -21.71
   15    4    1     13.09     -0.66
   15    5    1      7.64      6.15
   15    6    1    -13.78      2.27
   15    7    1      8.68     12.63
   15    8    1      3.25     -0.84
   15    9    1     -3.15     -4.53
   15   10    1      3.12      3.85
   15   11    1      0.04      3.36
   15   12    1     -4.02     -0.10
   15   13    1      3.65     -7.42
   15   14    1     -2.63      1.84
   15   15    1     -5.25     -0.11
   15    0    2      2.02      0.65
   15    1    2    -12.77      9.16
   15    2    2    -10.11    -10.16
   15    3    2     -2.25      6.02
   15    4    2    -22.58      1.90
   15    5    2     -6.46     -7.75
   15    6    2     11.36      7.67
   15    7    2      2.87     -6.00
   15    8    2      0.87      3.47
   15    9    2      4.89     -3.49
   15   10    2     -4.10     -2.61
   15   11    2      1.34     -1.62
   15   12    2      0.31      0.13
   15   13    2      4.91      1.44
   15   14    2     -2.62     -3.54
   15    0    3      1.16    -13.08
   15    1    3      2.82     -8.55
   15    2    3      2.60      2.94
   15    3    3    -12.15     14.21
   15    4    3      3.77     12.74
   15    5    3      6.98     -5.20
   15    6    3    -10.02      9.09
   15    7    3     -2.15    -10.48
   15    8    3     -2.23      1.89
   15    9    3     -6.00      7.87
   15   10    3     -0.73    -10.95
   15   11    3     -1.00     -0.49
   15   12    3     -1.57      0.21
   15   13    3      3.08      0.34
   15   14    3     -0.69      2.21
   15    0    4      0.32    -13.00
   15    1    4     -0.34      4.62
   15    2    4      5.34      7.36
   15    3    4      8.80    -15.63
   15    4    4     11.68     13.53
   15    5    4     -8.39      5.76
   15    6    4     -5.81     -5.20
   15    7    4     -0.22      6.33
   15    8    4     -1.40     -9.27
   15    9    4     -1.50     -1.26
   15   10    4      6.19      6.80
   15   11    4      1.19     -0.13
   15   12    4      3.73     -2.03
   15   13    4     -2.45     -3.56
   15   14    4     -2.64      4.58
   15    0    5     -0.86     12.62
   15    1    5     14.40     -7.86
   15    2    5     -8.50     -1.17
   15    3    5     -6.81     -1.62
   15    4    5     -7.76     -8.91
   15    5    5     -4.92     -2.58
   15    6    5     -2.39      5.66
   15    7    5     -3.54     -2.64
   15    8    5      4.21     -2.23
   15    9    5      8.59      3.63
   15   10    5      2.55     -0.86
   15   11    5      9.72      3.73
   15   12    5      0.88      2.06
   15   13    5     -0.25     -6.55
   15   14    5     -0.04     -5.05
   15    0    6      2.53    -15.03
   15    1    6     11.52     22.35
   15    2    6     -0.48     -4.09
   15    3    6     -6.51      5.78
   15    4    6      0.33     -1.39
   15    5    6    -15.89     -7.58
   15    6    6      4.79      1.99
   15    7    6     -0.61     -4.60
   15    8    6     -6.20      4.94
   15    9    6      7.06     -1.32
   15   10    6     -3.28     -3.77
   15   11    6     -0.68      9.93
   15   12    6     -1.13      5.05
   15   13    6      6.09     -2.04
   15   14    6     -5.54      0.57
   15    0    7     -2.73     14.74
   15    1    7    -17.32    -10.70
   15    2    7     -3.62      2.39
   15    3    7      4.16      4.31
   15    4    7      2.72     -3.91
   15    5    7     -1.66     -2.89
   15    6    7      2.17     -3.08
   15    7    7      3.07     -7.16
   15    8    7     -7.70     -2.12
   15    9    7     -2.59     12.15
   15   10    7     -0.19     -0.41
   15   11    7     -1.16      0.47
   15   12    7     -0.69      3.01
   15   13    7     -2.59     -0.04
   15   14    7      4.63      0.52
   15    0    8      0.37     24.73
   15    1    8      8.08     -2.81
   15    2    8      1.74      9.19
   15    3    8      1.13     -0.04
   15    4    8      0.95     -4.47
   15    5    8      1.98      3.90
   15    6    8    -10.62     -9.60
   15    7    8      0.02     -1.92
   15    8    8      4.77      1.24
   15    9    8     -2.24     -0.03
   15   10    8     -0.91     12.29
   15   11    8      3.17      3.14
   15   12    8      2.57     -2.38
   15   13    8     -2.60     -4.88
   15    0    9      1.39      3.24
   15    1    9      4.45      3.50
   15    2    9     -7.85     -3.71
   15    3    9     -1.12     -5.31
   15    4    9     -1.24     -0.49
   15    5    9      0.29      1.25
   15    6    9     11.04     -2.97
   15    7    9     -6.50     -1.30
   15    8    9     -3.81     -0.56
   15    9    9      8.59     -2.31
   15   10    9     -7.79      1.39
   15   11    9      0.02      1.96
   15   12    9     -0.81      1.50
   15   13    9      5.13     -1.48
   15    0   10     -0.43     -1.58
   15    1   10     -4.61      3.71
   15    2   10      3.63      2.04
   15    3   10     -5.12     -7.43
   15    4   10      5.96     -1.78
   15    5   10     -0.05     -9.13
   15    6   10     -4.16      6.33
   15    7   10      9.82     -8.78
   15    8   10     -2.02      4.29
   15    9   10    -11.57      3.71
   15   10   10     -1.67     -6.07
   15   11   10     -6.11      0.19
   15   12   10     -2.48      2.78
   15   13   10      2.80      2.79
   15    0   11     -0.46      2.05
   15    1   11     -8.67     -6.27
   15    2   11      0.81      4.73
   15    3   11      2.82      9.72
   15    4   11     -8.02     -0.03
   15    5   11      3.83     -1.87
   15    6   11      5.18    -10.03
   15    7   11      1.12     -3.58
   15    8   11      0.70     -0.59
   15    9   11     -3.10     -1.07
   15   10   11     -2.35      6.13
   15   11   11      0.42     -1.65
   15   12   11      2.31     -1.50
   15    0   12      0.31     10.84
   15    1   12     -0.60      3.57
   15    2   12      3.76     -5.08
   15    3   12      0.73      3.36
   15    4   12     11.15      2.86
   15    5   12     -3.34      2.33
   15    6   12     -1.48      2.90
   15    7   12     -4.21      3.88
   15    8   12     -4.88     -5.52
   15    9   12      1.25      0.38
   15   10   12     -1.40     -4.07
   15   11   12     -1.42      0.92
   15   12   12      2.36      0.16
   15    0   13      0.77     -5.65
   15    1   13      4.51      1.10
   15    2   13      4.05     -2.31
   15    3   13    -11.96    -17.41
   15    4   13      4.55      2.70
   15    5   13      4.43      1.54
   15    6   13      1.74      4.49
   15    7   13      1.06     -1.28
   15    8   13     -0.27     -2.36
   15    9   13     -1.64     -5.45
   15   10   13     -1.05     -3.49
   15   11   13      0.73      0.75
   15    0   14     -0.40     -6.69
   15    1   14     -4.75      3.04
   15    2   14     -2.03      2.56
   15    3   14     -5.26     30.34
   15    4   14      0.05      2.22
   15    5   14     -1.58     -4.38
   15    6   14      5.01     -6.02
   15    7   14      8.44    -13.20
   15    8   14      4.54     -2.08
   15    9   14      3.51      3.81
   15   10   14     -1.27      4.87
   15    0   15     -0.91      7.02
   15    1   15      7.80      4.48
   15    2   15      2.59     -3.58
   15    3   15     -6.78     -2.04
   15    4   15     -2.40     -4.16
   15    5   15     -5.16      2.14
   15    6   15     -0.56      0.30
   15    7   15      0.49      6.77
   15    8   15     -5.05      2.43
   15    9   15     -0.01    -11.27
   15   10   15      3.35     -1.29
   15    0   16      0.18     -4.80
   15    1   16     -1.13     -3.49
   15    2   16    -10.94     -7.16
   15    3   16      2.03     -9.15
   15    4   16     -9.35      2.69
   15    5   16      3.41      9.86
   15    6   16     -0.59     -2.00
   15    7   16     -4.29      3.07
   15    8   16      2.39     -4.36
   15    9   16      2.54     -1.51
   15    0   17     -0.34      9.39
   15    1   17     -1.76      3.98
   15    2   17     -8.09     -6.13
   15    3   17     -3.51      6.66
   15    4   17      5.42    -19.67
   15    5   17      2.85     -4.10
   15    6   17      0.48      0.16
   15    7   17      2.96      1.12
   15    8   17     -0.78      9.82
   15    0   18     -0.79     -7.44
   15    1   18      4.84     -1.90
   15    2   18      7.87      3.30
   15    3   18     -1.18     -3.44
   15    4   18      0.53      3.57
   15    5   18      0.38     -3.05
   15    6   18     -2.05     -0.73
   15    7   18      9.56     -0.89
   15    0   19     -0.78     -1.43
   15    1   19     -2.51     -7.34
   15    2   19     -0.43     -3.25
   15    3   19     11.75    -11.50
   15    4   19     -9.38      0.28
   15    5   19      8.09      1.70
   15    0   20      0.84     11.60
   15    1   20     -1.36      1.52
   15    2   20     -1.22     -7.74
   16    0    0     19.35      3.53
   16    1    0    -15.37      1.65
   16    2    0     32.13      1.23
   16    3    0      8.39      0.14
   16    4    0     -6.59      1.12
   16    5    0     13.25     -0.56
   16    6    0      0.33     -0.09
   16    7    0     -4.98      0.43
   16    8    0     15.22     -0.11
   16    9    0      3.85     -0.38
   16   10    0     -3.46      0.54
   16   11    0     -1.23      0.44
   16   12    0     11.42     -0.37
   16   13    0     -0.45      0.25
   16   14    0      0.42     -0.19
   16    0    1    -18.21     -1.38
   16    1    1     15.85    -11.93
   16    2    1    -19.31      1.44
   16    3    1      4.12     -0.67
   16    4    1     -8.56     -3.22
   16    5    1      2.53     10.45
   16    6    1      2.44      0.40
   16    7    1      4.10    -17.02
   16    8    1     -1.44      0.87
   16    9    1     -1.47     -9.03
   16   10    1     -6.62     -2.65
   16   11    1      1.90     -2.18
   16   12    1     -0.15      4.14
   16   13    1      2.04     -1.70
   16   14    1      5.45      3.52
   16    0    2     -4.85      3.77
   16    1    2     12.93      3.33
   16    2    2    -10.38     -3.66
   16    3    2     -1.39      6.86
   16    4    2     12.85      5.90
   16    5    2     -5.59     -0.30
   16    6    2     -8.30     -1.40
   16    7    2      3.59     -4.19
   16    8    2     -8.99     -2.63
   16    9    2      6.85      4.57
   16   10    2      7.55      2.28
   16   11    2     -5.10      5.70
   16   12    2     -5.95      0.08
   16   13    2     -4.50      5.46
   16   14    2      1.03      0.28
   16    0    3      1.79     -3.67
   16    1    3     -4.80      0.03
   16    2    3      7.07     18.45
   16    3    3      2.43     -7.79
   16    4    3    -12.91      6.62
   16    5    3      0.13    -16.27
   16    6    3    -10.50      4.16
   16    7    3     -5.65     24.79
   16    8    3      8.71     -0.39
   16    9    3     -1.68     -8.36
   16   10    3      1.80      3.53
   16   11    3     -2.19     -3.96
   16   12    3      1.50     -1.27
   16   13    3     -3.63     10.54
   16   14    3     -1.97     -0.91
   16    0    4      9.94      4.79
   16    1    4     -6.14    -13.20
   16    2    4      0.24      8.01
   16    3    4     -4.50     -0.70
   16    4    4    -18.34      7.76
   16    5    4      3.02     -0.13
   16    6    4     11.32      4.11
   16    7    4      1.73     -4.87
   16    8    4     10.52      0.48
   16    9    4      2.35     -3.15
   16   10    4     -3.39      3.78
   16   11    4      3.50     -0.77
   16   12    4     -2.28      2.13
   16   13    4      0.28     -2.10
   16   14    4     -3.82      1.21
   16    0    5    -20.69     -0.19
   16    1    5     -6.79      6.58
   16    2    5     -3.70      3.13
   16    3    5      1.51     -2.38
   16    4    5     19.49      1.82
   16    5    5      5.91      1.07
   16    6    5     -3.58     -7.31
   16    7    5      5.88     -5.27
   16    8    5      4.30      0.32
   16    9    5     -0.54      7.85
   16   10    5      2.76      3.68
   16   11    5     -0.56      4.07
   16   12    5     -4.09     -0.29
   16   13    5     -6.11     -1.47
   16   14    5     -2.82      1.37
   16    0    6      9.64     -2.49
   16    1    6      2.17      3.02
   16    2    6      4.31     -3.12
   16    3    6     -9.74    -15.88
   16    4    6     -1.93     -1.01
   16    5    6    -13.85    -10.11
   16    6    6     -0.40      0.14
   16    7    6      0.77      1.06
   16    8    6     -6.78      1.32
   16    9    6      0.01      6.02
   16   10    6      6.34     -0.43
   16   11    6     -3.02     -3.03
   16   12    6      3.26     -0.55
   16   13    6     -5.35     -3.67
   16   14    6     -4.19     -1.62
   16    0    7      2.97      1.31
   16    1    7     -8.75    -13.06
   16    2    7     -0.72      1.54
   16    3    7     -7.59     14.73
   16    4    7      4.69      0.74
   16    5    7      2.83     -4.81
   16    6    7     -5.55     -1.42
   16    7    7     -6.22     11.60
   16    8    7     -1.31      1.20
   16    9    7      3.66      1.26
   16   10    7      0.57      5.55
   16   11    7      0.80     -2.67
   16   12    7      1.18     -1.32
   16   13    7     -3.05     -2.50
   16    0    8     -5.79      0.04
   16    1    8     -4.55      1.86
   16    2    8     -2.66     -1.70
   16    3    8      4.40     -1.13
   16    4    8     -7.54     -5.06
   16    5    8      1.69      1.05
   16    6    8      5.16      0.17
   16    7    8      2.63      8.09
   16    8    8      7.16      5.01
   16    9    8     -8.14     -0.28
   16   10    8     -7.61      2.52
   16   11    8      5.20      4.64
   16   12    8      4.15     -4.27
   16   13    8     -3.01      1.37
   16    0    9      0.21     -0.29
   16    1    9      1.25      6.78
   16    2    9      1.20     -0.58
   16    3    9      1.62     -0.66
   16    4    9      5.62      1.21
   16    5    9     -0.39      2.25
   16    6    9     -4.21     -8.80
   16    7    9     -0.88     -6.88
   16    8    9    -11.55      0.82
   16    9    9      2.63      1.85
   16   10    9      3.40      2.78
   16   11    9     -3.75      2.68
   16   12    9      1.51      0.15
   16   13    9     -2.93     -3.57
   16    0   10      4.00      0.23
   16    1   10     -2.80     -2.53
   16    2   10     -0.54     -1.84
   16    3   10      2.31    -10.69
   16    4   10     -0.14     -3.19
   16    5   10      4.65     -5.58
   16    6   10     -3.55     -3.80
   16    7   10     -3.77      1.15
   16    8   10     -3.13     -3.08
   16    9   10     -4.89      7.25
   16   10   10      2.08      2.35
   16   11   10      3.95     -2.48
   16   12   10      1.57      1.27
   16    0   11     -2.94     -0.15
   16    1   11     10.28     -2.99
   16    2   11      4.15      1.50
   16    3   11      1.66      4.26
   16    4   11     -7.54     -1.96
   16    5   11      2.06     -3.84
   16    6   11      2.61    -10.45
   16    7   11      2.31     -7.91
   16    8   11     -4.10      5.20
   16    9   11     -0.07     -3.36
   16   10   11     -5.07     -0.51
   16   11   11      0.03      4.98
   16   12   11     -2.09     -3.98
   16    0   12      6.29      2.04
   16    1   12     -3.27      4.30
   16    2   12     -6.39     -1.15
   16    3   12     -2.36      4.47
   16    4   12     10.97      4.06
   16    5   12      3.60     -6.11
   16    6   12     -5.67      4.22
   16    7   12      3.13     -0.68
   16    8   12      2.95     -7.42
   16    9   12      0.47     -1.82
   16   10   12      1.39     -3.63
   16   11   12     -3.66     -2.80
   16    0   13      8.17     -9.45
   16    1   13     -9.44     -6.83
   16    2   13     -3.31      2.49
   16    3   13      1.10      1.91
   16    4   13     -0.82      1.39
   16    5   13     12.82      0.78
   16    6   13     11.52     -2.90
   16    7   13     -6.16     -2.13
   16    8   13     -5.16     -0.73
   16    9   13      0.09      2.08
   16   10   13     -2.84      5.56
   16   11   13      7.20      6.77
   16    0   14     -0.09     13.88
   16    1   14     10.32      0.52
   16    2   14      1.95     -2.48
   16    3   14     -1.74     -3.15
   16    4   14      0.43     -2.30
   16    5   14     -3.29      7.88
   16    6   14      5.87      5.13
   16    7   14     13.58     -0.08
   16    8   14     -1.57      2.13
   16    9   14     -0.56     -3.31
   16   10   14     -0.52     -2.56
   16    0   15      3.52    -15.74
   16    1   15     -3.04     18.19
   16    2   15      3.32    -15.40
   16    3   15     -3.67      4.44
   16    4   15      0.60      2.98
   16    5   15      3.49     -4.34
   16    6   15     -5.75     -3.08
   16    7   15     -2.51     -5.27
   16    8   15     -2.32      1.07
   16    9   15     -2.32      0.19
   16    0   16     -1.47      5.55
   16    1   16      7.32    -11.84
   16    2   16     -1.56      3.03
   16    3   16      3.69      2.46
   16    4   16     -0.57     -4.31
   16    5   16      2.71      5.26
   16    6   16      3.91      2.46
   16    7   16     -6.61     -2.44
   16    8   16     -3.99      0.88
   16    0   17     -1.52      1.26
   16    1   17     -1.14     -1.34
   16    2   17     -9.36     -9.11
   16    3   17      3.71      0.70
   16    4   17      6.53      2.83
   16    5   17      7.41      1.39
   16    6   17      0.64     12.70
   16    7   17     -0.10      2.65
   16    0   18      2.47     -2.25
   16    1   18     -3.61      6.34
   16    2   18      2.28      2.74
   16    3   18      4.16      5.35
   16    4   18     -1.99     -3.11
   16    5   18      6.36     -1.70
   16    6   18      2.42      2.23
   16    0   19      3.66     -1.04
   16    1   19     14.09     -0.32
   16    2   19      3.85     -3.81
   16    3   19      6.07     -0.85
   16    4   19     -0.60      2.62
   17    1    0      3.01     -0.27
   17    2    0     -5.47      0.20
   17    3    0      6.17     -0.02
   17    4    0     -8.44     -0.26
   17    5    0     -3.29     -0.26
   17    6    0      0.45      0.18
   17    7    0      3.08     -1.49
   17    8    0      7.76      0.72
   17    9    0      2.41      0.09
   17   10    0      5.60     -1.54
   17   11    0     -5.94      2.37
   17   12    0      3.58     -1.14
   17   13    0      1.58     -0.69
   17   14    0    -17.30     -0.27
   17    0    1      1.74      7.20
   17    1    1      1.13     11.49
   17    2    1     -6.51     -0.22
   17    3    1    -12.21     28.55
   17    4    1     -4.63      1.79
   17    5    1     -0.38     -3.77
   17    6    1      7.05     -1.43
   17    7    1     -1.48    -12.99
   17    8    1     -7.25     -0.93
   17    9    1     -2.05     -1.66
   17   10    1      0.82      1.76
   17   11    1     -4.59     -0.38
   17   12    1      1.79      3.75
   17   13    1      0.86      4.50
   17   14    1     -3.18     -1.27
   17    0    2     -2.05      0.16
   17    1    2     10.04     -5.27
   17    2    2     14.99      3.92
   17    3    2     10.98     -7.55
   17    4    2      7.13     -1.68
   17    5    2      7.57     -6.19
   17    6    2     -6.56     -0.13
   17    7    2     -2.80      7.69
   17    8    2      5.41      1.97
   17    9    2     -3.41      5.67
   17   10    2     -4.10     -0.96
   17   11    2      1.78      6.52
   17   12    2     -2.07      1.92
   17   13    2      4.53     -1.06
   17   14    2      3.43      0.65
   17    0    3     -1.12      5.55
   17    1    3     11.73    -12.15
   17    2    3    -11.63    -15.08
   17    3    3      2.81    -26.90
   17    4    3     -9.28     -7.37
   17    5    3    -10.29     16.79
   17    6    3      5.06     -0.45
   17    7    3     13.18      0.17
   17    8    3      6.97     -1.63
   17    9    3      0.83     -9.77
   17   10    3      6.33     -4.94
   17   11    3      1.88      7.12
   17   12    3     -3.18     -0.63
   17   13    3     -0.30     -4.36
   17   14    3    -10.40     -0.40
   17    0    4      0.80    -11.66
   17    1    4     -1.12     11.04
   17    2    4    -14.80     -0.74
   17    3    4     -6.08     12.15
   17    4    4     -3.06      4.06
   17    5    4      6.50    -12.39
   17    6    4     10.44     -2.08
   17    7    4     -0.39     -6.26
   17    8    4     -2.75      1.89
   17    9    4      1.32      1.90
   17   10    4     -2.64     -0.22
   17   11    4     -6.36     -1.94
   17   12    4     -3.08      1.99
   17   13    4      0.85      5.15
   17   14    4     -5.65      0.34
   17    0    5      2.05     19.32
   17    1    5     -1.15     -1.47
   17    2    5     21.72     -1.95
   17    3    5      4.72     -3.27
   17    4    5      3.32     -6.28
   17    5    5     -1.33      0.10
   17    6    5     -4.19      5.89
   17    7    5     -3.92     -0.09
   17    8    5      2.44     -0.99
   17    9    5     -2.14      3.02
   17   10    5     -2.62      1.44
   17   11    5     -3.32     -1.48
   17   12    5     -1.83      7.21
   17   13    5      0.56     -4.46
   17   14    5     -3.19      3.87
   17    0    6     -5.10      2.22
   17    1    6      8.86    -15.67
   17    2    6     -2.48      2.23
   17    3    6     -6.35     -5.50
   17    4    6      5.74     -0.71
   17    5    6     -3.94     -1.55
   17    6    6     -1.66     -2.26
   17    7    6     10.00      5.30
   17    8    6      3.14      2.63
   17    9    6     -1.77      1.86
   17   10    6      5.36     -5.52
   17   11    6      2.60     -1.65
   17   12    6     -5.65     -3.05
   17   13    6     -4.89     -6.17
   17    0    7      3.65     -6.83
   17    1    7     -1.64     18.18
   17    2    7      3.40     -3.50
   17    3    7     11.58      3.13
   17    4    7      6.46     -5.48
   17    5    7     -4.19     -0.21
   17    6    7     -0.44      4.78
   17    7    7      4.67     -4.15
   17    8    7      4.79      5.47
   17    9    7      3.27     -1.21
   17   10    7      0.61     -0.79
   17   11    7     -2.24      7.35
   17   12    7      3.57     -1.40
   17   13    7      1.52     -4.56
   17    0    8     -0.56     10.12
   17    1    8     -3.56      3.61
   17    2    8     -2.68     -5.03
   17    3    8     -5.63      1.23
   17    4    8      4.83     -7.69
   17    5    8     -2.23      3.38
   17    6    8      7.75     -5.03
   17    7    8      2.18      0.59
   17    8    8     -6.86     -0.54
   17    9    8      0.60      1.65
   17   10    8      2.81      6.99
   17   11    8      0.70      1.90
   17   12    8      2.77     -0.86
   17   13    8      3.54     -2.65
   17    0    9     -0.90     -4.54
   17    1    9      2.76     -1.36
   17    2    9      5.72     -0.86
   17    3    9      1.53      5.88
   17    4    9      4.74     -5.17
   17    5    9     -3.30     -0.26
   17    6    9     -2.61     -2.95
   17    7    9     -7.37     -2.67
   17    8    9      8.50      5.00
   17    9    9     -1.00      8.56
   17   10    9     -1.80     -0.60
   17   11    9      3.59     -3.33
   17   12    9     -1.24     -3.12
   17    0   10      0.13     -8.75
   17    1   10     -2.54      2.04
   17    2   10      0.39     -2.57
   17    3   10     -0.18      4.58
   17    4   10     -6.62     -5.50
   17    5   10      4.59      5.15
   17    6   10     -0.63      1.20
   17    7   10      1.95      3.99
   17    8   10      0.61      2.73
   17    9   10      0.76     -0.95
   17   10   10      1.29      3.41
   17   11   10      1.92      7.52
   17   12   10      0.35     -3.76
   17    0   11     -0.06      1.76
   17    1   11     -2.75      5.15
   17    2   11      3.14     -0.44
   17    3   11      2.44      2.30
   17    4   11      5.23     -2.49
   17    5   11      1.42     -2.68
   17    6   11     -6.74     -3.43
   17    7   11      4.87      9.26
   17    8   11     -9.49     -0.29
   17    9   11     -5.56      4.52
   17   10   11     -3.49      3.93
   17   11   11     -5.08     -0.73
   17   12   11      2.72      2.18
   17    0   12     -0.10      2.79
   17    1   12      0.76      0.94
   17    2   12      4.36     -3.45
   17    3   12      2.24     -1.80
   17    4   12      4.40     -2.26
   17    5   12     -0.51     -2.73
   17    6   12    -10.53     -3.89
   17    7   12     -5.34     -2.27
   17    8   12      3.80     -1.04
   17    9   12     -0.85      0.58
   17   10   12     -1.70      1.94
   17   11   12      4.86      2.45
   17    0   13     -0.47     -9.93
   17    1   13     -0.49      3.01
   17    2   13     -4.48      6.26
   17    3   13      4.62     14.08
   17    4   13     -2.74      0.12
   17    5   13      2.69      0.16
   17    6   13      1.96      3.88
   17    7   13     -1.27     -4.71
   17    8   13     -7.64     -2.74
   17    9   13     -1.55      0.85
   17   10   13      0.54      0.09
   17    0   14      0.33     -2.95
   17    1   14      2.16      0.71
   17    2   14     -1.07     -6.01
   17    3   14      0.35     -5.70
   17    4   14      1.42      2.12
   17    5   14      8.07     -3.10
   17    6   14     -3.85     -1.71
   17    7   14     -2.65      0.08
   17    8   14     -9.80     -2.42
   17    9   14      0.23     -5.42
   17   10   14     -0.35     -2.09
   17    0   15      0.44     -4.52
   17    1   15      3.77     -2.46
   17    2   15      0.57     -2.69
   17    3   15     -8.52      0.14
   17    4   15      4.99      6.56
   17    5   15     -2.48     -1.50
   17    6   15      0.35     -5.61
   17    7   15      1.30     -3.17
   17    8   15      0.89     -5.21
   17    9   15      6.51      0.62
   17    0   16     -0.95      2.70
   17    1   16     -1.38     -1.64
   17    2   16     -0.21      3.17
   17    3   16     -0.59      9.81
   17    4   16      4.10      4.24
   17    5   16     -4.73     -4.83
   17    6   16      0.14      5.01
   17    7   16     -2.84     -2.98
   17    8   16     -3.04      3.56
   17    0   17     -0.30      5.37
   17    1   17      4.10     -1.95
   17    2   17      0.16      5.15
   17    3   17      1.43     -2.27
   17    4   17     -0.10      3.59
   17    5   17      2.66      7.01
   17    6   17     -2.07      4.75
   17    7   17      0.99     -1.82
   17    0   18      0.35      0.63
   17    1   18      0.73      1.22
   17    2   18     -3.79      0.29
   17    3   18     -1.23     -0.50
   17    4   18      0.00     -2.83
   17    5   18     -1.62     -3.82
   17    0   19      0.36      1.62
   17    1   19     -3.87     -1.50
   17    2   19     -3.32     -5.19
   17    3   19     -5.13      1.71
   18    0    0    -32.85     -0.83
   18    1    0      5.66      0.33
   18    2    0     -9.96     -1.81
   18    3    0      1.67     -0.14
   18    4    0      9.51     -1.41
   18    5    0    -13.07     -0.16
   18    6    0     -5.04     -0.29
   18    7    0      4.16     -0.63
   18    8    0     -6.51     -1.23
   18    9    0      0.15     -0.22
   18   10    0     -3.03     -0.25
   18   11    0      1.90     -0.27
   18   12    0     -2.90      0.20
   18   13    0      2.64      0.30
   18   14    0      9.64      0.00
   18    0    1      9.81      1.15
   18    1    1     -5.97      4.74
   18    2    1     11.35      5.11
   18    3    1     -4.39     -9.05
   18    4    1      6.96      0.37
   18    5    1      4.11      6.99
   18    6    1     -4.12      1.58
   18    7    1     -8.25      2.73
   18    8    1      5.72     -3.08
   18    9    1      0.82      5.44
   18   10    1     -0.09      0.94
   18   11    1      1.24      1.73
   18   12    1     -4.69     -5.15
   18   13    1     -2.14     -0.33
   18   14    1     -0.62     -2.07
   18    0    2      7.54     -4.03
   18    1    2     -4.13    -11.15
   18    2    2     -9.31     -1.51
   18    3    2     -2.61     -5.26
   18    4    2     -3.30      1.77
   18    5    2      2.78     -3.94
   18    6    2     11.99     -0.99
   18    7    2     -0.68      1.45
   18    8    2     -6.25      2.38
   18    9    2     -6.63     -5.72
   18   10    2     -1.21     -0.66
   18   11    2      4.41     -0.80
   18   12    2     -2.35     -0.51
   18   13    2      1.13      0.24
   18   14    2     -3.18      2.04
   18    0    3     -2.01      2.03
   18    1    3     -4.31     -4.06
   18    2    3      2.66     -7.10
   18    3    3     -6.37     14.94
   18    4    3      0.55      2.84
   18    5    3     -3.19      1.25
   18    6    3      3.55     -5.61
   18    7    3      4.72     -4.57
   18    8    3      5.10     -7.94
   18    9    3      7.85      1.07
   18   10    3     -2.27     -0.75
   18   11    3      7.68     -1.72
   18   12    3     -6.86      5.26
   18   13    3     -1.27     -1.01
   18   14    3      9.50      4.34
   18    0    4     -9.41     -1.56
   18    1    4      4.91      5.72
   18    2    4      2.82      4.19
   18    3    4     -1.36     -2.83
   18    4    4     12.54     -4.22
   18    5    4     -3.93      2.17
   18    6    4    -10.90    -10.36
   18    7    4     -0.35      9.93
   18    8    4      0.73      3.53
   18    9    4     -0.64     -1.56
   18   10    4     -1.24     -2.90
   18   11    4     -2.12      4.49
   18   12    4     -3.73      1.47
   18   13    4     -0.32     -4.15
   18    0    5     18.57      0.50
   18    1    5     -9.34     -6.15
   18    2    5      6.85    -11.36
   18    3    5     -5.07     -9.38
   18    4    5     -8.76      5.95
   18    5    5      1.28     -0.93
   18    6    5      4.19      0.90
   18    7    5     -2.57      2.31
   18    8    5     -0.02      0.18
   18    9    5      1.76     -0.17
   18   10    5     -2.95      7.06
   18   11    5      2.23     -4.93
   18   12    5      2.48     -0.43
   18   13    5     -1.62      0.71
   18    0    6     15.44      1.44
   18    1    6    -10.82      1.80
   18    2    6     -9.27      3.77
   18    3    6     -4.18      3.50
   18    4    6      3.81     -4.58
   18    5    6     13.12      2.99
   18    6    6      0.25      2.77
   18    7    6      5.49      0.82
   18    8    6      1.74      1.28
   18    9    6      2.84      6.04
   18   10    6     -0.13      2.46
   18   11    6      0.00     -2.95
   18   12    6     -4.79      1.33
   18   13    6      0.48     -0.66
   18    0    7    -11.12     -3.47
   18    1    7     12.71      2.51
   18    2    7      5.16     -9.00
   18    3    7     -4.18     -0.30
   18    4    7     -3.66      2.25
   18    5    7     -7.13     -8.24
   18    6    7     -1.74      3.07
   18    7    7     10.03      3.35
   18    8    7      0.70     -5.39
   18    9    7     -6.74      3.14
   18   10    7     -0.82      4.25
   18   11    7     -0.33     -3.24
   18   12    7     -2.90      1.24
   18   13    7      0.40      1.77
   18    0    8     -0.69      0.26
   18    1    8     -5.27      5.34
   18    2    8      3.89     -1.07
   18    3    8      0.26      2.24
   18    4    8      2.38      0.35
   18    5    8      2.39      0.24
   18    6    8     -2.97     -1.62
   18    7    8     -7.62     -3.01
   18    8    8     -1.36     10.44
   18    9    8      3.85     -2.84
   18   10    8     -0.83     -2.30
   18   11    8     -1.24      2.99
   18   12    8      0.71     -3.56
   18    0    9      1.83      1.69
   18    1    9      3.22     -2.82
   18    2    9      0.27     -5.84
   18    3    9      3.84      1.06
   18    4    9      0.44     -0.94
   18    5    9     -7.32      0.15
   18    6    9      7.22      1.90
   18    7    9      2.85      4.64
   18    8    9     -2.65      4.30
   18    9    9      1.29      4.25
   18   10    9     -0.43     -0.50
   18   11    9     -2.38     -2.10
   18   12    9      8.51     -1.40
   18    0   10      3.89      0.38
   18    1   10     -2.71      5.12
   18    2   10     -4.97     -0.47
   18    3   10     -0.12      6.66
   18    4   10      0.03      2.25
   18    5   10      3.82      2.93
   18    6   10      6.43      5.40
   18    7   10     -9.87      2.20
   18    8   10     -0.27     -3.47
   18    9   10     -2.97      0.59
   18   10   10      0.29      1.39
   18   11   10      5.13     -4.58
   18   12   10     -5.67      0.72
   18    0   11     -4.83     -3.24
   18    1   11      3.76      5.15
   18    2   11     -6.32      3.48
   18    3   11     -3.66      1.21
   18    4   11      2.80     -5.84
   18    5   11      2.77     -4.14
   18    6   11     -3.89      8.15
   18    7   11     -6.05      0.50
   18    8   11      2.88      5.01
   18    9   11     -4.80      2.56
   18   10   11      2.03      2.85
   18   11   11      4.02      0.56
   18    0   12      1.43     -1.48
   18    1   12      0.73     -1.56
   18    2   12      9.64     -4.96
   18    3   12      2.70     -1.26
   18    4   12    -21.98      7.51
   18    5   12     -5.66      4.99
   18    6   12     -5.42     -9.17
   18    7   12      1.29      3.77
   18    8   12     -3.33     -0.24
   18    9   12      2.14      0.52
   18   10   12     -0.45      9.47
   18   11   12      2.32      7.69
   18    0   13     -1.37     14.35
   18    1   13      5.26      3.70
   18    2   13     -7.91      5.31
   18    3   13      3.75      1.81
   18    4   13      2.27     -3.62
   18    5   13     -5.43     10.28
   18    6   13     -5.99      1.89
   18    7   13      1.22      4.55
   18    8   13      2.40     -1.82
   18    9   13     -4.87     -5.12
   18   10   13      4.03     -3.52
   18    0   14     -9.66    -15.80
   18    1   14      2.14     11.90
   18    2   14     -7.58     -2.65
   18    3   14     -1.52      1.32
   18    4   14      5.64     -3.02
   18    5   14     10.33    -20.33
   18    6   14     -0.60     -0.33
   18    7   14    -13.56      3.63
   18    8   14     -1.08      4.23
   18    9   14     -5.88      6.46
   18    0   15      1.87     11.18
   18    1   15     -7.66     -5.92
   18    2   15     -1.44      1.84
   18    3   15     -6.36     -6.73
   18    4   15     -8.86      3.87
   18    5   15      7.09      3.69
   18    6   15      0.64      5.83
   18    7   15      3.92     -4.11
   18    8   15     -2.16     -1.74
   18    0   16     -0.94     -1.90
   18    1   16     -2.58      5.47
   18    2   16     -2.07     -0.25
   18    3   16     -0.89     -0.45
   18    4   16      2.75      8.07
   18    5   16     -4.42      1.85
   18    6   16     -8.61      3.04
   18    7   16      0.06     -0.21
   18    0   17     -4.19     -1.61
   18    1   17     -0.66      2.50
   18    2   17     -3.08     -6.47
   18    3   17      4.37      4.25
   18    4   17     -1.10     -1.55
   18    5   17     -1.24      1.07
   18    6   17     -6.84     10.37
   18    0   18     -3.65      0.99
   18    1   18      2.35     -2.76
   18    2   18     -0.64     -1.33
   18    3   18     -4.65      0.07
   18    4   18     -0.12     -1.76
   18    0   19     -1.84      0.35
   18    1   19      2.46     -6.07
   19    1    0     -7.03      0.62
   19    2    0      8.48     -0.14
   19    3    0      6.06     -1.33
   19    4    0    -23.54      2.55
   19    5    0     -5.16     -0.24
   19    6    0     15.77     -2.00
   19    7    0     -1.59      1.89
   19    8    0      4.30     -0.32
   19    9    0      0.48      0.11
   19   10    0      5.22      0.29
   19   11    0      3.60     -1.74
   19   12    0     -0.12      0.91
   19   13    0      7.80      0.74
   19    0    1     -3.23     13.43
   19    1    1      5.96    -13.18
   19    2    1      0.60     -1.64
   19    3    1      5.40     12.49
   19    4    1      8.94     -3.15
   19    5    1      4.83     -5.53
   19    6    1     -0.06      9.23
   19    7    1      1.96    -10.31
   19    8    1     -7.05     -1.38
   19    9    1     -3.42     -1.54
   19   10    1      3.21     -5.54
   19   11    1      1.12      5.03
   19   12    1      5.20     -0.33
   19   13    1     -0.42      1.51
   19    0    2      2.10     -1.44
   19    1    2      4.50     10.66
   19    2    2      6.72      4.29
   19    3    2    -11.18     -3.09
   19    4    2      7.72      0.44
   19    5    2     -4.54     -2.34
   19    6    2    -10.89    -10.36
   19    7    2      4.05      2.02
   19    8    2     -5.06      1.44
   19    9    2      0.14      1.45
   19   10    2      5.87     -1.35
   19   11    2     -4.51     -0.99
   19   12    2      6.22      0.09
   19   13    2     -8.44      0.98
   19    0    3      0.96      8.14
   19    1    3     -6.42      5.82
   19    2    3     -4.23      6.90
   19    3    3      2.35     -2.40
   19    4    3     -1.81      3.31
   19    5    3      2.04      6.16
   19    6    3     14.29      1.28
   19    7    3     -3.74      3.07
   19    8    3      6.17      2.32
   19    9    3     -0.77      0.54
   19   10    3     -5.98      4.23
   19   11    3     -7.28      1.03
   19   12    3      3.21      2.07
   19   13    3      3.67      3.69
   19    0    4     -1.65     13.74
   19    1    4     -0.92      1.65
   19    2    4     -0.26     -2.54
   19    3    4      3.09     -1.35
   19    4    4     -6.50     -2.82
   19    5    4     -3.10      6.87
   19    6    4      7.50      3.72
   19    7    4      1.77      0.84
   19    8    4      0.63      0.12
   19    9    4     -0.72     -5.35
   19   10    4     -1.92     -3.27
   19   11    4      5.91      1.64
   19   12    4     -0.56      1.12
   19   13    4     -1.16     -3.68
   19    0    5     -1.25      2.14
   19    1    5     -7.45     -7.44
   19    2    5      3.28     -3.43
   19    3    5      1.05      8.89
   19    4    5     -4.79     -5.47
   19    5    5      1.50     -1.81
   19    6    5     -4.63     -3.27
   19    7    5      7.67      3.10
   19    8    5     -3.16      5.40
   19    9    5      0.70      2.54
   19   10    5      7.22     -8.33
   19   11    5     -1.16      0.37
   19   12    5     -0.94     -6.89
   19   13    5     -2.98      6.76
   19    0    6      8.10      1.67
   19    1    6     -0.79     -0.28
   19    2    6     -6.55      5.52
   19    3    6     -5.98      0.09
   19    4    6      6.84     -0.67
   19    5    6      8.08      3.39
   19    6    6     -4.98      1.92
   19    7    6     -1.98      3.50
   19    8    6      2.02     -1.03
   19    9    6     -3.27     -0.19
   19   10    6     -1.35      3.09
   19   11    6     -3.38     -6.31
   19   12    6      5.59      3.63
   19   13    6      1.59      7.22
   19    0    7     -4.99      0.15
   19    1    7     -6.23      8.18
   19    2    7      5.02      4.62
   19    3    7      0.75     -5.91
   19    4    7    -10.17      5.83
   19    5    7      1.40     -1.24
   19    6    7     -7.95     -4.05
   19    7    7     -0.60      6.02
   19    8    7      1.98      3.53
   19    9    7     -0.73     -7.15
   19   10    7     -5.54      1.42
   19   11    7      0.75     -0.58
   19   12    7     -1.82     -4.76
   19    0    8      1.35     -1.97
   19    1    8     -1.48     -6.92
   19    2    8     -0.27     -7.74
   19    3    8      7.95     -1.67
   19    4    8     -0.98     -1.99
   19    5    8     -0.06      1.39
   19    6    8      0.87     11.15
   19    7    8     -0.02     -3.71
   19    8    8     -5.40      0.53
   19    9    8      2.64      0.53
   19   10    8      4.23     -8.73
   19   11    8     -3.18      1.23
   19   12    8     -0.14     -1.81
   19    0    9      0.51     -4.25
   19    1    9     -3.39     -0.04
   19    2    9     -6.93      5.95
   19    3    9     -8.08     -0.72
   19    4    9     -3.80      1.87
   19    5    9      3.84     -6.73
   19    6    9     -3.89      1.27
   19    7    9      6.35      0.90
   19    8    9      0.12      2.04
   19    9    9     -4.70     -1.55
   19   10    9      5.76      2.17
   19   11    9      2.06     -2.52
   19   12    9      0.53     -3.60
   19    0   10      0.54      1.32
   19    1   10     -0.04     -0.48
   19    2   10      0.52      7.82
   19    3   10      5.71     -3.08
   19    4   10      2.55      1.15
   19    5   10     -5.82      0.17
   19    6   10     -1.84      0.58
   19    7   10     -6.17     -3.15
   19    8   10     -0.33      1.16
   19    9   10      5.41     -2.53
   19   10   10     -1.42     -3.58
   19   11   10      0.74     -2.80
   19    0   11     -0.34     -1.85
   19    1   11      1.76      2.00
   19    2   11      2.36     -3.77
   19    3   11     -0.64     -3.66
   19    4   11      3.15     -1.95
   19    5   11     -0.17     -7.03
   19    6   11     -0.75      6.83
   19    7   11     -5.95      0.49
   19    8   11      5.34      1.14
   19    9   11      3.15      0.54
   19   10   11      6.26     -6.24
   19   11   11      3.47     -0.55
   19    0   12     -0.70     -3.69
   19    1   12     -6.14     -7.49
   19    2   12      1.87      6.52
   19    3   12      1.25     -1.08
   19    4   12      0.02     -0.02
   19    5   12      5.00      1.00
   19    6   12      2.65     -2.46
   19    7   12      3.90      2.71
   19    8   12      0.08      2.11
   19    9   12     -5.40      0.12
   19   10   12      0.16      5.17
   19    0   13     -0.15      9.34
   19    1   13     -2.50      0.10
   19    2   13     -1.76     -3.52
   19    3   13      2.12    -12.17
   19    4   13     10.70      0.43
   19    5   13     -2.30     -0.29
   19    6   13     -1.39     -0.02
   19    7   13     -3.14      0.35
   19    8   13     -7.86     -1.24
   19    9   13      4.00      2.76
   19    0   14      0.04     -2.88
   19    1   14      1.00     -0.83
   19    2   14      2.56     10.75
   19    3   14     -2.29      6.04
   19    4   14      4.72      1.46
   19    5   14      3.19      6.11
   19    6   14      0.68      3.24
   19    7   14     -7.23      0.53
   19    8   14      1.79      1.68
   19    9   14      4.48      0.20
   19    0   15     -0.74     -3.67
   19    1   15     -7.35     -1.20
   19    2   15     -0.86     -1.12
   19    3   15      8.74      6.06
   19    4   15     -0.03      5.12
   19    5   15     -1.94      2.81
   19    6   15      0.52      1.09
   19    7   15     -5.24     -3.38
   19    8   15     -3.11      0.85
   19    0   16      0.73      0.57
   19    1   16      2.35     -0.29
   19    2   16      8.32     -4.27
   19    3   16     -4.88     -1.35
   19    4   16     -1.18      3.81
   19    5   16     -1.55     -1.22
   19    6   16     -3.53      3.40
   19    7   16      3.21      0.65
   19    0   17      0.23     -8.99
   19    1   17     -3.81     -6.81
   19    2   17     -1.26     -0.16
   19    3   17     -2.68     -2.30
   19    4   17      2.19     10.98
   19    5   17     -0.05      0.09
   19    0   18     -0.34      2.81
   19    1   18     -0.27      0.90
   19    2   18     -5.97     -0.34
   19    3   18      3.47      0.51
   20    0    0     11.99     -0.62
   20    1    0    -10.18      0.18
   20    2    0     -1.88      0.26
   20    3    0     -2.73     -0.31
   20    4    0      4.78      0.74
   20    5    0      9.22     -0.03
   20    6    0      0.91      0.47
   20    7    0      4.10      0.84
   20    8    0      6.02      0.16
   20    9    0     -6.30      0.85
   20   10    0     -1.38     -0.19
   20   11    0     -5.52      1.60
   20   12    0     -4.43      0.60
   20   13    0     -3.09      0.02
   20    0    1     -7.62     -0.57
   20    1    1     -6.76      9.05
   20    2    1     -8.76     -7.27
   20    3    1      5.67     -0.10
   20    4    1      4.08      7.44
   20    5    1     -2.34    -12.21
   20    6    1     -2.09     -3.10
   20    7    1     -0.37      3.46
   20    8    1     -4.66     -1.66
   20    9    1     -6.74      1.30
   20   10    1      6.08      5.53
   20   11    1      5.78      2.06
   20   12    1     -2.17      6.06
   20   13    1      3.39      1.93
   20    0    2      4.89      6.95
   20    1    2      1.47      4.82
   20    2    2      7.47      3.50
   20    3    2      2.59      1.51
   20    4    2     -6.80     -4.99
   20    5    2     -2.60      8.04
   20    6    2      0.49      4.32
   20    7    2     -8.07      8.22
   20    8    2      9.70     -1.26
   20    9    2     10.89      1.29
   20   10    2      4.94     -0.28
   20   11    2      5.34     -0.96
   20   12    2      1.48      0.04
   20   13    2     -2.39     -3.68
   20    0    3    -11.45     -0.36
   20    1    3     -3.87     -6.18
   20    2    3     -7.36     -2.05
   20    3    3      3.07      1.20
   20    4    3      6.16      0.85
   20    5    3      6.90      7.70
   20    6    3      4.82      0.65
   20    7    3     -1.86    -12.42
   20    8    3     -7.85      3.93
   20    9    3    -11.43      7.15
   20   10    3     -1.99     -2.84
   20   11    3     -3.01      1.78
   20   12    3     -2.79     -4.44
   20   13    3     -1.60     -4.96
   20    0    4      3.12     -0.37
   20    1    4     -1.85      2.59
   20    2    4      0.92      1.30
   20    3    4     -3.48     -3.56
   20    4    4      3.45      2.33
   20    5    4      4.67     -3.63
   20    6    4     -2.38     -3.98
   20    7    4      2.69     -4.06
   20    8    4     -2.33     -0.42
   20    9    4     -5.21      0.13
   20   10    4      2.43      0.49
   20   11    4     -0.74      0.02
   20   12    4     -0.83      3.25
   20   13    4     -0.75      2.47
   20    0    5      9.79      0.34
   20    1    5      3.85      1.73
   20    2    5    -15.23    -12.96
   20    3    5      2.42      2.59
   20    4    5     -7.14      2.08
   20    5    5     -5.17      1.82
   20    6    5     -2.69      4.85
   20    7    5     -1.60      9.11
   20    8    5      7.90     -5.09
   20    9    5      0.43      1.36
   20   10    5     -0.16     -1.91
   20   11    5     -5.68     -2.40
   20   12    5     -5.36      2.31
   20    0    6    -16.59     -0.28
   20    1    6     -9.56     -6.76
   20    2    6      5.01     -2.39
   20    3    6     -3.04      5.53
   20    4    6     -6.95     -2.78
   20    5    6      2.67      2.06
   20    6    6     -1.29      3.48
   20    7    6     -3.62     -0.58
   20    8    6     -0.17     -2.60
   20    9    6     -2.60     -4.41
   20   10    6     -2.27      0.30
   20   11    6     -0.71     -0.60
   20   12    6     -4.98     -4.46
   20    0    7     13.42      5.06
   20    1    7     11.17     12.14
   20    2    7     -1.03      5.15
   20    3    7      5.86    -10.41
   20    4    7      0.71      0.47
   20    5    7      4.50      2.12
   20    6    7      4.77      4.38
   20    7    7     -1.40     -1.10
   20    8    7     -0.45      0.95
   20    9    7      1.88      3.70
   20   10    7      2.15     -9.27
   20   11    7     -0.87      0.13
   20   12    7      3.52     -3.05
   20    0    8      2.85     -0.31
   20    1    8     11.09     -7.54
   20    2    8      0.68    -15.04
   20    3    8      0.70     -2.02
   20    4    8      3.02      4.34
   20    5    8     -0.40     -6.27
   20    6    8     -2.99      0.63
   20    7    8      0.07      1.58
   20    8    8      2.54     -4.55
   20    9    8     -2.67      6.11
   20   10    8      4.10     -1.68
   20   11    8     -2.52     -6.21
   20   12    8     -1.58      0.10
   20    0    9     -5.61     -2.85
   20    1    9     -9.41      2.20
   20    2    9     -4.26      2.34
   20    3    9     -0.83     -2.32
   20    4    9     -3.72      0.02
   20    5    9     -2.30      0.72
   20    6    9     -1.04      5.82
   20    7    9     -4.36      3.47
   20    8    9     -3.07     -1.68
   20    9    9      1.28     -5.61
   20   10    9     -3.84     -3.39
   20   11    9      0.48     -1.78
   20    0   10     -5.59      1.46
   20    1   10      2.16     -5.61
   20    2   10     -2.46      3.56
   20    3   10     -0.32     -0.90
   20    4   10      0.72      0.56
   20    5   10     -0.27     -3.02
   20    6   10     -0.74      4.41
   20    7   10      2.04     -1.00
   20    8   10      1.28     -1.72
   20    9   10      1.92      2.15
   20   10   10     -2.00     -1.40
   20   11   10     -1.09      1.27
   20    0   11      8.78      5.47
   20    1   11      7.56     -2.86
   20    2   11      6.04     -2.69
   20    3   11      2.28     -1.67
   20    4   11     -2.80      1.92
   20    5   11     -4.20      3.38
   20    6   11     -4.29     -3.17
   20    7   11     -2.10      8.34
   20    8   11      0.27     -4.06
   20    9   11      1.62     -7.62
   20   10   11      2.48     -4.52
   20    0   12     -0.45      0.17
   20    1   12      0.84      0.16
   20    2   12     -1.81     -7.67
   20    3   12      3.00     -5.48
   20    4   12      4.99     -3.41
   20    5   12     -1.98      0.41
   20    6   12      1.48      8.57
   20    7   12     -3.04     -0.44
   20    8   12      6.13      1.85
   20    9   12     -0.48     -1.86
   20   10   12      1.50     -3.50
   20    0   13      1.66    -13.55
   20    1   13    -10.84     -5.46
   20    2   13      7.45      2.69
   20    3   13      0.22     -3.88
   20    4   13     -1.16     -0.71
   20    5   13      4.23    -11.77
   20    6   13     -6.42     -3.79
   20    7   13     -1.77     -0.94
   20    8   13     -2.36      0.76
   20    9   13      2.18      4.13
   20    0   14      8.64     20.68
   20    1   14     16.06     -4.84
   20    2   14      8.56      4.90
   20    3   14      2.30     -5.11
   20    4   14     -3.67      1.58
   20    5   14    -12.36      3.28
   20    6   14     -6.59     -2.55
   20    7   14      3.51     -0.58
   20    8   14      3.34     -7.83
   20    0   15     -2.75     -9.15
   20    1   15      0.98      4.41
   20    2   15      1.82      1.83
   20    3   15      2.43     -0.28
   20    4   15      3.76     -2.74
   20    5   15     -1.58    -11.16
   20    6   15     -3.28      2.36
   20    7   15     -6.59      2.91
   20    0   16      5.62     -2.08
   20    1   16     -7.18      0.89
   20    2   16     -4.18      4.47
   20    3   16      4.95      2.31
   20    4   16      2.32     -1.98
   20    5   16      5.92     -5.16
   20    6   16      4.32     -1.59
   20    0   17      3.02      2.59
   20    1   17     -2.64     -4.31
   20    2   17     10.89     -0.25
   20    3   17      1.46     -2.52
   20    4   17      7.97     -0.05
   20    0   18      3.61      0.97
   20    1   18      4.60     -5.02
   21    1    0     -0.18      2.16
   21    2    0     22.41     -0.31
   21    3    0      2.08     -0.06
   21    4    0     11.86     -2.15
   21    5    0     -3.58      0.47
   21    6    0     -3.83      2.03
   21    7    0      1.82     -0.67
   21    8    0    -15.85      0.11
   21    9    0     -4.91     -0.35
   21   10    0     -0.82      0.30
   21   11    0      4.76      1.24
   21   12    0      0.61     -0.13
   21   13    0    -12.35     -0.83
   21    0    1      7.45     -2.96
   21    1    1     -9.08     -8.80
   21    2    1      5.08     -7.58
   21    3    1     -3.73    -10.07
   21    4    1     -2.50      6.87
   21    5    1     -7.38      5.98
   21    6    1      2.08    -11.19
   21    7    1     -2.60      5.14
   21    8    1      1.91      0.32
   21    9    1      6.21      9.33
   21   10    1     -0.61     -0.80
   21   11    1      1.38     -1.88
   21   12    1     -0.74     -2.92
   21   13    1      2.68      0.28
   21    0    2     -5.99     -4.56
   21    1    2    -12.42      6.65
   21    2    2    -15.09     -0.71
   21    3    2      3.21     10.58
   21    4    2      4.12     -4.00
   21    5    2      5.37      1.98
   21    6    2      3.33      8.31
   21    7    2      0.60     -6.02
   21    8    2      5.85      1.71
   21    9    2     -4.68     -1.60
   21   10    2      0.04      2.54
   21   11    2      1.47      1.92
   21   12    2     -5.32     -2.22
   21    0    3     -2.19     -7.71
   21    1    3     -3.79     11.24
   21    2    3      8.35      3.54
   21    3    3     -3.81      5.70
   21    4    3      2.04     -4.92
   21    5    3     -1.45     -6.51
   21    6    3     -9.28     -7.90
   21    7    3     -3.20      4.21
   21    8    3     -8.99      0.73
   21    9    3      6.44     -6.05
   21   10    3     -4.24      3.25
   21   11    3      3.83     -3.74
   21   12    3      2.08      0.74
   21    0    4      2.97      0.98
   21    1    4     -2.61     -3.60
   21    2    4      9.67     -3.17
   21    3    4      3.25     -1.43
   21    4    4     -4.29     -6.22
   21    5    4      4.12     -1.23
   21    6    4      2.80      6.59
   21    7    4     -1.02      3.19
   21    8    4     -2.02      2.05
   21    9    4     -0.88      6.68
   21   10    4     -3.87     -0.94
   21   11    4     -1.77      2.79
   21   12    4      0.57      0.33
   21    0    5      2.18    -14.53
   21    1    5      2.02     -6.54
   21    2    5    -10.26      7.30
   21    3    5     -0.75     -3.98
   21    4    5     -1.57      8.17
   21    5    5      2.02      7.62
   21    6    5     11.53     -2.25
   21    7    5     -0.05     -3.63
   21    8    5     -3.02      3.99
   21    9    5     -6.03     -4.88
   21   10    5     -3.66      3.85
   21   11    5      2.06     -3.43
   21   12    5      0.39      1.30
   21    0    6     -9.04      4.32
   21    1    6    -10.31     12.85
   21    2    6     -3.83    -12.49
   21    3    6     13.05     -0.21
   21    4    6      2.64      1.93
   21    5    6     -2.76     -6.56
   21    6    6     -9.06     -0.31
   21    7    6     -3.26      3.07
   21    8    6     -0.68      2.42
   21    9    6      1.63     -1.29
   21   10    6      0.94      1.01
   21   11    6     -0.96     -3.89
   21   12    6     -1.17     -5.97
   21    0    7      8.61    -13.57
   21    1    7     11.56    -15.99
   21    2    7      2.01      1.63
   21    3    7     -8.06     -4.12
   21    4    7      6.46     -0.21
   21    5    7      5.20      0.14
   21    6    7      4.75      1.60
   21    7    7     -8.37      7.06
   21    8    7      0.53     -3.35
   21    9    7      0.15     -2.45
   21   10    7      1.52     -1.09
   21   11    7      2.50     -4.96
   21   12    7      2.06     -1.72
   21    0    8     -1.30     -6.46
   21    1    8     -0.75     -1.61
   21    2    8      3.17      9.60
   21    3    8     -1.07     -3.24
   21    4    8     -6.99      4.03
   21    5    8     -2.21     -0.17
   21    6    8      7.29      3.38
   21    7    8     -2.63      0.84
   21    8    8      0.06      0.53
   21    9    8     -0.44      0.21
   21   10    8     -4.95     -4.40
   21   11    8     -0.46     -1.47
   21    0    9     -0.92      1.31
   21    1    9      2.61      2.84
   21    2    9      4.80     -6.17
   21    3    9      3.23      1.21
   21    4    9      5.01     -0.44
   21    5    9      1.36      8.38
   21    6    9      1.67      2.18
   21    7    9      4.35     -2.77
   21    8    9     -6.66      0.84
   21    9    9     -1.83      0.70
   21   10    9      4.79     -5.57
   21   11    9     -0.80     -1.09
   21    0   10      0.22      0.64
   21    1   10      0.20      0.55
   21    2   10      0.17     -1.24
   21    3   10      3.15      0.23
   21    4   10     11.67     -0.76
   21    5   10     -4.32     -1.06
   21    6   10     -3.65     -8.27
   21    7   10     -2.63      6.27
   21    8   10     -1.68      0.21
   21    9   10      3.83     -0.96
   21   10   10      2.23      3.53
   21    0   11      0.63     -1.96
   21    1   11      7.16     -2.84
   21    2   11      2.09      5.39
   21    3   11      1.10      2.66
   21    4   11     -4.77      0.91
   21    5   11      4.14      5.26
   21    6   11      2.28      6.31
   21    7   11     -4.17      0.86
   21    8   11      1.71     -1.14
   21    9   11      1.30     -0.44
   21   10   11     -5.74     -0.55
   21    0   12      0.47    -15.98
   21    1   12      4.65      3.47
   21    2   12    -14.82      0.60
   21    3   12     -0.25      6.30
   21    4   12     -1.98     -0.03
   21    5   12     -1.83      4.95
   21    6   12      6.22      0.43
   21    7   12      2.67     -6.07
   21    8   12     -3.16      8.21
   21    9   12      4.30     -0.05
   21    0   13     -0.15      9.19
   21    1   13     -0.36      3.11
   21    2   13     -1.07     -0.85
   21    3   13      0.43     13.11
   21    4   13     -5.63     -1.08
   21    5   13      1.47      3.83
   21    6   13      1.95     -0.58
   21    7   13     -2.60     -0.26
   21    8   13      7.24     -1.23
   21    0   14     -0.75     -0.99
   21    1   14      7.95     -2.20
   21    2   14      0.48     -9.80
   21    3   14     -6.72    -20.12
   21    4   14     -6.33      3.31
   21    5   14     -0.95      3.81
   21    6   14     -1.98     -0.18
   21    7   14     -3.17      3.78
   21    0   15      1.23     -1.12
   21    1   15      0.80     -5.61
   21    2   15     -7.37      7.46
   21    3   15      8.87     -6.70
   21    4   15      0.29     -3.03
   21    5   15      2.57      0.20
   21    6   15      0.09      3.27
   21    0   16     -0.57      6.26
   21    1   16      4.30     -3.66
   21    2   16     -4.44      0.32
   21    3   16      5.22      6.74
   21    4   16      2.27     -2.56
   21    5   16     -3.90     -3.04
   21    0   17     -0.36     -7.35
   21    1   17      7.60      4.82
   21    2   17      8.59     -3.79
   21    3   17      0.11      0.84
   22    0    0     18.11      1.70
   22    1    0     19.70     -2.61
   22    2    0    -21.29      1.91
   22    3    0      4.28     -0.62
   22    4    0      0.95     -0.71
   22    5    0    -10.06      1.16
   22    6    0      6.71     -0.61
   22    7    0     -2.31     -0.86
   22    8    0     -3.97     -0.08
   22    9    0     -0.50     -4.84
   22   10    0      6.60      0.29
   22   11    0     -1.73     -1.86
   22   12    0     -2.63     -0.38
   22    0    1      3.38      1.48
   22    1    1     -7.71     -3.96
   22    2    1      8.41     -1.24
   22    3    1      4.79      5.97
   22    4    1      1.31     -0.67
   22    5    1      4.22     -8.39
   22    6    1     -6.36     -3.37
   22    7    1     -0.52      0.10
   22    8    1     -0.34     -2.24
   22    9    1      4.22      0.47
   22   10    1      1.83     -1.97
   22   11    1     -4.56     -0.40
   22   12    1      4.24     -0.34
   22    0    2     -8.57     -3.06
   22    1    2     -8.37      7.12
   22    2    2      7.29      3.39
   22    3    2      6.51     -9.40
   22    4    2     -5.04     -1.37
   22    5    2      4.91     -4.86
   22    6    2     -6.38     -0.68
   22    7    2      2.53     -4.76
   22    8    2     -5.90     -1.47
   22    9    2    -12.65      4.50
   22   10    2     -7.52     -2.98
   22   11    2     -1.26     -0.25
   22   12    2      0.83     -2.78
   22    0    3      4.40      0.66
   22    1    3      4.45      2.50
   22    2    3      2.51     -1.82
   22    3    3      0.01      3.17
   22    4    3      3.85     -3.88
   22    5    3     -0.56      3.61
   22    6    3     -0.83      5.26
   22    7    3     -1.30     -1.61
   22    8    3      0.61     -0.56
   22    9    3      3.04     -3.34
   22   10    3      5.14     -2.31
   22   11    3      0.81      0.59
   22   12    3      6.26      2.21
   22    0    4      1.16      0.62
   22    1    4      0.71      2.25
   22    2    4     -8.70     -7.74
   22    3    4      5.72     -2.10
   22    4    4      4.99     -1.12
   22    5    4     -1.63      8.21
   22    6    4      5.00      6.75
   22    7    4     -1.75     -0.89
   22    8    4     -6.10     -3.61
   22    9    4      6.32      3.06
   22   10    4      1.43      3.20
   22   11    4     -0.98     -4.77
   22   12    4      2.37     -5.18
   22    0    5      0.06     -0.04
   22    1    5      1.95     -6.48
   22    2    5      4.91      6.54
   22    3    5      3.87      8.25
   22    4    5      2.78     -1.31
   22    5    5      9.58     -1.40
   22    6    5      0.25     -2.62
   22    7    5      1.98     -7.98
   22    8    5     -3.32     -2.30
   22    9    5     -2.97     -3.15
   22   10    5      0.63     -1.36
   22   11    5      3.83      0.75
   22   12    5     -0.44      4.13
   22    0    6     -6.35      0.45
   22    1    6      4.56      8.18
   22    2    6      3.54     -2.12
   22    3    6     12.16     -5.97
   22    4    6      3.70      5.01
   22    5    6     -1.98     -0.94
   22    6    6     -4.27      1.74
   22    7    6     -2.60      4.95
   22    8    6      7.69     -0.62
   22    9    6      0.15     -4.64
   22   10    6      3.56     -2.22
   22   11    6     -1.45      7.69
   22    0    7      1.48     -2.57
   22    1    7     -0.45     -6.20
   22    2    7     -0.73     -1.16
   22    3    7     -1.76      0.49
   22    4    7     -7.75     -5.70
   22    5    7     -1.03      6.68
   22    6    7     -2.05      2.25
   22    7    7     -2.82     -1.72
   22    8    7     -0.81     -0.88
   22    9    7      1.81      1.06
   22   10    7     -2.18     -0.51
   22   11    7     -3.31      0.56
   22    0    8      0.09      1.15
   22    1    8      0.16      2.10
   22    2    8     -1.32      2.70
   22    3    8     -2.98      4.79
   22    4    8      0.89      5.18
   22    5    8      0.20      4.36
   22    6    8     -1.90      4.86
   22    7    8      5.64      1.13
   22    8    8     -5.45     -7.46
   22    9    8     -2.07      0.11
   22   10    8      3.12     -0.40
   22   11    8      0.26     -2.87
   22    0    9      6.18      2.13
   22    1    9      1.37     -3.18
   22    2    9      4.91      1.98
   22    3    9      3.37     -5.48
   22    4    9      7.75      2.45
   22    5    9      7.27     -5.78
   22    6    9     -1.55      0.63
   22    7    9     -4.05     -0.61
   22    8    9      7.28     -2.11
   22    9    9      2.53      1.48
   22   10    9      0.35     -0.01
   22    0   10      7.30     -1.83
   22    1   10      3.06      3.14
   22    2   10      6.28     -0.06
   22    3   10     -0.14      0.73
   22    4   10     -2.72     -5.82
   22    5   10     -4.83      5.17
   22    6   10     -9.36      0.43
   22    7   10      7.91     -2.74
   22    8   10      1.10      1.16
   22    9   10      4.29     -1.53
   22   10   10      0.11     -5.33
   22    0   11     -0.43     -3.81
   22    1   11     -4.16      2.49
   22    2   11     -0.17     -1.05
   22    3   11      0.72     -1.87
   22    4   11      2.67      3.74
   22    5   11     -4.19     -0.01
   22    6   11      4.29      0.49
   22    7   11      1.70      4.18
   22    8   11     -1.69     -3.23
   22    9   11      7.77     -4.35
   22    0   12      0.17     -0.73
   22    1   12     -2.72     -0.13
   22    2   12      3.08      8.34
   22    3   12      0.70      6.20
   22    4   12      6.50     -4.03
   22    5   12     -1.19     -4.89
   22    6   12      0.03      3.78
   22    7   12     -0.87     -0.65
   22    8   12     -3.58     -4.50
   22    0   13     -4.08     11.22
   22    1   13      8.37     13.20
   22    2   13      1.59     -4.89
   22    3   13     -0.60     -1.99
   22    4   13      3.84      2.64
   22    5   13     -5.66      3.01
   22    6   13     -3.57     -5.82
   22    7   13      1.40     -4.89
   22    8   13      8.85      3.58
   22    0   14     -5.36    -18.61
   22    1   14    -22.35     -3.50
   22    2   14      2.20      7.14
   22    3   14     -0.49      7.40
   22    4   14     -2.22     -3.33
   22    5   14      4.15      0.42
   22    6   14      2.75      0.93
   22    7   14     -4.20     -0.45
   22    0   15     -5.49      7.23
   22    1   15      5.99     -2.32
   22    2   15      0.12      4.08
   22    3   15      4.10      6.44
   22    4   15      5.67     -0.24
   22    5   15     -7.14      6.93
   22    6   15      0.89     -4.99
   22    0   16      4.37      2.82
   22    1   16      0.35      1.28
   22    2   16      2.04     -5.67
   22    3   16     -2.50     -0.20
   22    4   16      0.61     -0.63
   22    0   17     -4.62     -3.08
   22    1   17     -1.93      0.37
   23    1    0      9.97     -2.96
   23    2    0     -8.77     -0.14
   23    3    0     -2.91      0.25
   23    4    0      2.20      0.59
   23    5    0      3.05      0.19
   23    6    0     -5.14     -1.81
   23    7    0     -4.58     -1.96
   23    8    0      0.76     -0.72
   23    9    0      0.23      0.23
   23   10    0     -1.23      0.64
   23   11    0     -0.20      2.00
   23   12    0     -6.65      0.19
   23    0    1    -10.31    -10.54
   23    1    1      3.82      3.53
   23    2    1     -2.17      5.77
   23    3    1      8.64     -5.36
   23    4    1     -0.87     -3.68
   23    5    1     -1.09     -2.23
   23    6    1     -7.46      4.56
   23    7    1     -4.57      3.56
   23    8    1      4.80      2.69
   23    9    1     -5.78     -1.05
   23   10    1     -0.01      6.32
   23   11    1      1.51      0.07
   23   12    1     -2.74     -0.34
   23    0    2      8.18     10.59
   23    1    2      5.10     -5.36
   23    2    2      1.77     -0.77
   23    3    2     -2.39     -6.90
   23    4    2     -5.50      3.07
   23    5    2     -5.53      1.72
   23    6    2      6.09     -1.70
   23    7    2     -1.67     -1.50
   23    8    2     -3.55     -5.52
   23    9    2      8.19     -2.52
   23   10    2     -1.01     -0.72
   23   11    2     -1.04     -0.19
   23   12    2     -1.67      3.60
   23    0    3      2.40      1.17
   23    1    3      4.14      2.23
   23    2    3      5.95     -2.08
   23    3    3      8.70      6.77
   23    4    3      4.70      2.11
   23    5    3      1.67     -9.77
   23    6    3     -0.87      5.92
   23    7    3     -1.85     -7.91
   23    8    3      0.69     -4.26
   23    9    3     -2.03      7.47
   23   10    3      1.69     -2.26
   23   11    3      1.70      4.40
   23    0    4     -4.13     -7.76
   23    1    4      1.93     -4.95
   23    2    4      0.21      8.03
   23    3    4     -3.87     -0.12
   23    4    4      2.48     -1.46
   23    5    4     -0.08      1.30
   23    6    4     -5.88    -10.59
   23    7    4     -9.78      0.95
   23    8    4      4.53      5.50
   23    9    4      0.14     -5.78
   23   10    4      0.80     -3.60
   23   11    4     -0.39     -4.60
   23    0    5     -3.72     -9.16
   23    1    5     -0.75      8.41
   23    2    5     -9.85      3.81
   23    3    5      7.35      3.13
   23    4    5      8.05     -5.14
   23    5    5     -5.28     -3.82
   23    6    5      4.77      0.28
   23    7    5     -4.75      1.99
   23    8    5      2.19     -3.55
   23    9    5      1.90      1.88
   23   10    5     -1.88      6.04
   23   11    5     -1.16      0.65
   23    0    6      8.72     -3.57
   23    1    6      9.01     -8.48
   23    2    6      5.15      6.40
   23    3    6      3.51     -0.32
   23    4    6     -5.41      4.68
   23    5    6     -3.62      5.12
   23    6    6     15.10     -1.84
   23    7    6     -1.08     -3.17
   23    8    6     -2.78     -6.70
   23    9    6     -0.80      1.76
   23   10    6     -4.24      1.70
   23   11    6      8.58      4.02
   23    0    7     -8.82     14.58
   23    1    7     -0.11      7.37
   23    2    7     -9.77     -7.77
   23    3    7     -4.37     -1.24
   23    4    7     -3.36      6.77
   23    5    7     -0.38     10.53
   23    6    7     -0.25     -3.40
   23    7    7      4.72      2.70
   23    8    7     -2.87     -5.51
   23    9    7      0.78      1.59
   23   10    7      2.43     -1.51
   23   11    7      1.67     -0.45
   23    0    8      2.38    -11.94
   23    1    8      3.43      0.07
   23    2    8     -1.98      5.83
   23    3    8     -1.72      2.20
   23    4    8     -1.54      0.60
   23    5    8      7.90      0.34
   23    6    8     -5.06     -8.79
   23    7    8     -5.13      4.37
   23    8    8      4.30      1.96
   23    9    8      1.87     -1.72
   23   10    8     -0.23      1.33
   23    0    9      0.53      2.30
   23    1    9      1.29    -12.14
   23    2    9     -0.13     12.43
   23    3    9      4.22      1.28
   23    4    9     -4.79     -4.16
   23    5    9    -10.83      0.98
   23    6    9     -5.71     -3.21
   23    7    9      0.55     -1.78
   23    8    9     -3.13     -3.42
   23    9    9      3.39     -2.59
   23   10    9     -2.81      5.98
   23    0   10      0.36      3.80
   23    1   10      0.28      3.06
   23    2   10     -3.44     -5.78
   23    3   10     -5.30     -1.19
   23    4   10     -7.79      6.26
   23    5   10      3.55      0.10
   23    6   10      3.67      3.92
   23    7   10      5.74     -1.42
   23    8   10      0.04     -0.75
   23    9   10     -3.30      0.34
   23    0   11     -0.23      1.64
   23    1   11     -4.72     -0.45
   23    2   11    -13.77     -2.76
   23    3   11    -13.57     -7.12
   23    4   11     -3.88     -0.75
   23    5   11     -3.86     -0.68
   23    6   11      1.84     -7.04
   23    7   11      6.87     -7.82
   23    8   11     -0.63      4.03
   23    9   11      2.83     -2.30
   23    0   12     -0.11      4.16
   23    1   12     -0.70     -7.35
   23    2   12      8.50      5.77
   23    3   12     -0.34     -2.34
   23    4   12     -8.19      3.38
   23    5   12      2.43     -2.53
   23    6   12     -0.39     -0.36
   23    7   12     -2.89      3.65
   23    8   12      6.55    -10.32
   23    0   13     -0.23     -3.52
   23    1   13      2.54     -3.63
   23    2   13     -1.66    -11.95
   23    3   13      2.45    -12.69
   23    4   13      0.94     -4.08
   23    5   13     -1.92     -3.43
   23    6   13     -0.60     -0.56
   23    7   13     -0.30     -0.66
   23    0   14      0.65      6.63
   23    1   14     -3.20      5.15
   23    2   14      0.56      4.39
   23    3   14     -0.53      8.17
   23    4   14      0.09     -6.18
   23    5   14     -4.53     -3.68
   23    6   14      2.16      0.26
   23    0   15     -0.70     -3.45
   23    1   15     -2.21     -6.50
   23    2   15      7.20     -1.14
   23    3   15     -8.07      0.76
   23    4   15     -5.13     -0.62
   23    0   16      0.58     -1.99
   23    1   16     -4.25      2.94
   23    2   16     -4.98     -0.23
   24    0    0     21.52     -0.30
   24    1    0     -8.96     -0.33
   24    2    0      7.89     -3.33
   24    3    0     -1.33      0.29
   24    4    0     -4.23      0.52
   24    5    0      5.46     -0.25
   24    6    0     -7.74      0.17
   24    7    0     -1.59     -0.30
   24    8    0      1.35      0.15
   24    9    0      9.24      9.93
   24   10    0      2.29      0.07
   24   11    0      8.87      0.51
   24    0    1     -0.06     -1.54
   24    1    1      6.24     -4.45
   24    2    1     -2.77     -2.78
   24    3    1     -8.45      8.39
   24    4    1     -6.88     -0.19
   24    5    1     -6.69      0.16
   24    6    1      3.46      4.42
   24    7    1      3.99      2.50
   24    8    1      1.69      7.27
   24    9    1      0.92      2.51
   24   10    1     -4.22     -7.09
   24   11    1     -0.40     -7.82
   24    0    2     -2.92     -1.67
   24    1    2     -1.23      1.75
   24    2    2      4.63     -4.88
   24    3    2      0.31      2.99
   24    4    2      6.31      2.38
   24    5    2     -4.55     -3.64
   24    6    2      1.48      0.35
   24    7    2      0.63      3.07
   24    8    2      6.55     -2.64
   24    9    2      6.42      1.73
   24   10    2     -1.25      6.25
   24   11    2     -1.99      0.33
   24    0    3      4.01     -1.77
   24    1    3     -0.34      9.12
   24    2    3      5.10      4.00
   24    3    3     -0.62    -18.62
   24    4    3     -6.96     -4.43
   24    5    3     -1.61     -1.19
   24    6    3     -5.98     -4.57
   24    7    3      1.46      2.11
   24    8    3     -2.79      3.60
   24    9    3      2.93      1.23
   24   10    3     -4.39      8.96
   24   11    3     -0.74      1.52
   24    0    4      7.68      0.06
   24    1    4     -3.10     -1.25
   24    2    4     -6.45      3.16
   24    3    4      0.15      4.76
   24    4    4     -3.28      0.22
   24    5    4     -5.86     -0.94
   24    6    4      2.57      5.54
   24    7    4      0.57     -2.81
   24    8    4     -3.44     -1.81
   24    9    4     -0.18     -1.68
   24   10    4     -4.22      0.97
   24   11    4      2.39     -6.26
   24    0    5    -19.03     -0.76
   24    1    5     -1.08      4.59
   24    2    5      2.93      1.63
   24    3    5     -4.51      8.29
   24    4    5     12.54     -0.30
   24    5    5     -6.93     -5.42
   24    6    5     -0.44      3.16
   24    7    5      0.07      0.03
   24    8    5     -3.35      5.42
   24    9    5      2.81      3.94
   24   10    5     -0.39     -2.75
   24   11    5     -3.82      3.03
   24    0    6     -1.81     -1.10
   24    1    6      8.73     -1.46
   24    2    6      6.27      0.25
   24    3    6    -10.28     -6.84
   24    4    6      0.86     -5.07
   24    5    6     -2.10      0.57
   24    6    6     -3.79     -6.81
   24    7    6      1.21      0.23
   24    8    6     -2.08      1.57
   24    9    6     -0.32     -3.28
   24   10    6     -5.49      0.69
   24    0    7     -7.05      0.33
   24    1    7    -12.80     -2.04
   24    2    7     -3.14      0.92
   24    3    7      0.85      2.26
   24    4    7      1.21      0.38
   24    5    7     -2.08      5.87
   24    6    7      0.19     -2.96
   24    7    7      1.24     -6.19
   24    8    7      2.59      2.43
   24    9    7     -2.08     -7.08
   24   10    7      2.13      6.70
   24    0    8     -1.07     -0.58
   24    1    8     -6.01     -4.56
   24    2    8     -4.74      3.39
   24    3    8      2.77      1.62
   24    4    8      3.15     -8.57
   24    5    8     -2.27      1.54
   24    6    8      3.85      0.75
   24    7    8     -1.03     -6.31
   24    8    8      0.13      1.57
   24    9    8      4.86      0.28
   24   10    8      1.67      1.35
   24    0    9     -8.24     -0.53
   24    1    9      0.25      2.28
   24    2    9      0.85     -2.54
   24    3    9     -5.83     14.45
   24    4    9     -7.28     -5.16
   24    5    9      1.73     -1.32
   24    6    9     -5.32      1.43
   24    7    9      6.28     -0.64
   24    8    9      2.41     -2.52
   24    9    9     -2.65      0.87
   24    0   10     -4.58     -0.27
   24    1   10      2.61     -0.59
   24    2   10      1.14     -3.28
   24    3   10     -1.72     -7.87
   24    4   10      3.43     -0.40
   24    5   10     -1.14      0.80
   24    6   10      2.89     -3.39
   24    7   10     -2.71      2.24
   24    8   10      1.84      5.33
   24    9   10      0.38     -1.22
   24    0   11      0.79      0.63
   24    1   11     -8.70     -2.78
   24    2   11     -8.41     -0.30
   24    3   11     -0.95     -1.53
   24    4   11      1.70     -3.51
   24    5   11      1.93      3.32
   24    6   11      1.26      4.06
   24    7   11      3.25     -7.57
   24    8   11     -1.29     -2.17
   24    0   12    -10.48      2.11
   24    1   12      0.73     -0.09
   24    2   12     -2.07      2.67
   24    3   12      1.37      2.20
   24    4   12     -2.16     -0.49
   24    5   12      5.38     -1.21
   24    6   12      1.13     -4.32
   24    7   12      2.25     -1.49
   24    0   13    -10.88    -11.11
   24    1   13     -5.36    -11.24
   24    2   13      3.84     -4.49
   24    3   13      3.88      4.23
   24    4   13     -3.13      2.22
   24    5   13     -0.03      4.34
   24    6   13      2.93      9.17
   24    0   14      0.87      9.99
   24    1   14     -1.11      3.26
   24    2   14     -7.69     -6.09
   24    3   14      5.42     -1.27
   24    4   14      3.99      3.83
   24    5   14      0.90     10.02
   24    0   15      9.25     -4.81
   24    1   15      3.93     -6.60
   24    2   15     -1.95      3.70
   24    3   15     -3.07      0.50
   25    1    0     -0.98     -3.94
   25    2    0    -18.29     -0.14
   25    3    0    -12.64      2.89
   25    4    0      4.13      0.00
   25    5    0      6.03      0.13
   25    6    0     -0.60      0.82
   25    7    0      1.12      2.20
   25    8    0      4.25      0.73
   25    9    0     -0.17      0.57
   25   10    0      0.99     -0.24
   25   11    0     -6.77     -2.84
   25    0    1      9.11      0.66
   25    1    1     -4.43     10.38
   25    2    1      1.26      6.21
   25    3    1      0.82     -0.30
   25    4    1     -4.45     -0.96
   25    5    1      0.92      0.83
   25    6    1     -1.43      0.86
   25    7    1      9.11      3.78
   25    8    1      0.43     -0.97
   25    9    1      7.35     -6.57
   25   10    1     -0.15     -1.40
   25   11    1      0.28     -2.32
   25    0    2     -3.19     -1.17
   25    1    2      6.60     -6.39
   25    2    2      4.58     -5.09
   25    3    2      8.00     -3.63
   25    4    2     -5.85     -1.72
   25    5    2     -2.51      2.17
   25    6    2     -3.17     -2.03
   25    7    2      2.61      6.06
   25    8    2      0.21      2.29
   25    9    2      4.00     -0.28
   25   10    2     -2.29      0.06
   25   11    2      1.42     -1.60
   25    0    3      0.83     -5.11
   25    1    3     -2.70    -10.65
   25    2    3     -7.06      0.35
   25    3    3     -5.40     -4.69
   25    4    3     -8.04      0.02
   25    5    3      3.09      2.98
   25    6    3      0.58     -0.21
   25    7    3     -3.92     -2.39
   25    8    3      1.80      3.28
   25    9    3      3.40      2.00
   25   10    3      5.80     -4.30
   25    0    4      1.96     -3.63
   25    1    4      1.77      0.11
   25    2    4     -4.05     -0.17
   25    3    4      0.09      5.01
   25    4    4      7.07      1.35
   25    5    4      1.09     -4.21
   25    6    4     -8.55      9.54
   25    7    4     11.38     -4.51
   25    8    4     -6.06     -1.40
   25    9    4      0.97      0.69
   25   10    4      9.78     10.79
   25    0    5      4.28      1.46
   25    1    5      2.20      3.30
   25    2    5     10.81      3.81
   25    3    5     -2.88     -5.92
   25    4    5     -3.99      3.84
   25    5    5      1.59     -6.12
   25    6    5     -7.74     -3.79
   25    7    5     -0.21      3.70
   25    8    5      1.05      3.10
   25    9    5      4.65     -3.03
   25   10    5     -3.04     -3.23
   25    0    6     -5.04     -0.80
   25    1    6     -8.93      1.31
   25    2    6      2.04     -3.20
   25    3    6     -0.21     -5.27
   25    4    6     -5.12     -1.20
   25    5    6      1.32      5.17
   25    6    6     -2.15      2.77
   25    7    6     -0.10     -6.17
   25    8    6      6.36      2.76
   25    9    6     -1.01     -1.63
   25   10    6      0.66     -2.52
   25    0    7      6.84     -3.69
   25    1    7      0.17     -5.05
   25    2    7      2.85      4.28
   25    3    7      5.71      5.08
   25    4    7      0.64     -2.84
   25    5    7      0.27    -10.17
   25    6    7      6.26      2.84
   25    7    7     -6.41    -10.04
   25    8    7     -2.21      2.97
   25    9    7     -5.53      2.41
   25    0    8     -3.91     -0.99
   25    1    8      0.72      4.58
   25    2    8      2.57      1.03
   25    3    8     -6.56      5.51
   25    4    8      6.51      1.31
   25    5    8     -6.34     -2.81
   25    6    8     -5.55     -3.07
   25    7    8      3.84     -0.84
   25    8    8      2.88     -8.14
   25    9    8     -4.01     -1.78
   25    0    9      3.29     -4.87
   25    1    9     -6.13     14.73
   25    2    9      2.19     -9.67
   25    3    9     -0.82     -6.50
   25    4    9      0.35     11.42
   25    5    9      4.66     -1.61
   25    6    9      8.54     -3.45
   25    7    9     -3.85      6.96
   25    8    9      3.90     -1.49
   25    0   10     -0.25      1.93
   25    1   10      2.76    -11.97
   25    2   10     -3.09     -0.47
   25    3   10     -0.63      2.04
   25    4   10     -3.72     -3.78
   25    5   10      0.83      2.67
   25    6   10     -0.73      2.76
   25    7   10      0.32     -3.16
   25    8   10      2.05     -5.80
   25    0   11      0.10     -5.76
   25    1   11      1.47      0.02
   25    2   11      9.15      3.51
   25    3   11      7.73     10.12
   25    4   11      6.35     -0.80
   25    5   11     -0.05      4.28
   25    6   11     -2.12     -1.03
   25    7   11      5.88     -0.91
   25    0   12      0.71      5.57
   25    1   12      1.04      8.93
   25    2   12      1.02    -12.76
   25    3   12     -3.75     -2.55
   25    4   12      3.47      3.87
   25    5   12     -7.32     -5.44
   25    6   12     -0.69     -2.29
   25    0   13      0.36     -1.77
   25    1   13     -0.78     -1.21
   25    2   13      5.06     16.17
   25    3   13     -2.19      3.78
   25    4   13    -11.38      6.24
   25    5   13      0.46      4.43
   25    0   14     -1.16     -0.69
   25    1   14     -3.91     -2.57
   25    2   14     -2.31     -4.71
   25    3   14      8.97      2.45
   26    0    0    -25.22     -1.43
   26    1    0     -0.06      3.67
   26    2    0      0.65      3.23
   26    3    0    -10.24      1.95
   26    4    0     -2.47      0.02
   26    5    0      5.27     -1.83
   26    6    0     -0.88     -0.22
   26    7    0      1.75     -0.36
   26    8    0      3.40      0.38
   26    9    0    -11.41     -5.47
   26   10    0     -4.07     -0.33
   26    0    1      4.93      0.47
   26    1    1      7.67     -0.60
   26    2    1     -2.85      9.51
   26    3    1      7.40     -8.74
   26    4    1     -2.73      2.82
   26    5    1      1.91      3.71
   26    6    1      3.50     -5.77
   26    7    1     -0.32      4.81
   26    8    1      8.15     -4.34
   26    9    1      1.28     -3.65
   26   10    1      2.25      7.72
   26    0    2     -5.52      0.94
   26    1    2      0.26     -8.45
   26    2    2     -8.20     -1.20
   26    3    2     -5.55     -0.35
   26    4    2     -6.70      4.69
   26    5    2      5.94      4.75
   26    6    2      4.61      1.92
   26    7    2      3.87     -6.14
   26    8    2     -2.49      5.13
   26    9    2      0.25      1.41
   26   10    2      3.45     -4.86
   26    0    3      2.57      0.31
   26    1    3     -2.18     -3.72
   26    2    3     -8.58      0.76
   26    3    3      0.52      4.62
   26    4    3      3.06      7.13
   26    5    3     -6.33     -5.46
   26    6    3      5.79      7.30
   26    7    3      6.36      4.67
   26    8    3      6.70     -7.17
   26    9    3     -0.28      3.52
   26   10    3     -2.28     -6.42
   26    0    4     -4.18     -1.53
   26    1    4      3.89     -4.35
   26    2    4     12.36     -1.26
   26    3    4     -3.55     -5.81
   26    4    4     -0.77      1.05
   26    5    4     -0.42     -4.80
   26    6    4     -3.67      0.45
   26    7    4     -0.95     -0.38
   26    8    4      8.95      4.27
   26    9    4      0.67      2.77
   26   10    4     -2.75     -7.59
   26    0    5      4.12      1.06
   26    1    5      4.80     -2.86
   26    2    5      2.12      4.24
   26    3    5     -1.99    -15.43
   26    4    5     -4.83     -6.74
   26    5    5     -5.85      3.83
   26    6    5     -3.10      4.67
   26    7    5      0.28      4.95
   26    8    5     -1.34      1.84
   26    9    5     -0.24     -6.94
   26    0    6      3.81      0.68
   26    1    6     -0.98     -2.00
   26    2    6     -3.07      4.72
   26    3    6      1.12     13.10
   26    4    6      0.08      7.12
   26    5    6     -3.79      1.57
   26    6    6      7.33     -0.58
   26    7    6      2.44     -6.31
   26    8    6     -2.27      3.48
   26    9    6      4.32      7.42
   26    0    7      7.44     -0.76
   26    1    7     -0.60     -1.03
   26    2    7      7.66      0.54
   26    3    7      4.48      0.29
   26    4    7      8.64      1.08
   26    5    7     -1.64     -4.10
   26    6    7     -2.51     -6.36
   26    7    7     -3.16     -2.10
   26    8    7      2.54      3.37
   26    9    7      5.11      1.91
   26    1    8     -4.20      4.05
   26    2    8      5.44      7.11
   26    3    8     -0.24      1.05
   26    4    8     -6.96     -4.01
   26    5    8     -2.75      0.43
   26    6    8     -0.93     -0.49
   26    7    8     -1.33      1.37
   26    8    8      2.74      2.43
   26    0    9      1.67     -0.38
   26    1    9      4.72      2.40
   26    2    9     -0.24      4.24
   26    3    9      0.19     -7.56
   26    4    9      3.05     -0.38
   26    5    9     -3.43      2.42
   26    6    9      4.13     -3.21
   26    7    9      1.22     -0.90
   26    8    9     -2.69      3.36
   26    0   10     -1.25      1.36
   26    1   10     -3.76      1.23
   26    2   10     -4.07      1.24
   26    3   10      0.85      9.46
   26    4   10     -2.87      6.80
   26    5   10      5.14     -4.01
   26    6   10      0.01     -1.13
   26    7   10      0.56     -3.60
   26    0   11     -8.74      0.51
   26    1   11     -2.07      1.44
   26    2   11      5.93      1.67
   26    3   11      0.08      4.09
   26    4   11     -0.85      2.10
   26    5   11      4.86     -2.44
   26    6   11     -2.72      1.37
   26    0   12      3.63     -4.57
   26    1   12      0.79     -3.53
   26    2   12     -1.68      3.22
   26    3   12     -4.82      0.21
   26    4   12     -1.93      3.42
   26    5   12     -6.03      6.40
   26    0   13      2.38      8.22
   26    1   13      3.11      1.91
   26    2   13     -2.44     -0.39
   26    3   13     -1.02     -2.06
   26    4   13     -1.06     -0.52
   26    0   14      8.48     -4.11
   26    1   14      3.88     -5.10
   27    1    0     -6.41      8.77
   27    2    0     -0.12     -1.35
   27    3    0     12.67     -1.23
   27    4    0     -0.27      0.06
   27    5    0     -3.21     -1.31
   27    6    0      2.19     -0.30
   27    7    0     -0.25      0.46
   27    8    0      7.94      0.38
   27    9    0      7.96     -0.55
   27    0    1     -5.15      4.57
   27    1    1      6.24      1.76
   27    2    1     -2.58      0.71
   27    3    1     -6.79     -0.35
   27    4    1      4.26     -1.78
   27    5    1      1.92      1.20
   27    6    1      7.82    -10.68
   27    7    1     -4.38     -3.30
   27    8    1     -3.09     -0.87
   27    9    1     -5.90     -1.71
   27    0    2     -0.68     -3.08
   27    1    2     -8.74     -0.08
   27    2    2     -0.35      9.44
   27    3    2     -1.98      0.79
   27    4    2      5.57      2.52
   27    5    2     -1.37      2.69
   27    6    2      0.94     -0.90
   27    7    2     -5.01      2.65
   27    8    2     -4.25     -2.71
   27    9    2     -5.66     -1.28
   27    0    3     -4.16      4.13
   27    1    3      1.67     -7.00
   27    2    3     -1.61     -1.47
   27    3    3     -3.64      2.65
   27    4    3     -1.24      1.39
   27    5    3     -2.33      7.32
   27    6    3      1.77      3.66
   27    7    3     12.75      6.88
   27    8    3     -1.25     -0.82
   27    9    3     -3.82     -2.81
   27    0    4      4.92      3.73
   27    1    4     -6.74     -0.88
   27    2    4     -2.41      2.66
   27    3    4     -2.02     -1.94
   27    4    4     -1.05      3.65
   27    5    4      3.06      2.20
   27    6    4      4.30    -10.59
   27    7    4     -1.03     -1.89
   27    8    4      2.45     -7.47
   27    9    4      4.55     -2.60
   27    0    5     -3.28      3.86
   27    1    5     -3.94      1.48
   27    2    5      6.95    -11.50
   27    3    5     -7.20      1.63
   27    4    5     -0.40      1.01
   27    5    5      2.85      6.10
   27    6    5     -7.33      5.51
   27    7    5      1.88     -3.15
   27    8    5      2.61     -5.55
   27    9    5     -0.84      0.55
   27    0    6      0.81     -4.38
   27    1    6      2.00     -0.97
   27    2    6      4.87      5.76
   27    3    6     -7.25      3.46
   27    4    6     -2.79     -3.93
   27    5    6      0.33     -3.76
   27    6    6     -0.68      2.28
   27    7    6      3.61      4.27
   27    8    6     -2.72      4.54
   27    0    7     -3.31     -0.64
   27    1    7     -5.86      2.64
   27    2    7      0.20      0.13
   27    3    7     -2.12      3.05
   27    4    7     -2.02     -7.96
   27    5    7     -2.36      0.67
   27    6    7     -4.09      0.16
   27    7    7      8.82      2.32
   27    8    7      4.73     -1.35
   27    0    8      5.07      3.66
   27    1    8     -1.50      4.28
   27    2    8     -1.50    -11.75
   27    3    8      8.34     -4.23
   27    4    8      0.30      3.89
   27    5    8     -2.33     -1.53
   27    6    8      4.61      5.32
   27    7    8     -0.53     -1.78
   27    0    9     -6.44      2.26
   27    1    9      2.41     -7.32
   27    2    9      0.33      0.26
   27    3    9     -0.84      1.87
   27    4    9      1.59     -4.26
   27    5    9      4.44     -3.07
   27    6    9     -5.07      4.62
   27    7    9     -3.40     -1.95
   27    0   10     -0.47     -4.42
   27    1   10     -1.24     10.93
   27    2   10     10.49      4.58
   27    3   10     -1.64     -0.61
   27    4   10      0.06     -2.33
   27    5   10      0.48     -3.26
   27    6   10      4.37     -3.64
   27    0   11      1.08      1.91
   27    1   11     -0.94     -1.95
   27    2   11     -2.29     -4.92
   27    3   11      4.10     -2.37
   27    4   11      1.11      3.39
   27    5   11     -2.55     -3.82
   27    0   12     -0.91     -0.98
   27    1   12     -3.26      0.62
   27    2   12      5.59      8.17
   27    3   12      5.12      2.48
   27    4   12      4.42     -6.37
   27    0   13     -0.66     -7.91
   27    1   13     -0.63      4.15
   28    0    0     -3.24     -0.45
   28    1    0     -4.69     -0.19
   28    2    0      4.02     -0.63
   28    3    0      3.53     -0.74
   28    4    0      8.65     -0.86
   28    5    0     -5.86      0.94
   28    6    0     -1.46      0.54
   28    7    0     -3.04      1.12
   28    8    0      2.39     -0.13
   28    9    0      5.65      0.03
   28    0    1     -4.43      0.03
   28    1    1      0.96      6.23
   28    2    1      4.89     -2.36
   28    3    1    -10.32     -2.43
   28    4    1      0.21     -8.12
   28    5    1      0.65      4.36
   28    6    1      0.19      5.69
   28    7    1     -2.37     -9.74
   28    8    1     -7.68     -0.34
   28    9    1     -7.28     -0.22
   28    0    2     13.95     -0.37
   28    1    2     10.05      0.97
   28    2    2      1.24     -5.56
   28    3    2      0.03      6.25
   28    4    2      3.62     -6.22
   28    5    2     -7.83      2.02
   28    6    2     -1.48     -6.39
   28    7    2      1.44      1.00
   28    8    2     -3.00     -2.33
   28    0    3     -7.65      0.72
   28    1    3     -0.62     -0.63
   28    2    3      1.48     -0.41
   28    3    3     -1.06      5.35
   28    4    3     -0.45     -2.99
   28    5    3      7.18      0.33
   28    6    3      0.54     -8.38
   28    7    3     -5.31     -2.22
   28    8    3     -2.12      3.14
   28    0    4     -2.60      1.27
   28    1    4      1.15      5.17
   28    2    4     -4.56      4.47
   28    3    4      8.52      7.39
   28    4    4     -1.22     -2.57
   28    5    4      3.14     -0.59
   28    6    4     -5.33     -4.69
   28    7    4      3.50      2.15
   28    8    4      6.48     -3.45
   28    0    5      6.30     -2.02
   28    1    5     -2.22      3.73
   28    2    5      0.08     -3.64
   28    3    5      2.80      2.99
   28    4    5     -8.18      2.05
   28    5    5      9.29      4.78
   28    6    5      6.20     -2.23
   28    7    5      2.14     -5.43
   28    8    5      2.79     -4.77
   28    0    6      3.48      0.67
   28    1    6      2.63     -2.96
   28    2    6     -5.39     -2.41
   28    3    6     -0.73     -5.94
   28    4    6     -4.72     -3.38
   28    5    6      3.01     -1.65
   28    6    6      2.02      1.95
   28    7    6     -2.16      0.83
   28    0    7     -7.87      0.35
   28    1    7      3.56      3.08
   28    2    7     -9.43      0.44
   28    3    7      1.28      3.21
   28    4    7     -4.69      5.04
   28    5    7     -2.90     -1.15
   28    6    7     -0.92      1.29
   28    7    7      3.99      7.10
   28    0    8      5.47      0.09
   28    1    8      1.56      1.85
   28    2    8      1.93      1.91
   28    3    8      6.12    -11.03
   28    4    8      0.86      3.61
   28    5    8      2.65     -4.73
   28    6    8      0.06     -8.37
   28    0    9      0.11      0.92
   28    1    9      1.10     -5.00
   28    2    9      0.74      0.44
   28    3    9      0.33     -2.43
   28    4    9     -6.98      1.38
   28    5    9      1.03      2.22
   28    6    9     -1.13     -0.40
   28    0   10     -0.10     -0.86
   28    1   10     -3.51     -3.73
   28    2   10      0.20      1.09
   28    3   10     -0.37     -2.09
   28    4   10      4.56     -1.65
   28    5   10     -1.46     -1.01
   28    0   11      7.17     -1.35
   28    1   11     12.10     -0.63
   28    2   11      1.42      0.59
   28    3   11      0.81     -3.32
   28    0   12      6.25      5.21
   28    1   12     -0.46      3.24
   29    1    0      3.24     -6.78
   29    2    0     13.98      1.94
   29    3    0     -5.08     -4.50
   29    4    0      2.75      0.12
   29    5    0      3.40      0.92
   29    6    0      2.18      0.25
   29    7    0     -4.02     -0.84
   29    8    0     -0.16     -0.65
   29    0    1      2.28     -4.90
   29    1    1     -0.46     -3.43
   29    2    1     -4.58     -0.42
   29    3    1     -0.01     -3.54
   29    4    1      3.79     -2.22
   29    5    1     -2.53      5.60
   29    6    1      0.55     11.15
   29    7    1     -2.50     -2.03
   29    8    1      4.34      1.69
   29    0    2      0.90     -5.17
   29    1    2      2.82      5.48
   29    2    2      0.42     -5.08
   29    3    2      4.05      7.29
   29    4    2     -4.08     -0.41
   29    5    2      1.65     -6.11
   29    6    2      5.04     -2.00
   29    7    2      5.33     -1.63
   29    8    2      6.03      7.77
   29    0    3      4.47      8.82
   29    1    3     -4.22      1.68
   29    2    3      4.71     -1.35
   29    3    3      3.97     -1.14
   29    4    3     12.22      0.20
   29    5    3      4.38      0.01
   29    6    3      0.12     -7.32
   29    7    3     -9.62     -0.14
   29    0    4     -8.93      1.47
   29    1    4      9.06      3.83
   29    2    4      3.34     -5.25
   29    3    4     -4.89      1.57
   29    4    4     -4.48      0.33
   29    5    4     -4.04      2.41
   29    6    4      1.21      6.38
   29    7    4     -1.35      7.77
   29    0    5      1.87      2.91
   29    1    5      4.79     -4.51
   29    2    5     -7.95      2.28
   29    3    5      6.62      2.24
   29    4    5     -3.40      1.88
   29    5    5      0.30      1.93
   29    6    5      7.25     -0.61
   29    7    5      2.52     -1.60
   29    0    6      0.40      3.24
   29    1    6      3.24      4.04
   29    2    6     -5.17     -4.98
   29    3    6      0.33      4.06
   29    4    6      5.18     -3.42
   29    5    6      3.83     -2.76
   29    6    6     -1.24     -3.32
   29    0    7      0.86     -4.36
   29    1    7      6.61      0.37
   29    2    7      0.73      4.21
   29    3    7      3.32     -2.84
   29    4    7      1.71      4.84
   29    5    7     -6.80      2.30
   29    6    7     -0.22      7.27
   29    0    8     -4.88     16.69
   29    1    8      3.17     -5.96
   29    2    8     -0.89      4.73
   29    3    8     -2.21     -2.10
   29    4    8     -3.79     -7.38
   29    5    8      7.11      2.29
   29    0    9      3.76      3.03
   29    1    9      3.97      1.35
   29    2    9     -1.63     -0.89
   29    3    9      0.75      1.07
   29    4    9     -4.40     -0.76
   29    0   10     -0.42      1.02
   29    1   10     -3.29     -3.46
   29    2   10     -6.54      3.69
   29    3   10      5.13      2.29
   29    0   11     -1.42      3.88
   30    0    0      2.09     -0.99
   30    1    0      8.02     -2.03
   30    2    0      2.84     -0.36
   30    3    0      3.53     -0.73
   30    4    0     -4.30      0.60
   30    5    0      1.29      0.67
   30    6    0      3.74     -0.05
   30    7    0      3.14     -0.67
   30    0    1     -0.40     -0.28
   30    1    1     -6.25     -1.88
   30    2    1     -1.00     -4.16
   30    3    1      2.31      4.89
   30    4    1      6.13     -3.06
   30    5    1      2.15     -4.16
   30    6    1     -6.49      1.02
   30    7    1      1.82      2.21
   30    0    2     -8.92      1.85
   30    1    2     -1.97      5.41
   30    2    2     -0.16      9.23
   30    3    2     -5.48     -5.89
   30    4    2     -1.34     -0.17
   30    5    2      1.87      0.23
   30    6    2     -0.28      3.75
   30    7    2      1.64     -2.25
   30    0    3      6.41     -0.79
   30    1    3      0.97     -2.55
   30    2    3      0.79     -3.24
   30    3    3      4.21      5.14
   30    4    3      2.08      5.30
   30    5    3     -1.55      0.96
   30    6    3     -4.00     -1.06
   30    0    4      0.52      0.31
   30    1    4     -2.93     -1.12
   30    2    4      0.42     -3.14
   30    3    4     -7.22     -2.49
   30    4    4      0.24     -3.71
   30    5    4      7.94     -1.60
   30    6    4      5.23      2.81
   30    0    5     -3.42      1.91
   30    1    5      1.73     -2.13
   30    2    5     -1.61      3.94
   30    3    5     -0.59      1.72
   30    4    5      1.69      2.42
   30    5    5     -2.72     -3.09
   30    6    5     -0.09     -4.62
   30    0    6      2.71     -1.50
   30    1    6     -7.19      4.40
   30    2    6     -2.06     -1.21
   30    3    6      6.98     -1.91
   30    4    6      4.29      2.03
   30    5    6     -3.30      3.31
   30    0    7      4.05      0.62
   30    1    7     -0.06     -1.08
   30    2    7      3.72     -2.22
   30    3    7    -10.16     -3.88
   30    4    7      1.79      0.19
   30    0    8     -3.18      0.25
   30    1    8      4.95      1.69
   30    2    8     -2.29     -4.97
   30    3    8    -11.14      8.16
   30    4    8     -0.23      3.34
   30    0    9      6.76     -0.75
   30    1    9     -2.85      1.34
   30    2    9     -0.30     -1.30
   31    1    0     -1.75      6.71
   31    2    0     -8.09     -0.39
   31    3    0      6.53      3.68
   31    4    0     -8.23     -0.38
   31    5    0     -4.81     -0.63
   31    0    1     -1.19      1.30
   31    1    1     -2.23     -2.71
   31    2    1      2.81     -6.19
   31    3    1      1.78      2.22
   31    4    1     -6.69      1.17
   31    5    1      2.97     -4.80
   31    0    2     -3.82      0.76
   31    1    2     -2.72     -3.29
   31    2    2     -5.32      2.08
   31    3    2    -10.61     -5.89
   31    4    2      6.18      2.07
   31    5    2      8.19      0.53
   31    0    3     -4.05     -4.40
   31    1    3      3.37      5.13
   31    2    3     -3.13     -0.70
   31    3    3      5.14      0.54
   31    4    3    -10.69     -2.49
   31    5    3     -4.70     -9.45
   31    0    4      5.26      2.76
   31    1    4     -3.22     -1.35
   31    2    4     -0.81     -5.16
   31    3    4     10.02     -7.79
   31    4    4      1.33      1.04
   31    5    4     -0.44     -3.90
   31    0    5     -2.28      0.11
   31    1    5     -4.32      2.66
   31    2    5      2.75      2.07
   31    3    5     -3.84     -1.26
   31    4    5      5.78     -1.61
   31    0    6     -0.58      2.68
   31    1    6      4.40     -8.59
   31    2    6     -3.85      4.62
   31    3    6     -0.21     -2.81
   31    4    6      3.33      7.18
   31    0    7     -1.91     -1.27
   31    1    7     -4.49      2.30
   31    2    7     -2.18     -3.31
   31    0    8      2.31    -10.14
   32    0    0      4.59      1.51
   32    1    0     -7.70     -0.71
   32    2    0     -3.71      0.53
   32    3    0      2.19     -0.51
   32    4    0     -1.67     -0.50
   32    0    1     -3.76      0.05
   32    1    1     -0.17     -1.65
   32    2    1     -1.10      2.79
   32    3    1      2.02     -1.85
   32    4    1     -1.14      6.23
   32    0    2      5.15     -1.37
   32    1    2      0.72     -2.74
   32    2    2      0.67     -1.82
   32    3    2      5.07      2.87
   32    4    2      4.10     -0.26
   32    0    3     -2.04      0.73
   32    1    3      3.40      2.13
   32    2    3      1.88     -1.17
   32    3    3     -1.94     -6.51
   32    0    4      0.37     -0.49
   32    1    4     -3.18     -2.37
   32    2    4     -1.30      2.62
   32    3    4      1.90     -1.46
   32    0    5      2.41     -0.55
   32    1    5     -2.03      1.84
   32    2    5     -3.36     -0.77
   33    1    0     -0.68     -6.30
   33    0    1     -0.28      2.41
   33    1    1     -0.84      4.21
    2    0    0   -768.96      3.41
    4    0    0    -51.82      1.60
    3    2    0   -277.73      1.04
    5    2    0    147.31     -0.79
    7    2    0    120.32     -0.96
   33    2    0     -0.78      0.16
   33    3    0     -6.07     -0.50
    0    4    0   -190.26      0.29
    2    4    0    -28.57      0.63
    3    4    0     99.42     -1.20
   33    4    0      4.73      0.47
   32    5    0     -3.50     -0.08
   33    5    0      2.89      0.61
   31    6    0     -6.95     -0.38
   32    6    0      0.75      0.09
   33    6    0      1.87      0.39
   31    7    0      1.02     -0.03
   32    7    0      1.71      0.83
   33    7    0      4.44     -0.22
   30    8    0    -11.34      0.25
   31    8    0     -0.94      0.36
   32    8    0      5.41      0.04
   33    8    0     -3.85     -0.04
   29    9    0     -4.20      0.18
   30    9    0      1.28     -0.83
   31    9    0      1.55     -0.18
   32    9    0     -0.80      0.92
   33    9    0     -2.39      0.02
   27   10    0     -8.90      0.16
   28   10    0     -0.41      0.70
   29   10    0      2.73     -0.44
   30   10    0     -2.51     -0.69
   31   10    0      1.24     -0.17
   32   10    0      1.50      0.16
   33   10    0      2.85      0.09
   26   11    0     -0.22     -1.05
   27   11    0      1.43     -0.81
   28   11    0     -0.47      0.59
   29   11    0      3.14      0.82
   30   11    0     -4.01      0.42
   31   11    0      0.43      0.48
   32   11    0     -0.22      0.35
   33   11    0     -1.72      0.21
   24   12    0      1.92     -0.11
   25   12    0      6.59     -0.30
   26   12    0     -2.05      0.02
   27   12    0     -5.86      0.22
   28   12    0      6.28     -0.07
   29   12    0      4.53      0.16
   30   12    0      1.97      0.23
   31   12    0     -3.34     -0.23
   32   12    0     -2.84     -0.09
   33   12    0      2.32     -0.11
   22   13    0      2.13      0.17
   23   13    0     12.14     -0.34
   24   13    0     -0.17     -1.40
   25   13    0     -1.91      0.56
   26   13    0     -1.13      0.22
   27   13    0     -1.82      0.65
   28   13    0      0.84      0.77
   29   13    0     -1.95     -0.39
   30   13    0     -0.02      0.14
   31   13    0     -1.79      0.18
   32   13    0      0.27      0.06
   33   13    0      3.68     -0.52
   19   14    0      3.96      0.09
   20   14    0    -13.25      0.42
   21   14    0      1.56     -0.01
   22   14    0      3.28     -0.33
   23   14    0      2.51      0.16
   24   14    0      0.35      0.34
   25   14    0      3.04     -0.11
   26   14    0      2.14     -0.16
   27   14    0     -1.31     -0.13
   28   14    0     -5.20     -0.21
   29   14    0     -1.82      0.29
   30   14    0      2.50     -0.06
   31   14    0     -0.15     -0.26
   32   14    0     -1.10      0.06
   33   14    0      0.07     -0.09
   16   15    0     -1.54     -0.22
   17   15    0     -2.83     -0.02
   18   15    0      3.14      0.42
   19   15    0      3.13     -0.23
   20   15    0     -3.32     -0.51
   21   15    0     -0.70     -0.24
   22   15    0      3.20      0.33
   23   15    0     -2.68     -0.23
   24   15    0     -0.06     -0.06
   25   15    0      2.68      0.36
   26   15    0     -3.35      0.44
   27   15    0     -0.30      0.16
   28   15    0     -0.35     -0.64
   29   15    0     -1.14      0.23
   30   15    0      0.22      0.33
   31   15    0      0.75     -0.11
   32   15    0      2.13     -0.41
   33   15    0     -0.30     -0.22
   11   16    0     -0.55     -0.90
   12   16    0      4.86     -0.03
   13   16    0      4.22      0.13
   14   16    0     -6.75     -0.12
   15   16    0     -0.49     -0.15
   16   16    0     -3.42      0.01
   17   16    0     -3.31      0.15
   18   16    0      5.37      0.15
   19   16    0      0.60     -0.01
   20   16    0      1.73      0.19
   21   16    0      0.27     -0.15
   22   16    0     -1.45     -0.10
   23   16    0      0.09     -0.01
   24   16    0     -1.42      0.09
   25   16    0     -1.47      0.06
   26   16    0      3.14     -0.09
   27   16    0      0.68      0.04
   28   16    0     -1.29     -0.24
   29   16    0     -0.45     -0.10
   30   16    0     -0.81     -0.04
   31   16    0      0.85      0.18
   32   16    0     -0.17      0.16
    0    0    1   -254.61      0.20
    0    1    1      0.97   -131.84
   33    2    1      0.71      3.06
   33    3    1      0.75     -2.12
   33    4    1      1.85      4.12
   32    5    1     -0.72      2.02
   33    5    1     -0.20      1.59
   31    6    1     -1.83      0.29
   32    6    1      4.82      0.54
   33    6    1     -1.75     -1.46
   31    7    1      2.50     -1.20
   32    7    1      0.92      0.36
   33    7    1     -0.53      0.34
   30    8    1     -0.45      2.05
   31    8    1     -1.75     -1.14
   32    8    1     -1.04     -1.08
   33    8    1      0.90     -2.03
   29    9    1      3.40      5.80
   30    9    1      7.32     -1.60
   31    9    1     -0.17      1.69
   32    9    1     -1.56      2.93
   33    9    1     -0.68      0.11
   27   10    1     -3.78     -2.96
   28   10    1     -0.03     -3.06
   29   10    1      1.12      2.42
   30   10    1     -0.24      1.73
   31   10    1      0.38      0.84
   32   10    1     -0.71     -0.32
   33   10    1      0.73     -1.40
   26   11    1      2.64      9.01
   27   11    1     -1.64      0.84
   28   11    1      0.08      1.09
   29   11    1      0.89     -1.13
   30   11    1     -1.33     -1.65
   31   11    1     -0.96      0.17
   32   11    1     -1.74     -1.11
   33   11    1      0.47     -0.45
   24   12    1     -4.83     -1.12
   25   12    1     -0.14      1.48
   26   12    1      2.42     -1.38
   27   12    1      3.62      1.64
   28   12    1      2.37      2.57
   29   12    1     -3.60     -0.69
   30   12    1      1.08     -0.71
   31   12    1     -0.55     -1.73
   32   12    1     -3.33     -1.93
   33   12    1      0.27      0.35
   22   13    1     -2.75      4.09
   23   13    1     -4.65     -3.07
   24   13    1      3.79     -9.76
   25   13    1      2.11      4.05
   26   13    1     -3.60      1.95
   27   13    1     -1.67     -0.89
   28   13    1      0.93      2.35
   29   13    1     -0.36      0.94
   30   13    1     -0.17     -0.41
   31   13    1      2.02     -3.06
   32   13    1      0.28     -0.30
   33   13    1     -1.06      0.74
   19   14    1     -1.17     -4.28
   20   14    1      4.24     -0.40
   21   14    1      2.33      3.84
   22   14    1     -2.63     -2.24
   23   14    1      1.13      2.75
   24   14    1     -1.27      2.11
   25   14    1      0.09     -4.12
   26   14    1     -1.90     -0.67
   27   14    1      1.71      1.29
   28   14    1     -0.73      1.14
   29   14    1     -2.16     -1.27
   30   14    1      0.20     -1.64
   31   14    1     -1.30      0.77
   32   14    1      1.51      1.08
   33   14    1      1.62      0.18
   16   15    1      3.03      4.40
   17   15    1      8.09      6.17
   18   15    1     -2.45     -4.02
   19   15    1     -6.18     -3.29
   20   15    1     -0.44     -0.03
   21   15    1      0.73     -2.85
   22   15    1     -0.64      2.89
   23   15    1      2.36     -0.72
   24   15    1      1.01      0.31
   25   15    1      0.06     -0.67
   26   15    1     -1.26     -3.21
   27   15    1     -0.92      4.57
   28   15    1     -0.28     -0.01
   29   15    1      0.10     -2.63
   30   15    1      0.75      1.12
   31   15    1     -0.63      0.27
   32   15    1      0.98      0.16
   33   15    1      1.14     -0.21
   11   16    1     -0.45     -0.54
   12   16    1      1.24      1.64
   13   16    1      1.58      0.31
   14   16    1     -3.17     -3.09
   15   16    1      1.96     -1.17
   16   16    1     -0.62      1.69
   17   16    1      2.20      0.69
   18   16    1      1.53     -1.94
   19   16    1     -0.80     -1.67
   20   16    1     -0.46      0.99
   21   16    1     -2.64      1.20
   22   16    1     -0.93      2.49
   23   16    1     -0.61      0.33
   24   16    1      1.42     -1.06
   25   16    1     -0.38     -1.61
   26   16    1      0.88     -0.88
   27   16    1      0.09      0.92
   28   16    1     -1.26     -0.44
   29   16    1      1.00      0.51
   30   16    1      0.45      0.06
   31   16    1      0.50      0.10
   32   16    1     -0.33      0.50
   33    0    2      4.09      3.36
    0    1    2     -1.39    314.82
   33    1    2      2.92     -0.62
   33    2    2      5.21     -2.98
   33    3    2      7.02      1.17
   33    4    2     -4.53     -5.01
   32    5    2      5.40     -4.44
   33    5    2     -5.14      0.01
   31    6    2     -6.59      4.50
   32    6    2     -1.61     -0.60
   33    6    2      3.03      1.68
   31    7    2     -1.94     -7.19
   32    7    2     -6.85      5.50
   33    7    2     -1.27      5.51
   30    8    2     -3.23      4.20
   31    8    2     -2.06     -7.93
   32    8    2      4.74     -1.68
   33    8    2     -0.12      2.99
   28    9    2     -4.12     -5.97
   29    9    2     -5.08      3.80
   30    9    2     -0.76     -1.50
   31    9    2      0.93      2.67
   32    9    2      2.87      2.54
   33    9    2      3.49     -3.23
   27   10    2     -0.54     -0.82
   28   10    2      4.91      1.76
   29   10    2      1.26      3.01
   30   10    2     -1.60     -1.51
   31   10    2      1.55     -0.03
   32   10    2     -2.58      0.75
   33   10    2      0.61     -2.35
   26   11    2     -5.12     -3.55
   27   11    2     -1.20     -7.39
   28   11    2      1.96      6.30
   29   11    2      0.58      5.83
   30   11    2      3.72      0.41
   31   11    2      2.99     -1.19
   32   11    2     -0.36     -3.29
   33   11    2     -1.81      2.89
   24   12    2     -1.77      3.94
   25   12    2      2.62     -1.79
   26   12    2     -0.53      0.51
   27   12    2      6.53     -0.37
   28   12    2      3.24      0.58
   29   12    2     -5.14     -0.39
   30   12    2      0.13     -1.00
   31   12    2     -5.46      0.84
   32   12    2     -1.94     -0.95
   33   12    2      2.55     -0.04
   21   13    2      6.06     -0.41
   22   13    2      1.96     -3.35
   23   13    2     -4.70     -1.59
   24   13    2     -0.97      0.83
   25   13    2     -1.57      0.94
   26   13    2      4.58      0.15
   27   13    2      2.62      3.97
   28   13    2     -2.83      1.32
   29   13    2     -0.10     -1.50
   30   13    2      0.20      2.45
   31   13    2      1.26     -3.66
   32   13    2     -1.88     -1.79
   33   13    2     -1.37      0.75
   19   14    2     -5.58      0.89
   20   14    2      4.19     -0.93
   21   14    2      3.34     -0.12
   22   14    2      1.50     -0.48
   23   14    2      0.96     -0.15
   24   14    2     -1.27      2.74
   25   14    2     -0.11      3.40
   26   14    2     -2.30     -4.01
   27   14    2     -0.20     -1.84
   28   14    2     -1.54     -1.07
   29   14    2      0.51     -1.43
   30   14    2     -0.42      2.52
   31   14    2     -1.71     -1.42
   32   14    2      2.14      0.22
   33   14    2      1.61      1.66
   15   15    2     -1.33      0.29
   16   15    2      1.66      0.15
   17   15    2     -2.42     -5.15
   18   15    2     -1.89      0.92
   19   15    2      3.90      0.07
   20   15    2     -1.51     -1.44
   21   15    2     -2.95     -0.22
   22   15    2      1.16     -0.29
   23   15    2      4.02      0.65
   24   15    2     -0.06      1.26
   25   15    2     -0.50      0.12
   26   15    2     -0.02      1.53
   27   15    2     -1.64      1.18
   28   15    2     -1.86     -2.33
   29   15    2     -0.49      1.12
   30   15    2      3.70     -1.17
   31   15    2      1.24     -2.46
   32   15    2     -1.02      0.71
   33   15    2     -1.09      0.96
   11   16    2      0.13      2.96
   12   16    2     -2.84     -1.16
   13   16    2     -1.62     -0.55
   14   16    2      0.20      1.63
   15   16    2      1.84      0.32
   16   16    2      0.47     -1.65
   17   16    2      1.08     -0.25
   18   16    2     -0.04      0.84
   19   16    2      0.60     -0.77
   20   16    2     -2.31      1.55
   21   16    2     -0.77      2.00
   22   16    2      1.97     -1.23
   23   16    2     -2.00     -3.00
   24   16    2      0.24      0.07
   25   16    2      0.00      0.81
   26   16    2     -0.53      0.13
   27   16    2     -0.41     -0.61
   28   16    2      0.43     -1.41
   29   16    2      0.86      1.78
   30   16    2      0.47      1.51
   31   16    2      1.48     -0.13
   32   16    2      0.10     -0.80
   33    0    3      2.24     -4.75
   33    1    3     -0.48     -2.87
   33    2    3      1.97      2.93
   33    3    3     -5.31     -1.67
   32    4    3     -2.74     -4.78
   33    4    3      7.13      4.16
   32    5    3     -0.67      1.19
   33    5    3      0.53      3.01
   31    6    3     -3.19      0.39
   32    6    3      1.95      4.46
   33    6    3      1.21      1.49
   30    7    3      2.06     -2.94
   31    7    3      2.28      3.51
   32    7    3     -2.61      2.66
   33    7    3     -0.31     -1.52
   29    8    3     -0.93     -5.78
   30    8    3     -1.95      1.60
   31    8    3      2.67     10.88
   32    8    3      1.52      2.53
   33    8    3     -0.52     -5.06
   28    9    3     -0.39      0.03
   29    9    3     -1.33     -0.29
   30    9    3     -4.40     -0.58
   31    9    3     -0.94     -1.92
   32    9    3      1.59     -3.94
   33    9    3      1.38      1.56
   27   10    3     -0.31      6.26
   28   10    3      1.47     -0.02
   29   10    3     -2.80      3.20
   30   10    3      4.12      3.88
   31   10    3     -1.72     -5.74
   32   10    3     -3.13     -4.47
   33   10    3      0.60     -0.54
   25   11    3     -2.24     -2.98
   26   11    3     -4.07     -3.48
   27   11    3     -3.65     -2.31
   28   11    3      0.80      1.84
   29   11    3      3.28      0.77
   30   11    3      2.56     -0.46
   31   11    3      0.21      2.47
   32   11    3      1.16     -0.37
   33   11    3      0.89     -2.01
   23   12    3     -6.22     -0.99
   24   12    3      3.81      1.86
   25   12    3      2.12      2.01
   26   12    3     -4.59      0.18
   27   12    3      0.25     -3.51
   28   12    3     -1.22     -2.20
   29   12    3      1.36     -0.43
   30   12    3      1.71     -0.07
   31   12    3     -1.90      0.87
   32   12    3      0.02      0.86
   33   12    3      0.94      1.02
   21   13    3     -6.81      0.81
   22   13    3      3.17      0.44
   23   13    3      4.27      0.46
   24   13    3      4.21      0.52
   25   13    3     -2.51     -0.14
   26   13    3     -4.37     -0.14
   27   13    3      0.54      0.43
   28   13    3      0.17      0.99
   29   13    3      2.78     -1.76
   30   13    3      0.18     -0.28
   31   13    3     -1.44     -0.86
   32   13    3      0.37     -0.59
   33   13    3      0.73      1.32
   19   14    3      6.49      3.11
   20   14    3     -4.72     -0.32
   21   14    3      1.23     -2.76
   22   14    3     -4.08     -1.04
   23   14    3     -0.26     -0.12
   24   14    3      2.41     -3.62
   25   14    3     -0.15      1.51
   26   14    3      0.93      3.06
   27   14    3     -0.36     -0.56
   28   14    3     -1.28     -1.83
   29   14    3      0.03     -0.47
   30   14    3      0.62      1.40
   31   14    3      0.84      0.78
   32   14    3     -0.31     -0.39
   33   14    3     -0.86     -1.11
   15   15    3     -1.05      1.32
   16   15    3     -1.97     -2.54
   17   15    3      1.45     -4.79
   18   15    3      2.96      5.35
   19   15    3      3.40      1.55
   20   15    3     -2.14     -0.46
   21   15    3     -0.03      1.51
   22   15    3     -1.81     -0.85
   23   15    3     -2.25     -4.88
   24   15    3      2.05     -1.23
   25   15    3     -0.09      3.58
   26   15    3     -2.38      2.20
   27   15    3      1.29     -0.23
   28   15    3      2.50     -3.38
   29   15    3     -1.31      0.52
   30   15    3      0.55      1.61
   31   15    3     -0.69     -0.82
   32   15    3      0.20     -0.50
   33   15    3      1.10      0.46
   10   16    3      0.27     -5.65
   11   16    3      0.63     -0.96
   12   16    3      5.08      6.44
   13   16    3     -2.42      3.01
   14   16    3     -6.93     -0.83
   15   16    3      0.08      0.29
   16   16    3      1.47      0.18
   17   16    3      0.80     -1.07
   18   16    3      2.32      0.49
   19   16    3     -0.64      0.10
   20   16    3     -0.84     -2.70
   21   16    3     -1.08     -1.87
   22   16    3     -1.27      2.04
   23   16    3      2.25      1.32
   24   16    3      1.82      0.17
   25   16    3     -1.54     -0.69
   26   16    3      0.26     -0.84
   27   16    3     -0.76      0.33
   28   16    3      0.08      0.31
   29   16    3      1.46     -0.08
   30   16    3      0.08     -0.88
   31   16    3     -0.18      0.12
   32   16    3     -0.94      0.95
    0    0    4    162.30     -2.21
   33    0    4     -1.68     -1.51
   33    1    4     -1.70      1.46
   33    2    4      0.29      3.45
   33    3    4     -2.55      4.75
   32    4    4      0.74      5.95
   33    4    4      2.31     -0.90
   32    5    4     -6.70      4.97
   33    5    4     -1.13      2.53
   31    6    4      5.89      2.24
   32    6    4      2.22     -4.42
   33    6    4     -6.91     -4.79
   30    7    4     -6.72      0.26
   31    7    4     -2.06     -3.70
   32    7    4      3.21      1.98
   33    7    4      1.70     -0.14
   29    8    4      1.66      1.59
   30    8    4     -5.34      3.71
   31    8    4      0.07     -0.51
   32    8    4     -5.09     -3.22
   33    8    4     -0.51      2.36
   28    9    4     -5.60      3.33
   29    9    4     -7.29      7.19
   30    9    4      4.20     -7.51
   31    9    4      1.03     -2.69
   32    9    4     -2.33      0.26
   33    9    4      2.02      1.14
   27   10    4     -1.83     -5.66
   28   10    4      4.18      0.04
   29   10    4     -4.36      2.01
   30   10    4     -1.23      3.30
   31   10    4     -3.97     -1.27
   32   10    4      1.66      2.77
   33   10    4      2.13     -0.52
   25   11    4     -0.95      4.13
   26   11    4     -1.00      7.26
   27   11    4     -0.83     -3.53
   28   11    4     -2.97      4.93
   29   11    4     -0.11      0.01
   30   11    4      2.14     -1.38
   31   11    4      0.63     -0.81
   32   11    4      1.02     -3.17
   33   11    4      0.91      0.98
   23   12    4     -1.56     -3.56
   24   12    4      5.95      5.14
   25   12    4     -0.94     -2.94
   26   12    4     -2.00     -3.42
   27   12    4      2.39      3.29
   28   12    4     -3.67      2.56
   29   12    4     -0.09      0.12
   30   12    4     -1.05     -1.60
   31   12    4      0.84      0.88
   32   12    4      1.35     -1.68
   33   12    4     -0.62      0.37
   21   13    4      0.99     -1.43
   22   13    4      2.64     -2.66
   23   13    4     -0.98      0.31
   24   13    4      0.25      5.51
   25   13    4      0.09      5.01
   26   13    4     -0.56     -2.31
   27   13    4     -0.35      2.13
   28   13    4     -2.31     -2.54
   29   13    4      1.62     -2.90
   30   13    4      2.72     -1.49
   31   13    4      0.17     -3.39
   32   13    4     -0.58      2.11
   33   13    4     -0.05      0.95
   18   14    4      5.52     -0.93
   19   14    4      3.53     -5.00
   20   14    4     -1.34     -0.97
   21   14    4      3.58      1.53
   22   14    4     -0.98     -1.45
   23   14    4      1.20      2.56
   24   14    4      1.28     -1.82
   25   14    4     -2.33     -0.89
   26   14    4     -1.05      2.53
   27   14    4     -0.99      0.13
   28   14    4     -0.43      3.21
   29   14    4     -1.37     -1.63
   30   14    4      0.40     -2.09
   31   14    4      2.06      0.97
   32   14    4      0.07      0.13
   33   14    4      0.89     -0.18
   15   15    4      0.31     -2.82
   16   15    4      1.93      2.84
   17   15    4      3.66     -0.28
   18   15    4     -1.03     -5.61
   19   15    4     -0.89      2.39
   20   15    4      0.22      4.02
   21   15    4      1.04     -0.84
   22   15    4     -1.02      3.60
   23   15    4     -0.68      0.13
   24   15    4     -1.01     -1.56
   25   15    4     -0.95     -2.37
   26   15    4      2.24     -3.57
   27   15    4      0.44      0.01
   28   15    4      0.42      1.79
   29   15    4     -0.46      0.14
   30   15    4     -0.91     -0.75
   31   15    4     -0.33      1.78
   32   15    4      0.23      0.77
   33   15    4      1.34      0.46
    9   16    4      3.38      1.01
   10   16    4      2.76      4.53
   11   16    4     -5.98      0.13
   12   16    4     -2.69     -4.86
   13   16    4      0.51     -2.84
   14   16    4     -0.48      2.34
   15   16    4     -0.13      1.70
   16   16    4     -2.01      0.36
   17   16    4      2.23     -1.20
   18   16    4      4.90     -2.81
   19   16    4      0.83     -1.88
   20   16    4     -0.07      1.56
   21   16    4     -0.86      2.90
   22   16    4     -0.97      1.50
   23   16    4     -0.91      0.29
   24   16    4     -1.21      0.11
   25   16    4     -0.80     -1.03
   26   16    4      0.32     -0.60
   27   16    4      1.09     -0.29
   28   16    4      1.07     -1.05
   29   16    4     -0.73     -0.13
   30   16    4      0.14     -0.33
   31   16    4      0.62      1.08
   32   16    4      0.12      0.56
    0    0    5   -168.11      0.05
   33    0    5      1.58     -1.41
   33    1    5      2.66     -2.60
   33    2    5     -1.27     -0.70
   32    3    5      0.29     -0.09
   33    3    5      2.34     -0.44
   32    4    5      4.71      0.42
   33    4    5     -2.53     -1.75
   31    5    5     -0.02     -3.30
   32    5    5      0.33     -2.72
   33    5    5     -1.72      1.02
   31    6    5     -0.40     -0.91
   32    6    5     -1.90      2.42
   33    6    5      0.92      0.43
   30    7    5     -3.71      1.89
   31    7    5     -3.17     -2.47
   32    7    5     -0.53      1.37
   33    7    5      0.50      4.00
   29    8    5     -2.80      1.22
   30    8    5      0.23     -0.04
   31    8    5     -0.43      0.01
   32    8    5     -2.09      1.35
   33    8    5     -1.22     -0.25
   28    9    5     -0.77      4.53
   29    9    5     -5.88      2.16
   30    9    5     -2.28      0.45
   31    9    5      3.81      1.70
   32    9    5      2.57     -1.11
   33    9    5      0.52     -2.37
   26   10    5     -2.24      0.95
   27   10    5      5.72     -2.52
   28   10    5      2.63     -1.83
   29   10    5     -3.70      0.57
   30   10    5     -1.68      2.69
   31   10    5      2.36      1.17
   32   10    5      0.51      0.31
   33   10    5      0.03      0.15
   25   11    5      0.23     -0.80
   26   11    5      5.20     -3.41
   27   11    5      1.20      3.86
   28   11    5     -4.49      4.64
   29   11    5     -4.05     -1.73
   30   11    5      2.87     -1.37
   31   11    5      3.82     -3.02
   32   11    5     -0.84     -0.81
   33   11    5     -0.25      2.11
   23   12    5     -2.83     -4.31
   24   12    5      1.86     -4.19
   25   12    5      0.06      2.30
   26   12    5      4.73      0.93
   27   12    5      4.95     -0.73
   28   12    5     -4.26     -2.65
   29   12    5     -2.15      3.47
   30   12    5      1.23      2.70
   31   12    5     -0.77     -2.09
   32   12    5     -0.26     -0.80
   33   12    5     -0.45      0.30
   20   13    5      6.49     -4.94
   21   13    5     -1.61      0.92
   22   13    5     -2.79      6.84
   23   13    5      0.74     -0.77
   24   13    5     -0.87     -4.08
   25   13    5      2.19      0.03
   26   13    5      0.09      0.56
   27   13    5     -0.76      0.23
   28   13    5      2.49     -0.37
   29   13    5     -2.08      0.01
   30   13    5     -1.62     -0.52
   31   13    5      3.07     -1.48
   32   13    5     -0.21      0.99
   33   13    5     -1.54      0.69
   18   14    5     -3.49     -1.63
   19   14    5     -1.19     -1.17
   20   14    5      3.67     -1.15
   21   14    5      2.49      1.91
   22   14    5      1.74     -3.17
   23   14    5      3.53     -0.69
   24   14    5     -1.40      3.51
   25   14    5     -2.59     -0.86
   26   14    5      0.91      0.15
   27   14    5     -0.26     -1.02
   28   14    5     -2.10      0.06
   29   14    5     -0.28      0.74
   30   14    5     -0.41      2.56
   31   14    5      1.02      0.53
   32   14    5      1.50     -2.59
   33   14    5     -0.45     -0.37
   14   15    5      2.62      1.66
   15   15    5     -6.01      1.55
   16   15    5     -1.48     -2.45
   17   15    5      1.42      1.11
   18   15    5     -1.60      3.52
   19   15    5      2.01     -0.97
   20   15    5     -0.74     -0.08
   21   15    5      0.22     -1.31
   22   15    5      1.42     -2.01
   23   15    5      1.85      0.82
   24   15    5      1.02      1.16
   25   15    5     -0.38     -2.91
   26   15    5     -1.73     -0.83
   27   15    5     -2.26      2.62
   28   15    5      1.27      0.76
   29   15    5      0.86      0.88
   30   15    5     -0.24     -0.50
   31   15    5      0.78     -0.33
   32   15    5      0.31      0.05
   33   15    5     -1.30     -0.08
    8   16    5      2.64      2.33
    9   16    5     -3.60      4.39
   10   16    5     -1.40     -1.91
   11   16    5      1.21      0.13
   12   16    5     -3.11      0.72
   13   16    5     -3.30     -0.66
   14   16    5      2.09     -2.61
   15   16    5      2.04     -1.37
   16   16    5     -2.76      2.62
   17   16    5     -0.24      0.91
   18   16    5      1.51     -0.23
   19   16    5      1.45     -1.20
   20   16    5      1.71      0.28
   21   16    5      0.08     -0.52
   22   16    5      0.23      0.07
   23   16    5     -1.20      2.16
   24   16    5     -2.41     -0.59
   25   16    5      0.77      0.01
   26   16    5      0.34     -0.82
   27   16    5     -0.95      0.38
   28   16    5      1.16      0.24
   29   16    5     -1.00      0.07
   30   16    5      0.55      1.54
   31   16    5      1.51     -1.44
   32   16    5     -0.76     -1.01
   32    0    6     -5.77      1.04
   33    0    6     -0.01     -2.77
    0    1    6      0.22     77.76
   32    1    6      2.41     -0.87
   33    1    6     -6.16      5.08
   32    2    6      5.38      0.71
   33    2    6      4.41     -2.14
   32    3    6     -5.86      1.16
   33    3    6      0.87      1.67
   32    4    6      0.90     -1.02
   33    4    6     -3.10     -2.93
   31    5    6     -5.22     -0.01
   32    5    6      5.15     -2.72
   33    5    6      3.91      2.38
   30    6    6     -1.31      2.73
   31    6    6      1.32      1.82
   32    6    6     -2.12     -1.69
   33    6    6     -1.81     -2.16
   29    7    6     -1.50      1.80
   30    7    6      2.21      1.70
   31    7    6      0.38     -0.46
   32    7    6      0.11      1.21
   33    7    6     -1.01     -1.24
   28    8    6     -0.43     -2.45
   29    8    6     -3.48     -2.26
   30    8    6     -1.10     -1.94
   31    8    6      0.18     -3.18
   32    8    6      0.42      0.27
   33    8    6      1.46      2.01
   27    9    6     -0.86     -0.10
   28    9    6     -1.04      0.94
   29    9    6      4.31      0.04
   30    9    6     -4.22     -0.42
   31    9    6     -0.47      0.09
   32    9    6      0.44     -2.32
   33    9    6     -1.46      0.36
   26   10    6      3.60      0.81
   27   10    6      3.71     -0.64
   28   10    6     -8.12     -4.68
   29   10    6     -0.46      0.10
   30   10    6      8.73      2.34
   31   10    6     -2.18     -0.77
   32   10    6     -1.27      0.26
   33   10    6      1.09      0.39
   24   11    6     -0.37     -4.42
   25   11    6     -4.14      4.28
   26   11    6     -0.47     -2.50
   27   11    6     -1.24     -0.82
   28   11    6      6.12      0.81
   29   11    6     -2.27     -2.01
   30   11    6     -2.29      2.38
   31   11    6      0.94     -1.20
   32   11    6     -1.15     -1.51
   33   11    6      0.62      0.32
   22   12    6      6.47      2.18
   23   12    6     -1.05      1.48
   24   12    6      2.02      4.50
   25   12    6      0.50     -0.98
   26   12    6     -1.02     -4.95
   27   12    6     -2.83      0.08
   28   12    6      0.01     -0.40
   29   12    6      1.88      1.87
   30   12    6     -2.23      3.00
   31   12    6      1.81      1.53
   32   12    6      1.09     -0.21
   33   12    6     -0.36     -1.62
   20   13    6      0.99      0.40
   21   13    6     -2.51      2.81
   22   13    6      6.56      0.49
   23   13    6      1.80     -3.08
   24   13    6     -3.65      2.89
   25   13    6     -0.07     -2.45
   26   13    6     -3.00     -2.36
   27   13    6      1.12      2.19
   28   13    6      0.41     -1.53
   29   13    6      2.07     -0.19
   30   13    6     -0.64      1.81
   31   13    6     -3.23     -0.18
   32   13    6      1.61     -0.95
   33   13    6      0.47      0.50
   17   14    6      0.56     -1.74
   18   14    6      6.48      3.70
   19   14    6     -1.46      0.77
   20   14    6     -0.93     -1.80
   21   14    6      4.39      1.36
   22   14    6      0.36     -2.13
   23   14    6     -0.72      1.78
   24   14    6     -3.79      4.02
   25   14    6      0.52     -3.29
   26   14    6     -0.35     -2.40
   27   14    6     -2.90      0.96
   28   14    6      1.64      0.94
   29   14    6      1.94      0.28
   30   14    6      2.41      1.18
   31   14    6     -0.53     -1.21
   32   14    6     -1.46     -0.69
   33   14    6     -0.32      0.86
   13   15    6     -8.23     -0.27
   14   15    6      0.70     -5.82
   15   15    6     -0.96     -2.08
   16   15    6     -0.23      0.69
   17   15    6      1.78      0.72
   18   15    6      0.68      5.52
   19   15    6      3.49      2.20
   20   15    6      0.46     -2.66
   21   15    6     -1.15     -1.21
   22   15    6     -2.08      0.07
   23   15    6     -0.21     -1.52
   24   15    6      1.41     -2.46
   25   15    6     -1.35      0.74
   26   15    6     -0.33      3.69
   27   15    6     -0.34     -0.09
   28   15    6      0.55     -2.25
   29   15    6      1.02      1.32
   30   15    6      0.51      0.73
   31   15    6     -0.38     -0.74
   32   15    6     -0.79     -0.42
   33   15    6      0.27      0.42
    7   16    6      1.12     -0.31
    8   16    6      1.41      1.86
    9   16    6      0.31     -0.55
   10   16    6     -2.15     -3.18
   11   16    6     -2.82     -0.19
   12   16    6      0.93      4.45
   13   16    6     -0.02     -1.18
   14   16    6     -1.62     -2.28
   15   16    6      1.71      0.43
   16   16    6      1.08      0.40
   17   16    6      1.72      1.90
   18   16    6     -0.75      1.41
   19   16    6     -1.01     -1.71
   20   16    6      1.33     -1.07
   21   16    6     -1.57      0.93
   22   16    6     -0.14     -1.55
   23   16    6      0.57     -1.40
   24   16    6     -1.36      1.12
   25   16    6      0.02      0.59
   26   16    6      1.64     -0.56
   27   16    6     -0.61      2.00
   28   16    6     -0.56      0.85
   29   16    6      1.52     -0.64
   30   16    6     -0.10      0.16
   31   16    6     -0.05     -0.90
   32    0    7     -1.73     -0.43
   33    0    7      1.24      5.75
   32    1    7      2.92      0.15
   33    1    7      1.79     -2.32
   32    2    7      0.06      0.81
   33    2    7      2.97      0.56
   31    3    7     -3.10     -0.20
   32    3    7      3.57     -0.59
   33    3    7      0.45     -0.67
   31    4    7     -0.56     -3.48
   32    4    7     -1.04     -4.77
   33    4    7      1.73      4.80
   30    5    7      7.37     -2.14
   31    5    7      9.99     -3.27
   32    5    7     -2.77      2.71
   33    5    7     -3.06      3.39
   30    6    7      5.37      0.99
   31    6    7      0.72     -8.86
   32    6    7     -1.72      2.86
   33    6    7     -2.26      1.40
   29    7    7     -1.19     -1.05
   30    7    7     -0.21     -1.11
   31    7    7     -1.49      1.69
   32    7    7      0.31      0.10
   33    7    7      0.47     -0.41
   28    8    7     -3.82     -2.02
   29    8    7     -2.26      2.00
   30    8    7      0.22     -2.08
   31    8    7      0.80      1.07
   32    8    7     -1.90     -0.03
   33    8    7      0.36     -1.42
   27    9    7      7.08     -0.35
   28    9    7      0.11      1.16
   29    9    7     -1.64      0.77
   30    9    7     -4.83      1.33
   31    9    7     -2.70     -0.40
   32    9    7      0.35     -1.82
   33    9    7      1.56     -0.63
   25   10    7      3.57      4.87
   26   10    7     -4.45     -5.61
   27   10    7     -3.13     -0.92
   28   10    7      2.21      0.18
   29   10    7     -3.17     -2.87
   30   10    7      0.78      2.65
   31   10    7      3.61      0.07
   32   10    7     -0.15     -2.06
   33   10    7     -1.51      1.01
   24   11    7      0.67      0.79
   25   11    7     -1.54     -0.17
   26   11    7      0.43     -0.17
   27   11    7     -2.66      0.96
   28   11    7      1.37      0.46
   29   11    7      1.29      1.81
   30   11    7      0.40     -0.44
   31   11    7     -0.64     -1.52
   32   11    7      0.96     -0.61
   33   11    7      0.65     -0.53
   22   12    7      1.80      0.06
   23   12    7     -0.57      4.18
   24   12    7      0.58      4.69
   25   12    7     -4.64     -3.40
   26   12    7     -3.16     -0.87
   27   12    7      2.34      3.97
   28   12    7     -1.48     -2.00
   29   12    7      0.85     -3.67
   30   12    7      4.98      0.25
   31   12    7      0.54      1.10
   32   12    7     -2.19      0.96
   33   12    7     -0.53      2.00
   19   13    7     -3.82      1.40
   20   13    7      1.36     -5.01
   21   13    7     -2.46      3.64
   22   13    7      2.65      0.67
   23   13    7      6.33     -2.75
   24   13    7     -1.08      0.03
   25   13    7     -2.97     -0.38
   26   13    7     -1.47      3.61
   27   13    7      2.35      2.71
   28   13    7     -1.15     -1.78
   29   13    7      0.41     -0.23
   30   13    7      1.48     -0.77
   31   13    7     -0.93     -1.22
   32   13    7     -1.31      0.50
   33   13    7     -0.17     -0.99
   16   14    7     -0.03     -5.20
   17   14    7     -5.07     -2.62
   18   14    7      0.15      2.05
   19   14    7      2.95      2.04
   20   14    7      0.89      0.43
   21   14    7     -1.63      2.03
   22   14    7     -3.01      1.15
   23   14    7      0.81      0.71
   24   14    7      0.47     -2.34
   25   14    7     -0.65      0.32
   26   14    7      0.42      1.10
   27   14    7      2.05     -2.33
   28   14    7      1.67      0.66
   29   14    7     -1.61     -0.69
   30   14    7     -1.86      0.26
   31   14    7      0.96      1.01
   32   14    7      0.59      0.30
   33   14    7     -1.24      0.45
   12   15    7      0.49     -0.57
   13   15    7      0.27      1.44
   14   15    7     -0.51     -0.08
   15   15    7     -0.68     -2.65
   16   15    7     -1.47     -4.09
   17   15    7      0.20     -0.29
   18   15    7      1.15      4.74
   19   15    7      3.48      0.87
   20   15    7     -0.24     -3.06
   21   15    7     -1.15      0.04
   22   15    7      1.90      3.15
   23   15    7     -1.47     -1.32
   24   15    7     -2.71     -0.40
   25   15    7     -1.34      1.11
   26   15    7      1.40      0.63
   27   15    7      1.86      1.63
   28   15    7      0.88     -1.99
   29   15    7     -0.37     -2.16
   30   15    7     -1.85     -0.25
   31   15    7     -1.26      0.77
   32   15    7      0.85      0.47
   33   15    7      1.27      0.16
    4   16    7      5.54      1.71
    5   16    7     -1.64     -0.48
    6   16    7     -2.87     -2.39
    7   16    7     -0.41      3.01
    8   16    7      1.00     -0.57
    9   16    7      1.53     -0.98
   10   16    7     -1.36      2.49
   11   16    7      0.16      2.79
   12   16    7      1.29     -2.16
   13   16    7     -2.02     -3.43
   14   16    7     -0.61      0.69
   15   16    7      0.77      0.89
   16   16    7     -1.67     -0.12
   17   16    7      1.12     -0.73
   18   16    7      1.56      0.64
   19   16    7      0.01     -0.60
   20   16    7     -0.38      0.50
   21   16    7     -0.04      1.94
   22   16    7     -0.03     -0.67
   23   16    7     -0.66     -0.41
   24   16    7      2.27      0.59
   25   16    7      0.00     -0.96
   26   16    7     -2.54     -1.03
   27   16    7     -0.03      0.45
   28   16    7      1.95     -0.35
   29   16    7     -0.40      0.59
   30   16    7     -1.56     -0.04
   31   16    7      0.46      0.06
   26    0    8     -4.41     -0.49
   32    0    8      2.82     -0.22
   33    0    8     -0.49     -1.86
   31    1    8     -8.04      1.94
   32    1    8     -0.22     -5.43
   33    1    8      4.49     -2.09
   31    2    8      2.42     -1.44
   32    2    8     -1.15     -3.65
   33    2    8     -2.26      2.37
   31    3    8      0.62     -0.99
   32    3    8      2.73     -1.65
   33    3    8     -0.85      2.45
   31    4    8      0.53     -0.43
   32    4    8      2.68     -1.95
   33    4    8      0.35      1.58
   30    5    8     -0.42      3.84
   31    5    8     -6.14      3.87
   32    5    8      2.04      0.07
   33    5    8      3.11     -4.70
   29    6    8     -1.16      0.87
   30    6    8      0.88      3.97
   31    6    8      2.66     -0.37
   32    6    8     -0.22      1.30
   33    6    8     -2.34     -1.44
   28    7    8      2.56      2.18
   29    7    8      1.25      1.15
   30    7    8     -4.31      0.72
   31    7    8      1.03     -1.46
   32    7    8      1.96     -2.98
   33    7    8     -0.58      0.99
   27    8    8     -3.25      4.17
   28    8    8     -1.24      0.75
   29    8    8     -0.53      2.08
   30    8    8      1.54      0.40
   31    8    8      0.77      0.43
   32    8    8     -2.62     -0.53
   33    8    8      0.08     -1.76
   26    9    8     -0.47     -5.50
   27    9    8      4.15      2.19
   28    9    8     -0.48      4.44
   29    9    8     -3.86     -1.12
   30    9    8      0.37     -0.41
   31    9    8      1.78      1.28
   32    9    8      0.90     -0.24
   33    9    8      0.07     -0.10
   25   10    8      1.66      4.80
   26   10    8     -5.62      3.54
   27   10    8      0.35     -0.27
   28   10    8      1.25     -2.04
   29   10    8      0.51     -2.49
   30   10    8     -0.53     -1.73
   31   10    8     -0.65      1.47
   32   10    8      0.94      1.30
   33   10    8     -0.65      0.46
   23   11    8      1.69     -7.22
   24   11    8     -2.45      3.05
   25   11    8      4.30      3.96
   26   11    8      3.21      2.45
   27   11    8     -1.68      4.57
   28   11    8     -1.42     -1.11
   29   11    8     -3.54     -2.00
   30   11    8      2.13     -0.72
   31   11    8      1.79     -0.95
   32   11    8     -1.29      0.18
   33   11    8     -0.67     -0.81
   21   12    8      3.97     -0.40
   22   12    8     -6.96      1.68
   23   12    8     -3.38      3.65
   24   12    8      5.33      1.93
   25   12    8     -3.51      2.76
   26   12    8      2.39     -0.44
   27   12    8     -1.33     -3.62
   28   12    8     -1.12     -1.65
   29   12    8      3.94     -0.67
   30   12    8     -1.76      2.32
   31   12    8      0.26     -1.37
   32   12    8      0.36     -1.03
   33   12    8     -0.23      1.22
   18   13    8     -2.47     -4.32
   19   13    8     -4.74     -1.02
   20   13    8      4.95     -1.81
   21   13    8      1.86      2.51
   22   13    8      3.51      1.78
   23   13    8     -1.47      4.90
   24   13    8     -2.11      3.22
   25   13    8      3.86     -3.10
   26   13    8     -1.92     -1.04
   27   13    8     -1.91     -0.89
   28   13    8      0.33      0.91
   29   13    8     -0.70     -0.60
   30   13    8     -1.45     -3.16
   31   13    8      1.02      0.38
   32   13    8      1.04      1.21
   33   13    8     -0.10      0.89
   15   14    8     -0.06     -2.90
   16   14    8      0.92      1.52
   17   14    8     -1.38      0.04
   18   14    8     -2.11     -2.41
   19   14    8     -3.31      3.30
   20   14    8      1.57      3.67
   21   14    8      1.13      0.09
   22   14    8     -3.46      2.28
   23   14    8     -0.74      1.76
   24   14    8      1.48     -1.56
   25   14    8      3.57     -4.39
   26   14    8     -0.62     -2.73
   27   14    8      0.88      3.00
   28   14    8      1.33      0.49
   29   14    8     -2.21     -0.78
   30   14    8     -0.04     -0.08
   31   14    8     -1.59      0.05
   32   14    8      0.78      1.02
   33   14    8      0.99     -0.20
   10   15    8     -1.27     -2.37
   11   15    8     -3.67      1.65
   12   15    8     -2.76      0.19
   13   15    8      3.25     -1.55
   14   15    8      6.54     -2.30
   15   15    8     -2.34      1.58
   16   15    8     -2.77      0.75
   17   15    8     -2.53     -3.60
   18   15    8     -0.42     -0.60
   19   15    8      5.11      3.67
   20   15    8      1.77      5.81
   21   15    8      0.98     -0.26
   22   15    8     -1.46     -2.59
   23   15    8     -1.69     -0.28
   24   15    8     -1.57     -0.37
   25   15    8     -1.28     -0.95
   26   15    8      1.90     -2.92
   27   15    8     -1.01      0.17
   28   15    8      0.65      2.26
   29   15    8      0.74      0.49
   30   15    8     -1.93     -0.37
   31   15    8      0.94     -0.08
   32   15    8      0.18      0.87
    0   16    8     -4.47      0.18
    1   16    8      0.13     -0.20
    2   16    8      3.10      3.77
    3   16    8     -2.52     -0.04
    4   16    8     -3.10     -2.30
    5   16    8      1.25      0.31
    6   16    8      3.00      2.16
    7   16    8     -0.21     -2.25
    8   16    8     -3.02      0.11
    9   16    8     -0.84      3.45
   10   16    8      4.71     -1.14
   11   16    8      0.86     -0.82
   12   16    8     -1.47     -3.11
   13   16    8      1.41     -0.96
   14   16    8      0.01      1.12
   15   16    8     -0.53     -0.24
   16   16    8     -1.67      1.51
   17   16    8     -1.37     -0.39
   18   16    8     -1.82      2.27
   19   16    8      0.92      3.33
   20   16    8      2.80     -2.53
   21   16    8     -0.07     -2.89
   22   16    8     -0.52      1.36
   23   16    8     -0.05      1.16
   24   16    8      1.96     -2.18
   25   16    8     -0.51     -0.82
   26   16    8     -0.87      1.57
   27   16    8      0.81     -0.78
   28   16    8     -1.90     -1.02
   29   16    8     -0.99      0.65
   30   16    8      0.97      0.76
   31    0    9     -0.66      4.65
   32    0    9     -4.42     -0.03
   33    0    9      0.42     -6.20
   31    1    9     -1.95     -4.47
   32    1    9     -2.25      0.74
   33    1    9     -1.45      3.75
   31    2    9     -2.32      0.84
   32    2    9     -3.84     -1.59
   33    2    9      1.52     -0.29
   30    3    9      3.95      2.65
   31    3    9     -5.06      1.15
   32    3    9     -2.90      0.43
   33    3    9      2.99      1.26
   30    4    9      4.77     -2.36
   31    4    9      2.91     -3.56
   32    4    9      2.06      3.68
   33    4    9     -0.20      2.51
   29    5    9     -1.65      1.46
   30    5    9     -7.14      1.67
   31    5    9      1.04     -0.58
   32    5    9      5.92     -2.68
   33    5    9     -1.67     -1.33
   29    6    9      4.41     -2.85
   30    6    9      1.57     -3.89
   31    6    9     -1.99      3.72
   32    6    9      0.56      6.02
   33    6    9     -0.14     -1.46
   28    7    9     -2.57     -3.72
   29    7    9      0.83      0.27
   30    7    9      3.41      3.56
   31    7    9      2.61     -0.28
   32    7    9     -3.20     -0.13
   33    7    9     -0.18     -0.24
   27    8    9      0.70      0.09
   28    8    9      2.48      1.66
   29    8    9      1.11      2.32
   30    8    9     -5.80     -1.78
   31    8    9     -0.18      2.01
   32    8    9      2.76      0.28
   33    8    9     -0.34     -2.40
   25    9    9      2.07      0.46
   26    9    9     -3.01      0.87
   27    9    9     -0.58     -2.11
   28    9    9      0.87     -1.58
   29    9    9     -1.01      2.09
   30    9    9      0.86      1.50
   31    9    9      0.23      0.48
   32    9    9      1.36     -1.66
   33    9    9     -1.12     -0.24
   24   10    9     -2.28      0.90
   25   10    9     -0.24     -5.25
   26   10    9      6.87      2.45
   27   10    9      0.52      1.73
   28   10    9     -3.77     -0.12
   29   10    9     -0.99      0.46
   30   10    9      1.29     -0.61
   31   10    9     -1.70     -0.36
   32   10    9     -1.35     -1.43
   33   10    9      2.22      0.51
   22   11    9      1.23      4.47
   23   11    9      1.40      1.99
   24   11    9     -1.18     -3.49
   25   11    9     -4.27      0.45
   26   11    9      0.25     -0.78
   27   11    9      1.04      1.27
   28   11    9      2.97      3.00
   29   11    9      0.74     -1.05
   30   11    9     -1.61      0.60
   31   11    9      0.88     -1.39
   32   11    9      0.08     -1.67
   33   11    9     -0.67      2.02
   20   12    9     -6.49     -1.39
   21   12    9     -2.54      6.13
   22   12    9      0.70      2.45
   23   12    9      1.43      1.33
   24   12    9      0.63     -3.21
   25   12    9      1.09     -3.08
   26   12    9      2.94      0.56
   27   12    9     -0.76      1.00
   28   12    9     -3.62      1.63
   29   12    9     -2.00      1.46
   30   12    9     -0.32     -0.08
   31   12    9      2.38     -1.54
   32   12    9      0.00      1.16
   33   12    9     -0.67     -1.25
   17   13    9     -3.91     -0.32
   18   13    9      0.64     -1.08
   19   13    9      2.41      0.72
   20   13    9      4.16     -0.17
   21   13    9     -3.11      2.12
   22   13    9      0.41      5.19
   23   13    9     -0.43     -0.08
   24   13    9     -3.76     -2.52
   25   13    9      4.48     -0.27
   26   13    9     -0.95     -0.44
   27   13    9     -0.77     -0.75
   28   13    9      1.66     -1.22
   29   13    9     -0.04      0.72
   30   13    9     -0.68      1.30
   31   13    9     -1.83     -0.81
   32   13    9      0.02      0.49
   33   13    9     -0.05     -0.62
   14   14    9      0.20      0.36
   15   14    9     -2.02     -1.59
   16   14    9      0.99     -2.78
   17   14    9      0.26      0.66
   18   14    9     -3.40      3.01
   19   14    9     -0.13     -0.53
   20   14    9      0.93     -0.47
   21   14    9      1.11      0.02
   22   14    9      1.60      1.41
   23   14    9      2.26     -0.39
   24   14    9     -0.72     -0.22
   25   14    9     -1.32      1.21
   26   14    9     -0.94     -1.10
   27   14    9     -2.83     -1.14
   28   14    9     -0.94      0.27
   29   14    9      1.30      1.87
   30   14    9      3.72     -0.39
   31   14    9     -0.13     -0.86
   32   14    9     -2.14     -0.46
   33   14    9      0.38     -0.66
    8   15    9      2.31      0.52
    9   15    9     -1.54      0.17
   10   15    9     -0.11     -2.27
   11   15    9      3.47     -0.28
   12   15    9     -3.38     -1.26
   13   15    9     -1.24     -2.31
   14   15    9      3.36      1.77
   15   15    9     -1.69      1.23
   16   15    9      1.41     -0.41
   17   15    9      2.57      0.92
   18   15    9     -3.66     -0.45
   19   15    9      0.35      0.46
   20   15    9      0.64      2.23
   21   15    9      0.79      0.00
   22   15    9     -0.03      0.07
   23   15    9     -2.43     -0.68
   24   15    9      1.78     -2.65
   25   15    9     -0.31     -1.24
   26   15    9     -0.67      1.81
   27   15    9     -0.55     -0.19
   28   15    9     -0.33      0.93
   29   15    9      1.08      1.34
   30   15    9     -0.46     -1.98
   31   15    9      0.07      0.71
   32   15    9      0.06     -0.63
    0   16    9     -2.43      0.09
    1   16    9     -0.72     -0.36
    2   16    9     -1.66     -2.31
    3   16    9      1.94     -0.65
    4   16    9      2.44     -0.08
    5   16    9     -1.78      2.55
    6   16    9      0.49     -0.05
    7   16    9      0.40     -2.45
    8   16    9      0.73      1.57
    9   16    9      0.32      1.36
   10   16    9     -0.70      0.28
   11   16    9     -2.65      0.03
   12   16    9     -0.44     -0.60
   13   16    9      3.41     -2.40
   14   16    9      0.23     -2.87
   15   16    9      0.89      1.20
   16   16    9     -0.31      3.78
   17   16    9     -2.26      2.11
   18   16    9      0.32     -1.49
   19   16    9     -0.31     -0.30
   20   16    9      1.13      1.12
   21   16    9      1.06     -1.92
   22   16    9      0.17     -2.41
   23   16    9     -1.24      0.20
   24   16    9     -2.09      3.38
   25   16    9      1.29      0.64
   26   16    9     -0.35     -3.20
   27   16    9     -1.15      1.65
   28   16    9      0.40      2.64
   29   16    9      1.27     -2.58
   30   16    9      0.83     -1.58
   30    0   10      3.03     -0.03
   31    0   10      0.44     -7.18
   32    0   10     -1.06      0.40
   33    0   10     -0.04      8.44
   30    1   10      3.51      2.76
   31    1   10      3.11     -1.09
   32    1   10     -0.65     -0.67
   33    1   10     -0.66     -0.52
   30    2   10     -1.73     -4.10
   31    2   10      1.76     -6.96
   32    2   10      3.06      5.17
   33    2   10     -0.16      1.69
   30    3   10      0.56     -2.24
   31    3   10     -3.17     -1.69
   32    3   10      1.83      1.16
   33    3   10      0.00     -0.35
   29    4   10      2.02      1.92
   30    4   10     -3.07     -5.85
   31    4   10      1.36      0.64
   32    4   10      0.32      4.10
   33    4   10     -1.06      0.30
   29    5   10      0.94      0.07
   30    5   10     -0.08      3.23
   31    5   10      1.86     -0.61
   32    5   10     -3.13     -0.98
   33    5   10     -2.05      1.29
   28    6   10      2.08      2.12
   29    6   10     -5.70      3.55
   30    6   10      0.11     -0.75
   31    6   10      2.02     -1.04
   32    6   10     -0.22     -0.41
   33    6   10      0.91     -1.13
   27    7   10      0.14     -0.31
   28    7   10      2.60      3.29
   29    7   10     -4.98      3.13
   30    7   10     -4.00      0.89
   31    7   10      1.09      0.09
   32    7   10      1.19     -1.75
   33    7   10      1.71     -1.10
   26    8   10      0.18     -2.78
   27    8   10      2.99      2.93
   28    8   10     -2.20     -0.91
   29    8   10     -5.55      1.97
   30    8   10      1.88     -0.44
   31    8   10      2.17     -1.75
   32    8   10     -0.54      1.25
   33    8   10     -0.34      1.83
   25    9   10      0.20      1.96
   26    9   10     -5.24      0.29
   27    9   10     -2.77      1.12
   28    9   10      0.05     -0.42
   29    9   10      2.36     -1.67
   30    9   10      0.41      1.32
   31    9   10      0.02     -0.36
   32    9   10      1.22     -0.58
   33    9   10     -0.55     -0.48
   23   10   10     -1.64      1.71
   24   10   10      3.27     -0.44
   25   10   10      0.05     -1.68
   26   10   10     -2.45      6.04
   27   10   10      2.50     -0.72
   28   10   10      0.07     -0.82
   29   10   10     -2.04     -0.05
   30   10   10     -2.75     -0.59
   31   10   10      1.21      0.71
   32   10   10      1.02      0.51
   33   10   10     -1.16     -1.38
   21   11   10      6.39     -0.40
   22   11   10     -0.65      0.24
   23   11   10     -1.52     -0.17
   24   11   10     -5.86      4.95
   25   11   10     -6.05     -2.16
   26   11   10      1.73     -1.46
   27   11   10     -0.96     -1.05
   28   11   10      3.18     -2.23
   29   11   10      5.07      2.89
   30   11   10      0.63      1.11
   31   11   10     -0.81      1.58
   32   11   10     -1.99     -1.87
   33   11   10     -1.28     -1.61
   19   12   10      1.98     -4.74
   20   12   10      6.50     -0.59
   21   12   10      1.03     -0.28
   22   12   10     -1.21      2.03
   23   12   10     -0.85      5.21
   24   12   10      0.86      2.14
   25   12   10      0.12      0.75
   26   12   10     -3.87     -5.07
   27   12   10     -2.89     -1.71
   28   12   10      3.39      0.67
   29   12   10     -0.44      0.21
   30   12   10      0.65      1.10
   31   12   10      1.45     -0.26
   32   12   10     -1.25     -0.32
   33   12   10      1.65     -0.29
   16   13   10      5.48      2.26
   17   13   10      3.31     -4.46
   18   13   10     -2.32     -3.35
   19   13   10     -5.27      2.05
   20   13   10      2.31      2.64
   21   13   10     -1.48      0.23
   22   13   10     -0.29     -4.10
   23   13   10     -0.85      2.76
   24   13   10     -5.12     -0.37
   25   13   10     -0.34     -0.85
   26   13   10      3.23     -1.07
   27   13   10      2.68     -2.22
   28   13   10     -0.07      3.23
   29   13   10      2.07      0.33
   30   13   10      0.67      1.51
   31   13   10     -1.46     -0.48
   32   13   10     -1.64     -1.77
   33   13   10     -0.83      0.11
   12   14   10     -2.65     -0.13
   13   14   10     -0.40     -2.32
   14   14   10      4.39      1.32
   15   14   10      2.53      0.18
   16   14   10     -1.58     -3.36
   17   14   10     -1.95      2.05
   18   14   10      2.11     -0.44
   19   14   10     -0.44      0.92
   20   14   10     -1.89      2.56
   21   14   10      1.27      2.21
   22   14   10      0.44     -0.04
   23   14   10     -0.47     -0.41
   24   14   10      0.01     -0.48
   25   14   10     -0.52     -4.91
   26   14   10     -2.50     -0.17
   27   14   10      0.64      1.77
   28   14   10      1.49      1.08
   29   14   10      0.45      2.07
   30   14   10      0.54     -0.64
   31   14   10      0.65     -1.56
   32   14   10      0.11     -0.78
   33   14   10     -1.81      0.93
    5   15   10     -4.97      1.80
    6   15   10     -0.65     -2.49
    7   15   10      0.88     -6.37
    8   15   10      2.75     -0.23
    9   15   10     -2.43      3.47
   10   15   10     -1.52      1.48
   11   15   10      2.08      0.03
   12   15   10      4.04      2.06
   13   15   10      2.27      2.49
   14   15   10     -0.85     -0.51
   15   15   10     -0.25     -1.51
   16   15   10      0.30     -3.70
   17   15   10      0.71      1.43
   18   15   10     -1.63      3.18
   19   15   10     -2.87     -1.12
   20   15   10     -3.41     -1.68
   21   15   10     -0.16     -2.60
   22   15   10      1.32      2.16
   23   15   10      0.09     -0.46
   24   15   10      0.93     -0.64
   25   15   10      2.90      0.85
   26   15   10      1.80      0.14
   27   15   10     -1.30      2.62
   28   15   10     -0.11     -0.75
   29   15   10     -1.12      0.39
   30   15   10     -0.22     -0.49
   31   15   10     -0.63     -1.55
    0   16   10     -3.00      0.04
    1   16   10      4.08     -1.17
    2   16   10      1.05      1.19
    3   16   10      0.14     -0.34
    4   16   10     -1.11      0.52
    5   16   10     -1.55      0.94
    6   16   10      1.11     -2.07
    7   16   10     -0.75      1.43
    8   16   10      2.60      0.95
    9   16   10      0.46     -0.83
   10   16   10     -3.41     -1.07
   11   16   10      0.47     -0.34
   12   16   10      2.00     -0.69
   13   16   10     -1.20      1.82
   14   16   10      0.15      1.61
   15   16   10      2.03     -2.19
   16   16   10     -0.95     -0.92
   17   16   10     -0.20      0.80
   18   16   10     -1.01      2.50
   19   16   10     -0.49     -0.83
   20   16   10      0.94      0.01
   21   16   10     -0.30      0.78
   22   16   10     -0.03     -1.41
   23   16   10      0.76     -0.69
   24   16   10     -0.40     -1.56
   25   16   10     -1.34      1.48
   26   16   10      0.49      1.73
   27   16   10      0.34     -0.80
   28   16   10      0.78      0.16
   29   16   10      0.29     -0.14
   30    0   11     -1.23      1.85
   31    0   11      0.47     -7.99
   32    0   11     -1.33     -0.84
   33    0   11     -0.32      6.34
   29    1   11     -0.86      5.99
   30    1   11     -7.67      3.26
   31    1   11      1.02     -1.30
   32    1   11      2.81     -4.09
   33    1   11     -0.46     -1.55
   29    2   11      7.86     10.98
   30    2   11     -1.76      0.94
   31    2   11     -9.43     -9.03
   32    2   11     -0.14     -0.78
   33    2   11      3.35      0.92
   29    3   11     -4.51     -4.29
   30    3   11     -2.67      3.17
   31    3   11      3.53     -0.75
   32    3   11      0.27     -2.60
   33    3   11     -2.54      1.17
   28    4   11     -1.43      0.19
   29    4   11     -2.91     -0.93
   30    4   11     -0.49     -3.31
   31    4   11     -1.92     -4.78
   32    4   11     -0.06      0.97
   33    4   11      3.12      4.06
   28    5   11      0.76     -3.31
   29    5   11      3.32     -1.30
   30    5   11     -0.90      2.70
   31    5   11      2.59      1.89
   32    5   11     -1.64      0.14
   33    5   11     -2.25      0.80
   27    6   11     -2.44      0.48
   28    6   11      0.54     -7.64
   29    6   11      0.80      4.07
   30    6   11      0.59      2.62
   31    6   11      3.74     -4.00
   32    6   11      1.85      1.40
   33    6   11     -1.43      2.07
   26    7   11     -2.43     -4.40
   27    7   11     -7.63      6.71
   28    7   11      0.97      1.14
   29    7   11      1.50     -1.02
   30    7   11     -0.18      4.34
   31    7   11     -1.70      0.66
   32    7   11     -1.67     -0.17
   33    7   11      0.17     -3.36
   25    8   11      2.30     -4.64
   26    8   11      2.13      7.42
   27    8   11     -1.90     -0.04
   28    8   11      1.80     -4.96
   29    8   11      0.00     -0.68
   30    8   11      0.98      1.64
   31    8   11     -1.96      2.50
   32    8   11     -4.24      0.17
   33    8   11      1.46     -1.03
   24    9   11     -5.15      8.63
   25    9   11     -4.19     -1.41
   26    9   11     -1.10      2.39
   27    9   11      1.04     -0.04
   28    9   11     -1.14     -0.30
   29    9   11     -0.09      3.77
   30    9   11      2.35     -1.86
   31    9   11     -0.06      0.04
   32    9   11      0.32     -1.69
   33    9   11     -0.06     -0.61
   22   10   11      0.39      2.07
   23   10   11      2.31      0.81
   24   10   11      2.09      2.48
   25   10   11     -0.17      2.64
   26   10   11     -2.36     -3.23
   27   10   11      1.46     -1.14
   28   10   11     -3.19      0.15
   29   10   11     -1.47     -1.56
   30   10   11      0.74      1.72
   31   10   11      0.49      2.52
   32   10   11      0.99      0.36
   33   10   11     -0.68     -1.05
   20   11   11      4.87     -1.42
   21   11   11      0.52      0.30
   22   11   11     -6.35     -2.57
   23   11   11      0.77      2.97
   24   11   11     -0.52      2.23
   25   11   11     -1.00      1.57
   26   11   11      0.24      1.11
   27   11   11      0.01     -1.50
   28   11   11      1.12     -0.57
   29   11   11     -0.51     -1.89
   30   11   11     -1.79     -1.70
   31   11   11      1.68      0.03
   32   11   11      0.78      0.60
   33   11   11     -2.37     -0.36
   18   12   11      2.62      0.46
   19   12   11      0.58     -4.03
   20   12   11     -2.79     -1.39
   21   12   11      3.16     -0.53
   22   12   11      0.68      2.34
   23   12   11     -0.92      4.39
   24   12   11     -1.21     -1.23
   25   12   11     -4.74     -1.40
   26   12   11      1.49      1.69
   27   12   11     -0.66      1.44
   28   12   11     -0.72     -2.53
   29   12   11      1.79     -1.19
   30   12   11      1.58      2.53
   31   12   11      1.42     -1.59
   32   12   11     -1.50     -1.69
   33   12   11     -0.67      0.92
   14   13   11     -1.02      0.60
   15   13   11      3.66      1.75
   16   13   11     -2.32     -1.57
   17   13   11      5.45      0.08
   18   13   11      3.97      1.58
   19   13   11     -3.24     -2.33
   20   13   11     -0.17     -0.35
   21   13   11     -5.06      1.13
   22   13   11      1.00      0.55
   23   13   11      0.40      0.71
   24   13   11     -1.02     -1.02
   25   13   11      0.49     -0.81
   26   13   11     -2.13      0.28
   27   13   11      0.48     -0.26
   28   13   11      2.59      0.40
   29   13   11     -0.57     -2.15
   30   13   11     -0.37     -0.30
   31   13   11      2.59      2.28
   32   13   11     -0.64     -0.17
   33   13   11     -1.50     -0.11
   10   14   11     -2.62     -5.60
   11   14   11      5.50      1.77
   12   14   11      5.12      0.67
   13   14   11     -0.81     -2.75
   14   14   11     -0.96     -1.22
   15   14   11      0.95     -1.69
   16   14   11      2.74     -0.52
   17   14   11      0.32      2.77
   18   14   11     -1.36     -1.56
   19   14   11     -3.07      1.04
   20   14   11      0.54      2.96
   21   14   11     -0.71      1.51
   22   14   11     -0.99      2.34
   23   14   11      0.26     -1.97
   24   14   11     -2.28     -2.25
   25   14   11      1.96     -1.62
   26   14   11      0.98     -1.21
   27   14   11      0.59      1.84
   28   14   11      0.16      0.79
   29   14   11     -0.79     -0.35
   30   14   11      1.12     -0.23
   31   14   11      0.01     -0.71
   32   14   11      0.01     -0.30
    0   15   11     -0.18      1.97
    1   15   11      0.80     -2.94
    2   15   11     -1.56      1.88
    3   15   11      0.36      1.31
    4   15   11     -0.62     -2.95
    5   15   11     -1.66     -1.45
    6   15   11      1.36      1.40
    7   15   11      2.36      0.09
    8   15   11     -3.63     -6.68
    9   15   11     -2.56      0.19
   10   15   11      0.92      5.61
   11   15   11      0.11      1.59
   12   15   11      2.43      0.11
   13   15   11      0.69      0.24
   14   15   11      4.18     -0.05
   15   15   11     -0.02     -1.34
   16   15   11     -2.36      0.73
   17   15   11     -0.21     -0.51
   18   15   11     -2.83     -0.44
   19   15   11     -0.20      1.41
   20   15   11     -0.79     -0.03
   21   15   11      0.53     -1.10
   22   15   11     -0.49     -1.90
   23   15   11      0.34     -1.32
   24   15   11      0.50      2.08
   25   15   11     -0.59      1.93
   26   15   11      2.29     -0.83
   27   15   11      0.59      0.64
   28   15   11     -0.83     -1.17
   29   15   11     -0.23     -1.02
   30   15   11      0.68      1.04
    0   16   11     -4.70     -0.09
    1   16   11     -4.67     -1.28
    2   16   11      1.59      1.17
    3   16   11      1.75      0.20
    4   16   11      0.59      0.46
    5   16   11     -1.39      2.21
    6   16   11     -0.64     -1.49
    7   16   11     -1.38     -1.01
    8   16   11     -0.12     -0.98
    9   16   11      1.32     -2.29
   10   16   11      3.74      0.62
   11   16   11      2.14      2.80
   12   16   11     -1.12     -0.33
   13   16   11     -0.92     -1.40
   14   16   11     -1.50      0.63
   15   16   11     -0.75      0.96
   16   16   11     -1.53      0.88
   17   16   11      1.32     -1.49
   18   16   11     -0.31      0.83
   19   16   11     -1.54      1.41
   20   16   11      1.60     -0.71
   21   16   11      0.55      0.68
   22   16   11     -0.64     -0.37
   23   16   11     -1.07     -1.22
   24   16   11      1.79     -1.55
   25   16   11      0.55     -0.69
   26   16   11     -0.99      1.77
   27   16   11      1.07     -0.14
   28   16   11      0.18     -0.54
   29    0   12      0.39      0.83
   30    0   12     -7.38     -1.86
   31    0   12     -0.04     -3.18
   32    0   12      3.73     -0.38
   33    0   12      0.24      0.59
   29    1   12      4.41      1.06
   30    1   12      4.32      2.47
   31    1   12     -1.01     -4.48
   32    1   12     -3.95     -2.18
   33    1   12     -0.93      3.43
   28    2   12      7.52     -6.00
   29    2   12    -10.02     -1.37
   30    2   12     -4.84     -0.14
   31    2   12      4.72      1.58
   32    2   12     -0.88      3.25
   33    2   12     -1.96     -1.74
   28    3   12      3.68     -6.14
   29    3   12     -3.59     -2.36
   30    3   12     -2.67      0.97
   31    3   12      1.11     -0.26
   32    3   12     -0.51      2.08
   33    3   12     -0.14      1.14
   28    4   12     -1.97     -3.39
   29    4   12     -3.41      0.93
   30    4   12     -0.67      2.66
   31    4   12      0.79     -0.45
   32    4   12      3.30     -0.24
   33    4   12      0.07      0.15
   27    5   12      4.45      4.31
   28    5   12      3.74     -2.33
   29    5   12     -0.96     -0.72
   30    5   12      1.08      0.21
   31    5   12     -0.04      0.74
   32    5   12      0.27     -0.88
   33    5   12      0.02     -0.28
   26    6   12      1.43     -0.74
   27    6   12     -0.40      4.83
   28    6   12      0.24      1.24
   29    6   12     -1.31     -2.22
   30    6   12      1.65     -2.62
   31    6   12     -1.09      0.78
   32    6   12     -1.16      2.43
   33    6   12      3.00     -0.49
   25    7   12     -1.45      1.34
   26    7   12     -2.09     -1.78
   27    7   12      4.37     -0.67
   28    7   12      1.88      1.32
   29    7   12     -1.21      0.12
   30    7   12     -1.57     -0.48
   31    7   12     -0.09     -2.73
   32    7   12      1.65      2.35
   33    7   12     -1.00      2.08
   24    8   12     -0.48      6.38
   25    8   12     -5.91      4.12
   26    8   12     -0.60     -4.69
   27    8   12      2.29      1.54
   28    8   12      0.36      3.37
   29    8   12      0.32     -3.21
   30    8   12     -1.77     -2.94
   31    8   12      0.65     -0.50
   32    8   12      2.13      1.45
   33    8   12     -1.52      1.25
   22    9   12     -2.15      4.36
   23    9   12     -0.56     -3.53
   24    9   12      4.23     -2.18
   25    9   12      1.97      0.52
   26    9   12     -2.00     -0.79
   27    9   12     -1.68      3.21
   28    9   12      0.10      1.74
   29    9   12     -0.41     -1.16
   30    9   12     -0.49      0.48
   31    9   12      0.00      1.94
   32    9   12      0.46      0.36
   33    9   12      1.06     -2.45
   21   10   12     -0.43     -2.79
   22   10   12      1.72     -2.97
   23   10   12      0.88      1.34
   24   10   12     -3.02      3.34
   25   10   12      2.10     -5.23
   26   10   12      0.81     -0.06
   27   10   12     -1.22      1.85
   28   10   12      0.67     -3.96
   29   10   12     -1.19      0.81
   30   10   12      1.35      3.32
   31   10   12     -1.28      0.96
   32   10   12     -1.35     -0.37
   33   10   12      1.71      0.72
   19   11   12      1.34     -0.60
   20   11   12      1.75     -6.66
   21   11   12     -1.82     -2.39
   22   11   12      0.66      0.63
   23   11   12     -2.38     -0.37
   24   11   12     -3.63      2.99
   25   11   12      3.49      3.41
   26   11   12      0.37      2.03
   27   11   12     -0.92      0.11
   28   11   12     -0.19     -3.74
   29   11   12     -0.19     -1.64
   30   11   12      1.55     -0.33
   31   11   12     -0.97     -0.35
   32   11   12     -1.08     -0.82
   33   11   12      0.44      0.86
   16   12   12      2.72      7.21
   17   12   12     -1.20      4.30
   18   12   12      1.79     -3.32
   19   12   12      3.64     -4.32
   20   12   12     -0.20     -2.64
   21   12   12     -0.22     -1.09
   22   12   12      0.25      1.52
   23   12   12     -4.02      3.28
   24   12   12     -0.44     -1.80
   25   12   12     -0.33     -1.43
   26   12   12      0.60      0.00
   27   12   12      2.61      2.10
   28   12   12     -2.98      2.34
   29   12   12      0.43     -0.94
   30   12   12      1.14     -0.52
   31   12   12     -0.90      0.00
   32   12   12      0.05      0.46
   33   12   12      0.10     -1.50
   13   13   12     -4.61     -0.30
   14   13   12      4.74     -1.98
   15   13   12      4.07     -1.68
   16   13   12     -1.16      2.75
   17   13   12     -0.78      1.33
   18   13   12      0.97     -2.10
   19   13   12      1.29     -0.45
   20   13   12      0.21     -2.23
   21   13   12     -4.41      2.34
   22   13   12     -2.53      3.02
   23   13   12     -1.28      1.27
   24   13   12      2.23     -1.63
   25   13   12      2.07     -1.74
   26   13   12     -0.09      0.69
   27   13   12      0.84     -2.50
   28   13   12     -0.47      0.36
   29   13   12     -0.02      0.32
   30   13   12     -0.02      0.85
   31   13   12     -1.16      0.55
   32   13   12     -0.39     -0.95
   33   13   12      1.05      0.42
    7   14   12      2.66     -0.10
    8   14   12     -1.95      0.77
    9   14   12      1.09     -3.36
   10   14   12      0.57      1.33
   11   14   12     -0.73      3.70
   12   14   12      2.42     -3.44
   13   14   12     -1.70     -0.50
   14   14   12      1.78      1.68
   15   14   12      0.44      4.75
   16   14   12     -0.52      1.99
   17   14   12      1.65     -5.92
   18   14   12     -0.20     -2.72
   19   14   12     -0.92      2.79
   20   14   12     -1.54     -0.93
   21   14   12      0.53      0.78
   22   14   12     -2.34      3.56
   23   14   12     -1.55     -2.91
   24   14   12      2.65     -1.06
   25   14   12      1.43      1.08
   26   14   12      1.66      0.10
   27   14   12     -1.38     -0.18
   28   14   12     -1.40     -0.18
   29   14   12      0.90      0.51
   30   14   12     -0.15     -0.50
   31   14   12     -0.25      0.04
    0   15   12      0.10     -2.28
    1   15   12     -1.82      2.07
    2   15   12      1.37     -0.78
    3   15   12      4.72      2.02
    4   15   12     -0.47      1.51
    5   15   12     -1.75     -3.24
    6   15   12     -0.57      1.96
    7   15   12     -1.23      1.73
    8   15   12      0.71      1.49
    9   15   12     -1.42     -0.50
   10   15   12     -1.17     -5.44
   11   15   12      0.59     -1.01
   12   15   12      1.68      0.61
   13   15   12      0.23      1.13
   14   15   12      2.82      1.52
   15   15   12      2.92      2.79
   16   15   12     -3.69      1.14
   17   15   12     -3.76     -3.90
   18   15   12     -0.57     -0.92
   19   15   12      1.31      0.09
   20   15   12     -1.07      1.53
   21   15   12     -0.74      0.33
   22   15   12      1.47     -0.52
   23   15   12      2.12      0.62
   24   15   12      0.44     -1.18
   25   15   12     -0.34     -0.28
   26   15   12     -0.36      0.11
   27   15   12     -1.60      0.83
   28   15   12      0.17     -0.76
   29   15   12      0.80     -0.56
    0   16   12     -2.73      0.02
    1   16   12      4.11     -3.36
    2   16   12     -0.28     -1.14
    3   16   12     -3.42      4.70
    4   16   12      2.21     -1.91
    5   16   12      0.13     -0.68
    6   16   12     -0.83     -0.14
    7   16   12      0.24     -0.43
    8   16   12      0.43      0.76
    9   16   12      1.35     -0.46
   10   16   12      0.92      1.20
   11   16   12      0.04     -0.80
   12   16   12      0.15      0.76
   13   16   12      1.56      1.29
   14   16   12     -2.78     -0.58
   15   16   12     -2.17      0.69
   16   16   12      0.98     -0.54
   17   16   12     -0.79     -1.27
   18   16   12      1.29      0.20
   19   16   12     -0.07      0.43
   20   16   12     -1.27      0.40
   21   16   12     -0.08     -1.61
   22   16   12      1.23     -1.53
   23   16   12      1.04      1.80
   24   16   12     -0.48      1.15
   25   16   12      0.98      0.54
   26   16   12     -0.12     -1.08
   27   16   12     -1.47     -0.45
   28    0   13      8.25     -2.89
   29    0   13      0.78      8.64
   30    0   13     -0.46      0.34
   31    0   13      0.39      0.08
   32    0   13     -0.37      0.08
   33    0   13     -0.42     -1.18
   28    1   13      1.40      0.70
   29    1   13      0.33     -3.29
   30    1   13     -1.08      2.75
   31    1   13      4.16      0.02
   32    1   13     -3.00     -2.14
   33    1   13     -4.98     -1.13
   27    2   13      6.06     -8.49
   28    2   13     -0.31      9.65
   29    2   13     -5.71      4.10
   30    2   13     -1.70     -4.17
   31    2   13     -3.68     -3.74
   32    2   13     -0.20     -3.32
   33    2   13      2.11      2.77
   27    3   13     -0.69      3.54
   28    3   13     -3.29      2.68
   29    3   13     -3.22      1.22
   30    3   13      2.11     -2.47
   31    3   13      2.87     -3.91
   32    3   13     -2.33     -0.71
   33    3   13      0.14      1.86
   27    4   13      9.01     -0.06
   28    4   13     -0.32     -1.91
   29    4   13     -1.07     -0.49
   30    4   13     -1.80      0.83
   31    4   13     -0.37     -3.77
   32    4   13      2.88      1.15
   33    4   13      1.85      3.59
   26    5   13     -1.72     -1.64
   27    5   13     -2.59     -3.20
   28    5   13     -0.55     -3.19
   29    5   13      1.87     -1.60
   30    5   13      5.01     -0.61
   31    5   13     -0.04      0.03
   32    5   13     -1.01      3.44
   33    5   13      1.16      1.07
   25    6   13     -0.22      1.84
   26    6   13      9.25      0.35
   27    6   13      2.46     -4.55
   28    6   13     -0.88     -1.57
   29    6   13     -3.05      3.09
   30    6   13     -4.02     -3.88
   31    6   13      1.82      0.03
   32    6   13     -0.22      2.12
   33    6   13     -0.68     -0.64
   24    7   13     -2.16      4.37
   25    7   13      3.74     -0.30
   26    7   13      3.15     -2.10
   27    7   13      0.45     -0.47
   28    7   13     -2.58      0.94
   29    7   13      1.48      0.79
   30    7   13      4.78      0.55
   31    7   13     -3.24      3.21
   32    7   13     -3.20     -1.26
   33    7   13      0.65     -1.28
   23    8   13      6.77      9.01
   24    8   13     -7.10     -5.88
   25    8   13     -0.01     -1.61
   26    8   13     -3.16      1.02
   27    8   13     -4.22     -4.27
   28    8   13      1.25     -0.84
   29    8   13     -4.55      0.37
   30    8   13      2.98      3.79
   31    8   13      3.09     -0.21
   32    8   13     -1.77     -1.24
   33    8   13      1.25      1.16
   21    9   13     -1.88     -3.72
   22    9   13      3.81     -1.19
   23    9   13      0.18      4.72
   24    9   13      2.08      1.81
   25    9   13     -0.14     -2.24
   26    9   13     -4.47     -1.65
   27    9   13      0.97      1.19
   28    9   13      0.83      0.51
   29    9   13      1.60     -0.88
   30    9   13     -0.01      2.39
   31    9   13     -3.08     -0.86
   32    9   13     -1.77     -2.06
   33    9   13      0.92     -0.64
   19   10   13      0.96      1.24
   20   10   13      5.34      1.56
   21   10   13      0.09      0.73
   22   10   13      0.80      3.17
   23   10   13     -5.79     -2.35
   24   10   13     -3.15     -2.06
   25   10   13      1.53     -2.30
   26   10   13     -3.19     -0.99
   27   10   13      5.05      2.15
   28   10   13      0.97     -0.71
   29   10   13     -2.09      2.05
   30   10   13      1.56      0.69
   31   10   13     -1.29      0.19
   32   10   13      1.47      0.08
   33   10   13      0.39     -2.19
   17   11   13     -1.44     -1.98
   18   11   13     -2.49     -3.36
   19   11   13      7.53      1.72
   20   11   13      2.48     -0.72
   21   11   13     -0.02     -0.38
   22   11   13     -4.04      3.45
   23   11   13     -4.22      0.60
   24   11   13      0.54      0.04
   25   11   13     -0.89     -2.08
   26   11   13     -0.16     -1.50
   27   11   13      2.00      1.20
   28   11   13      3.33     -0.28
   29   11   13      0.04     -0.83
   30   11   13     -2.74     -0.55
   31   11   13     -1.62      1.08
   32   11   13      0.82     -0.27
   33   11   13      0.99      0.11
   14   12   13     -1.94     -0.12
   15   12   13     -2.10      9.92
   16   12   13     -4.15     -1.45
   17   12   13      3.93     -7.55
   18   12   13      1.26      5.44
   19   12   13      4.83     -1.76
   20   12   13     -1.00     -1.83
   21   12   13     -1.93      3.00
   22   12   13     -1.08     -1.46
   23   12   13     -6.43      1.82
   24   12   13      3.42      0.06
   25   12   13      1.57     -0.49
   26   12   13     -1.63      0.50
   27   12   13      1.48     -2.77
   28   12   13      0.91     -0.26
   29   12   13      0.67      1.84
   30   12   13     -1.89      2.07
   31   12   13      0.67     -0.18
   32   12   13      0.86     -1.95
   33   12   13     -0.28     -0.39
   10   13   13     -7.64      2.83
   11   13   13     -0.61     -3.59
   12   13   13      4.56     -0.74
   13   13   13      5.10     -4.83
   14   13   13      0.75      2.66
   15   13   13      0.02      4.00
   16   13   13      2.55     -2.87
   17   13   13     -1.36      0.02
   18   13   13     -0.79      1.39
   19   13   13     -1.22      0.22
   20   13   13     -1.13      0.13
   21   13   13     -0.78      0.62
   22   13   13     -0.80     -1.35
   23   13   13     -1.71      1.25
   24   13   13      0.94     -0.84
   25   13   13      4.07     -1.05
   26   13   13      0.98     -0.66
   27   13   13     -2.02     -1.20
   28   13   13     -1.85      1.53
   29   13   13      0.66      0.80
   30   13   13     -0.12      1.15
   31   13   13      0.30     -0.76
   32   13   13      0.62     -1.01
    0   14   13     -3.71      0.64
    1   14   13     -0.47      5.19
    2   14   13     -0.09      0.98
    3   14   13     -8.56     -1.76
    4   14   13      3.64     -1.92
    5   14   13      0.39     -3.71
    6   14   13     -0.61      1.23
    7   14   13     -0.93      1.94
    8   14   13      0.30     -2.30
    9   14   13     10.52     -3.05
   10   14   13     -1.42     -0.88
   11   14   13     -4.30     -2.36
   12   14   13     -3.58      3.38
   13   14   13     -0.89      2.24
   14   14   13      2.09      0.41
   15   14   13      0.03     -0.15
   16   14   13      4.48     -1.32
   17   14   13     -2.26      4.92
   18   14   13     -0.64     -0.84
   19   14   13      0.11     -1.22
   20   14   13     -3.27      0.64
   21   14   13      1.05     -2.00
   22   14   13     -2.37      0.82
   23   14   13      2.25     -1.06
   24   14   13      3.17     -0.16
   25   14   13     -0.76     -0.44
   26   14   13      0.44     -0.65
   27   14   13     -1.00      1.72
   28   14   13      0.59      0.12
   29   14   13     -0.88      0.15
   30   14   13     -0.59      0.19
    0   15   13      0.27     -1.77
    1   15   13      0.38     -4.01
    2   15   13     -1.70      1.18
    3   15   13     -2.09      2.91
    4   15   13     -2.00      0.39
    5   15   13      3.53     -1.12
    6   15   13      2.37      0.57
    7   15   13     -2.39     -3.40
    8   15   13     -0.56      1.25
    9   15   13     -0.93      1.55
   10   15   13      3.12     -3.79
   11   15   13      1.12      4.14
   12   15   13     -2.17     -1.81
   13   15   13      1.98     -2.08
   14   15   13      1.06      2.35
   15   15   13     -2.52      0.54
   16   15   13     -1.00      0.94
   17   15   13      2.44     -0.36
   18   15   13     -1.84     -0.74
   19   15   13     -3.14     -1.30
   20   15   13      0.09      1.62
   21   15   13      1.38      0.42
   22   15   13      0.58      0.14
   23   15   13      0.62     -1.65
   24   15   13      1.19     -0.99
   25   15   13      0.82      1.64
   26   15   13     -0.68     -1.23
   27   15   13     -1.49     -0.32
   28   15   13      0.47      1.30
   29   15   13     -0.88      1.63
    0   16   13     -1.47      0.03
    1   16   13      0.10     -1.52
    2   16   13     -2.10     -3.07
    3   16   13      3.07     -1.06
    4   16   13      1.23      0.46
    5   16   13     -3.02      1.79
    6   16   13      2.12     -0.77
    7   16   13      2.71      0.60
    8   16   13      0.77      0.88
    9   16   13     -2.16     -0.18
   10   16   13     -0.18     -0.41
   11   16   13     -1.05      1.81
   12   16   13     -1.15      2.66
   13   16   13      1.54      0.23
   14   16   13     -0.56     -0.98
   15   16   13      1.37     -3.29
   16   16   13     -0.17      0.21
   17   16   13     -1.46      1.80
   18   16   13     -0.01     -0.41
   19   16   13     -0.55     -1.30
   20   16   13      1.36     -2.18
   21   16   13     -0.02      1.10
   22   16   13     -0.02      0.70
   23   16   13      0.90     -0.97
   24   16   13      0.27      0.60
   25   16   13     -0.49      1.25
   26   16   13     -1.27      0.26
   27    0   14      1.41      0.37
   28    0   14     -4.99      1.58
   29    0   14     -0.45     -1.48
   30    0   14      0.02     -0.27
   31    0   14      0.28     -0.55
   32    0   14     -1.70     -0.18
   33    0   14     -0.54      1.30
   27    1   14      6.62     -0.18
   28    1   14      4.21      7.99
   29    1   14     -9.25     -3.81
   30    1   14     -1.35     -3.40
   31    1   14      9.44      2.07
   32    1   14     -5.51     -2.93
   33    1   14     -4.92      0.18
   26    2   14      0.73     -2.16
   27    2   14      1.00      5.04
   28    2   14      1.39      2.33
   29    2   14      0.01     -1.75
   30    2   14     -0.30      0.07
   31    2   14     -1.10     -1.02
   32    2   14      0.58     -1.76
   33    2   14     -0.86      1.59
   26    3   14    -10.36     -3.25
   27    3   14     -4.94      5.05
   28    3   14      7.20     -0.13
   29    3   14     -2.29     -6.35
   30    3   14     -0.86      3.13
   31    3   14      2.00      0.99
   32    3   14     -1.54     -0.82
   33    3   14      0.00      1.32
   25    4   14      0.04     -1.64
   26    4   14     -1.51     -2.25
   27    4   14      3.11      6.96
   28    4   14     -0.50      4.60
   29    4   14     -2.77     -6.93
   30    4   14     -0.22     -4.22
   31    4   14      0.25      3.73
   32    4   14      1.60      2.30
   33    4   14      1.02     -0.91
   25    5   14     -1.78      0.92
   26    5   14     -2.20     -6.48
   27    5   14      5.25     -2.72
   28    5   14      2.28     -1.87
   29    5   14     -2.77     -0.95
   30    5   14     -1.12      0.51
   31    5   14      2.86      2.43
   32    5   14      0.35      1.39
   33    5   14     -3.54     -0.82
   24    6   14      1.04     -0.65
   25    6   14      0.13      1.90
   26    6   14     -1.31      0.04
   27    6   14     -1.22     -3.37
   28    6   14      0.70     -1.11
   29    6   14      0.94      1.86
   30    6   14      0.90      0.70
   31    6   14      1.96      0.31
   32    6   14     -0.67      0.44
   33    6   14     -1.28     -2.08
   23    7   14     10.22     -2.10
   24    7   14      7.60     -3.89
   25    7   14     -2.58     -0.54
   26    7   14     -3.59      1.97
   27    7   14     -0.16     -0.72
   28    7   14      0.75     -1.03
   29    7   14     -2.36      2.54
   30    7   14     -2.24      3.22
   31    7   14      3.52      0.57
   32    7   14      2.71     -0.86
   33    7   14     -1.37     -0.77
   21    8   14      3.12      0.85
   22    8   14     -2.24      4.38
   23    8   14     -0.49      0.09
   24    8   14      2.48      1.01
   25    8   14      2.43     -1.36
   26    8   14     -0.60     -2.83
   27    8   14     -3.27     -3.28
   28    8   14      1.43      2.24
   29    8   14      1.24      4.07
   30    8   14     -1.35     -0.91
   31    8   14     -2.16      2.21
   32    8   14     -1.11      0.12
   33    8   14      1.58     -2.67
   20    9   14      4.04     -3.53
   21    9   14     -5.33      1.92
   22    9   14      6.96      2.28
   23    9   14      2.24     -1.63
   24    9   14     -3.07     -2.19
   25    9   14     -0.22      2.36
   26    9   14     -3.70      1.18
   27    9   14     -0.41      1.32
   28    9   14      3.23      1.87
   29    9   14      0.44     -3.13
   30    9   14     -0.98     -1.23
   31    9   14      2.19      0.86
   32    9   14      0.55     -1.38
   33    9   14     -3.38     -0.71
   18   10   14      0.52      1.44
   19   10   14      1.43     -2.10
   20   10   14     -0.86      2.41
   21   10   14      2.25      1.51
   22   10   14      2.91     -2.86
   23   10   14     -1.02      2.68
   24   10   14     -2.03     -1.09
   25   10   14     -0.28     -0.08
   26   10   14     -1.23      1.20
   27   10   14     -2.08     -2.66
   28   10   14      0.47      0.82
   29   10   14      0.98      1.43
   30   10   14     -0.27      0.40
   31   10   14      0.15     -0.25
   32   10   14      0.32     -1.01
   33   10   14      0.59     -0.39
   15   11   14     -2.88      0.54
   16   11   14     -2.02     -3.78
   17   11   14     -2.44      0.93
   18   11   14      0.30     -1.40
   19   11   14      0.41     -1.13
   20   11   14      0.12      4.16
   21   11   14      5.80      0.72
   22   11   14     -0.67     -0.07
   23   11   14     -1.19     -0.12
   24   11   14     -1.20      0.96
   25   11   14     -2.80     -1.06
   26   11   14      0.73     -0.82
   27   11   14     -1.45      0.07
   28   11   14      1.65     -1.89
   29   11   14      2.15     -0.06
   30   11   14     -1.62      0.69
   31   11   14     -0.18      0.23
   32   11   14     -0.94      0.01
   33   11   14      0.30     -0.57
   12   12   14      0.90     -3.02
   13   12   14      1.70     -3.06
   14   12   14     -1.55     -4.06
   15   12   14      0.13      2.43
   16   12   14      0.27      3.12
   17   12   14     -1.40      2.04
   18   12   14     -1.76      0.16
   19   12   14      0.53     -3.12
   20   12   14      3.08      2.29
   21   12   14      0.57     -1.72
   22   12   14      0.27     -0.54
   23   12   14     -2.36      0.76
   24   12   14     -3.70      0.15
   25   12   14      0.75      0.49
   26   12   14     -0.12     -2.78
   27   12   14      0.46      1.47
   28   12   14      0.98      1.59
   29   12   14      1.08     -0.82
   30   12   14      1.91     -0.53
   31   12   14     -1.72     -0.22
   32   12   14     -0.56      0.99
   33   12   14      0.95     -0.12
    7   13   14      4.87      2.45
    8   13   14    -13.60     -3.58
    9   13   14     -2.61     -4.71
   10   13   14      9.60      3.09
   11   13   14     -4.09     -1.54
   12   13   14     -6.07      0.67
   13   13   14      4.65     -3.91
   14   13   14      0.15      0.53
   15   13   14      0.49      3.72
   16   13   14      1.27      1.18
   17   13   14      0.41      1.65
   18   13   14     -0.64     -2.68
   19   13   14     -2.14      0.02
   20   13   14      4.07      2.16
   21   13   14     -0.62     -0.03
   22   13   14     -2.90     -1.56
   23   13   14      0.09     -0.46
   24   13   14     -2.11     -1.06
   25   13   14      2.46      0.25
   26   13   14      0.83      0.66
   27   13   14     -1.69     -0.24
   28   13   14      1.59     -0.71
   29   13   14     -0.72     -0.12
   30   13   14      0.13      0.99
   31   13   14      0.82      0.19
    0   14   14     -0.38     -0.65
    1   14   14      1.29     -1.86
    2   14   14      1.16      1.48
    3   14   14     -5.13      2.99
    4   14   14      0.45      1.45
    5   14   14     -0.58      2.75
    6   14   14     -0.96     -1.47
    7   14   14      4.57     -3.03
    8   14   14     -1.82      0.32
    9   14   14     -0.67     -1.20
   10   14   14      0.73     -3.46
   11   14   14      1.78     -2.28
   12   14   14      2.06      1.29
   13   14   14     -2.96     -1.59
   14   14   14     -2.64      5.07
   15   14   14     -0.84      3.74
   16   14   14      1.05     -3.63
   17   14   14      2.18      3.50
   18   14   14      0.12      2.22
   19   14   14     -0.13     -1.91
   20   14   14     -1.65     -4.10
   21   14   14     -1.18     -0.86
   22   14   14      1.94      0.29
   23   14   14     -0.64     -0.57
   24   14   14      0.35      1.90
   25   14   14      0.98     -0.85
   26   14   14     -0.26      0.71
   27   14   14     -0.69      1.39
   28   14   14     -0.21     -0.18
   29   14   14      1.75     -0.03
    0   15   14     -0.50      2.55
    1   15   14     -0.98      1.70
    2   15   14     -0.81     -0.34
    3   15   14      3.35     -5.54
    4   15   14     -2.25      2.22
    5   15   14     -4.63     -0.55
    6   15   14      1.64     -2.44
    7   15   14      1.36      1.03
    8   15   14     -2.58     -3.36
    9   15   14      1.63      2.06
   10   15   14      2.34      1.75
   11   15   14      0.54      0.87
   12   15   14      1.95     -0.26
   13   15   14      0.15      1.67
   14   15   14     -0.77      1.76
   15   15   14     -2.92     -3.49
   16   15   14     -0.72     -0.79
   17   15   14      1.78      0.47
   18   15   14     -0.81      0.41
   19   15   14      1.68      0.78
   20   15   14     -0.41     -0.09
   21   15   14     -2.06     -0.97
   22   15   14      0.62      0.06
   23   15   14     -1.60     -0.49
   24   15   14      1.43     -0.55
   25   15   14      1.99     -0.49
   26   15   14     -1.10      1.04
   27   15   14      0.59      1.14
   28   15   14     -0.43     -0.56
    0   16   14     -1.92      0.26
    1   16   14      1.88      1.06
    2   16   14     -0.82      0.93
    3   16   14     -3.84     -2.19
    4   16   14      0.07     -1.11
    5   16   14      3.01      0.09
    6   16   14      1.11     -0.62
    7   16   14     -2.44      0.17
    8   16   14      2.15     -1.22
    9   16   14      0.81     -0.46
   10   16   14     -0.73      1.44
   11   16   14      0.62      3.83
   12   16   14     -1.35      2.05
   13   16   14     -0.83     -0.76
   14   16   14      0.21      0.52
   15   16   14     -0.06     -1.20
   16   16   14      0.37     -2.84
   17   16   14      0.59     -0.68
   18   16   14      0.53      0.65
   19   16   14      0.90     -1.50
   20   16   14     -0.41     -0.28
   21   16   14     -0.42      1.28
   22   16   14     -0.95      0.22
   23   16   14     -0.32      0.90
   24   16   14      0.57      0.04
   25   16   14      0.13     -0.13
   25    0   15      0.15      6.67
   26    0   15     -4.47      1.89
   27    0   15     -0.10     -3.73
   28    0   15      2.97     -0.38
   29    0   15     -0.11      1.15
   30    0   15     -4.37     -0.29
   31    0   15     -0.21      1.44
   32    0   15      1.70      0.59
   33    0   15      0.22     -0.60
   25    1   15      8.68      7.63
   26    1   15     -9.63      1.23
   27    1   15     -3.37      5.29
   28    1   15      4.97      4.63
   29    1   15      0.13      0.50
   30    1   15     -4.77      2.42
   31    1   15     -4.11     -5.48
   32    1   15      1.52     -5.00
   33    1   15      2.72      1.79
   25    2   15      0.60     -0.50
   26    2   15     -0.04     -4.89
   27    2   15     -3.55      0.49
   28    2   15      1.50     -0.40
   29    2   15      0.05     -0.03
   30    2   15     -2.69      0.37
   31    2   15      1.51      1.40
   32    2   15      1.83      0.44
   33    2   15     -0.16     -3.01
   25    3   15     -6.66      5.88
   26    3   15      0.12      2.10
   27    3   15      4.88     -1.16
   28    3   15     -2.04     -5.32
   29    3   15     -1.21     -5.01
   30    3   15      2.18     -1.65
   31    3   15      2.73     -0.22
   32    3   15     -0.46      2.92
   33    3   15     -0.78      1.88
   24    4   15     -0.36     -0.93
   25    4   15      5.45     -3.13
   26    4   15     -6.31      1.57
   27    4   15     -4.93     -0.89
   28    4   15      2.61     -0.24
   29    4   15      0.60      1.99
   30    4   15      2.52     -1.96
   31    4   15      4.06     -2.54
   32    4   15     -1.72      0.44
   33    4   15     -2.18      3.26
   23    5   15      2.48     -1.19
   24    5   15     -2.79     -2.48
   25    5   15     -0.75     -5.12
   26    5   15      4.23      4.58
   27    5   15     -1.86      3.70
   28    5   15      3.39     -3.16
   29    5   15      1.13      0.21
   30    5   15     -0.92     -0.23
   31    5   15      1.43      0.96
   32    5   15     -2.58      0.16
   33    5   15     -1.95      0.25
   23    6   15      0.74     -1.02
   24    6   15     -0.98     -2.81
   25    6   15     -3.17     -4.17
   26    6   15     -1.15      0.06
   27    6   15      3.44      6.04
   28    6   15      3.38      2.75
   29    6   15     -2.10     -3.67
   30    6   15      1.43      2.85
   31    6   15      1.18      0.22
   32    6   15     -2.60     -1.93
   33    6   15      0.32      0.36
   21    7   15     -5.69      5.71
   22    7   15     14.26     -0.05
   23    7   15      3.06      2.37
   24    7   15     -2.44      0.26
   25    7   15      2.57     -1.85
   26    7   15     -6.09     -1.31
   27    7   15     -0.40      0.31
   28    7   15     -0.45     -0.19
   29    7   15      0.36     -3.17
   30    7   15      2.26      1.13
   31    7   15      1.60      3.10
   32    7   15     -0.27      0.09
   33    7   15     -1.95     -1.75
   20    8   15      4.63      4.64
   21    8   15      3.69     -3.46
   22    8   15      0.19     -9.30
   23    8   15     -0.72      2.81
   24    8   15     -4.16      4.87
   25    8   15      1.89     -1.78
   26    8   15      4.03      0.22
   27    8   15      1.26      4.89
   28    8   15     -2.15     -0.27
   29    8   15     -2.53     -1.98
   30    8   15      1.70     -0.62
   31    8   15     -0.16     -0.95
   32    8   15     -1.36      0.21
   33    8   15     -0.91      0.70
   18    9   15     -5.35     -1.49
   19    9   15      0.24     -1.07
   20    9   15     -1.21      5.50
   21    9   15      5.44      0.36
   22    9   15      3.57     -0.53
   23    9   15     -1.06     -0.75
   24    9   15      1.35     -3.87
   25    9   15     -4.74      2.24
   26    9   15      0.85     -0.45
   27    9   15     -3.26     -2.06
   28    9   15      1.09      1.05
   29    9   15      5.19      2.86
   30    9   15     -1.26      2.00
   31    9   15     -1.10     -4.27
   32    9   15     -1.36     -1.24
   33    9   15      0.13      2.84
   16   10   15     -1.59     -3.74
   17   10   15     -2.06      1.31
   18   10   15     -0.25      2.79
   19   10   15      3.69      0.28
   20   10   15      3.18     -1.64
   21   10   15     -2.65      0.97
   22   10   15     -0.66      2.31
   23   10   15      0.30     -1.45
   24   10   15     -0.81      3.55
   25   10   15     -1.26     -1.96
   26   10   15      0.44     -3.57
   27   10   15      0.77      2.92
   28   10   15     -1.45      0.74
   29   10   15      0.93     -0.83
   30   10   15      0.09     -0.47
   31   10   15     -1.31      0.56
   32   10   15     -0.55      0.74
   33   10   15      1.07     -0.40
   13   11   15      1.73      0.30
   14   11   15      6.40    -10.18
   15   11   15     -5.56      2.71
   16   11   15     -1.25     -2.58
   17   11   15     -0.98      1.75
   18   11   15     -0.76      0.60
   19   11   15      1.35      0.14
   20   11   15      6.50      3.60
   21   11   15      0.80     -0.77
   22   11   15     -2.29      1.63
   23   11   15      0.24     -3.93
   24   11   15     -6.75      0.11
   25   11   15      1.65      3.71
   26   11   15      0.62     -1.10
   27   11   15     -2.06     -1.31
   28   11   15      2.70     -1.22
   29   11   15      0.44      1.38
   30   11   15     -1.34     -0.71
   31   11   15     -0.40     -0.13
   32   11   15      0.70      1.08
   33   11   15      0.07     -0.52
    9   12   15      2.05      0.17
   10   12   15     -2.55     -4.19
   11   12   15      1.26      0.33
   12   12   15      2.12     -0.24
   13   12   15      1.55     -2.52
   14   12   15      3.00      3.40
   15   12   15     -3.41     -2.28
   16   12   15     -0.61      1.49
   17   12   15      1.62      4.59
   18   12   15     -1.46      1.77
   19   12   15      0.78      0.39
   20   12   15     -0.64     -3.48
   21   12   15     -1.47     -1.47
   22   12   15      0.07     -1.08
   23   12   15      0.99     -0.99
   24   12   15     -0.25      0.75
   25   12   15     -1.32      1.68
   26   12   15     -0.18      2.38
   27   12   15      1.50      0.70
   28   12   15      1.79     -2.44
   29   12   15     -1.18     -0.58
   30   12   15     -0.98      0.19
   31   12   15      0.56     -0.68
   32   12   15      0.09     -0.02
    0   13   15     -0.04      4.19
    1   13   15      0.30      5.08
    2   13   15     -4.48      5.28
    3   13   15     -2.60     -1.89
    4   13   15      0.50     -5.13
    5   13   15      4.67     -3.75
    6   13   15     -1.71     -2.98
    7   13   15     -3.35      4.64
    8   13   15      9.54     -1.36
    9   13   15      1.15      5.13
   10   13   15     -4.42     -2.21
   11   13   15     -0.99     -5.86
   12   13   15     -1.32      3.66
   13   13   15      0.54     -3.75
   14   13   15     -2.08      1.78
   15   13   15     -0.41     -0.25
   16   13   15      0.82      0.54
   17   13   15      3.27      2.36
   18   13   15      2.87      1.13
   19   13   15      0.58      4.06
   20   13   15     -2.25     -2.00
   21   13   15     -2.95      0.68
   22   13   15     -1.05     -3.68
   23   13   15     -2.64     -3.58
   24   13   15      0.35      1.05
   25   13   15      1.35      0.26
   26   13   15      1.29      3.14
   27   13   15      1.38     -1.31
   28   13   15      0.81     -0.76
   29   13   15      0.20      0.69
   30   13   15     -0.47     -0.27
    0   14   15     -0.46      0.51
    1   14   15      0.92     -2.33
    2   14   15      2.85      2.29
    3   14   15     -2.99      1.99
    4   14   15     -3.08     -1.17
    5   14   15     -0.84      1.40
    6   14   15     -0.28      0.17
    7   14   15      4.75      0.72
    8   14   15      0.41     -0.87
    9   14   15     -5.33     -4.59
   10   14   15      1.63      3.02
   11   14   15      2.51      3.39
   12   14   15     -0.45     -3.56
   13   14   15      1.22     -0.25
   14   14   15     -1.93      1.37
   15   14   15     -0.37      2.61
   16   14   15      0.17      1.52
   17   14   15      0.82     -1.85
   18   14   15      0.69     -2.88
   19   14   15     -2.53     -0.86
   20   14   15     -0.79      0.40
   21   14   15      0.40      0.31
   22   14   15      1.72     -0.14
   23   14   15      1.14      0.30
   24   14   15      0.22      1.69
   25   14   15     -1.29     -0.52
   26   14   15     -0.54     -0.02
   27   14   15      0.95     -0.93
   28   14   15     -0.77     -0.08
    0   15   15     -0.38     -6.10
    1   15   15     -1.23     -2.22
    2   15   15      0.45      1.86
    3   15   15      2.22      0.38
    4   15   15      0.77     -0.23
    5   15   15     -1.21     -5.27
    6   15   15     -1.51      3.36
    7   15   15     -0.77      1.27
    8   15   15      0.86     -0.40
    9   15   15      1.30      3.80
   10   15   15     -2.01     -3.18
   11   15   15      0.35     -0.54
   12   15   15      1.54     -0.24
   13   15   15     -1.17      1.66
   14   15   15     -0.10      2.17
   15   15   15      1.47      0.06
   16   15   15      2.05      0.24
   17   15   15     -0.36     -1.71
   18   15   15     -1.57      1.75
   19   15   15     -1.37     -2.19
   20   15   15     -0.35     -2.21
   21   15   15     -1.61     -0.87
   22   15   15     -0.85     -0.73
   23   15   15      2.86      1.92
   24   15   15      0.65      0.28
   25   15   15      0.59      1.63
   26   15   15      1.12      0.09
    0   16   15     -6.08     -0.54
    1   16   15     -1.62     -1.38
    2   16   15      2.37      1.86
    3   16   15     -1.32      2.53
    4   16   15      0.11     -1.38
    5   16   15      0.61     -2.09
    6   16   15      0.38      0.18
    7   16   15      0.37      0.88
    8   16   15     -1.09     -2.62
    9   16   15      0.89      1.08
   10   16   15      1.72      3.51
   11   16   15     -0.88     -1.91
   12   16   15      1.82     -1.24
   13   16   15     -0.20     -0.22
   14   16   15     -2.97      1.80
   15   16   15     -1.20      2.34
   16   16   15      0.68     -1.61
   17   16   15      1.04     -3.31
   18   16   15      0.39     -0.41
   19   16   15      0.83      1.60
   20   16   15     -1.10      0.97
   21   16   15      0.12     -0.84
   22   16   15      0.88     -0.66
   23   16   15     -0.03      1.82
   24   16   15     -0.86      0.20
   24    0   16    -15.31     -1.18
   25    0   16     -0.89     -5.98
   26    0   16      0.71     -0.23
   27    0   16      0.62     -1.10
   28    0   16      2.42      0.41
   29    0   16      0.15      5.55
   30    0   16     -0.27      0.15
   31    0   16      0.24      2.18
   32    0   16      4.77     -0.28
   33    0   16     -0.34     -4.36
   24    1   16     -1.58     -6.86
   25    1   16     -3.49      2.26
   26    1   16      8.58      6.51
   27    1   16      4.39     -0.28
   28    1   16     -3.77      0.99
   29    1   16     -1.56     -1.08
   30    1   16      0.30     -2.05
   31    1   16      1.79     -0.39
   32    1   16     -0.10     -0.36
   33    1   16     -1.59      1.19
   24    2   16      5.96      2.84
   25    2   16      3.55      6.62
   26    2   16      2.38     -1.18
   27    2   16      2.69     -2.64
   28    2   16     -2.29      3.62
   29    2   16     -2.24      0.11
   30    2   16     -1.86     -4.14
   31    2   16      2.65     -0.52
   32    2   16     -1.25     -0.60
   33    2   16     -1.88     -1.19
   23    3   16      1.45     -7.77
   24    3   16     -4.19     -0.54
   25    3   16     -2.28      2.17
   26    3   16      4.66     -0.82
   27    3   16     -0.03      2.24
   28    3   16     -3.64     -1.72
   29    3   16     -0.65     -3.39
   30    3   16     -0.02     -0.59
   31    3   16      2.10     -2.65
   32    3   16      0.84      2.42
   33    3   16     -2.36      1.59
   23    4   16      3.27     -3.98
   24    4   16     -8.97      5.26
   25    4   16     -4.72      3.00
   26    4   16      1.83     -6.01
   27    4   16     -1.10     -3.15
   28    4   16      2.08     -0.77
   29    4   16      0.73     -1.62
   30    4   16      0.04      2.86
   31    4   16      1.16      0.64
   32    4   16     -0.23     -0.84
   33    4   16     -0.21      2.51
   22    5   16     -6.31     -3.03
   23    5   16      5.61      1.25
   24    5   16      2.08      2.87
   25    5   16     -3.92     -1.63
   26    5   16     -0.27      4.61
   27    5   16      2.73      2.98
   28    5   16      1.50     -6.11
   29    5   16     -0.49     -2.00
   30    5   16      2.17      1.24
   31    5   16     -0.24      4.17
   32    5   16     -4.14      1.92
   33    5   16      0.94     -0.54
   21    6   16     -3.32     -7.88
   22    6   16      3.77    -10.91
   23    6   16     -0.42      2.00
   24    6   16     -5.15      5.28
   25    6   16      3.75     -0.23
   26    6   16      4.13      3.64
   27    6   16      1.38      2.10
   28    6   16      1.45     -2.73
   29    6   16     -1.42      1.70
   30    6   16     -1.51      0.92
   31    6   16     -1.19     -5.18
   32    6   16     -1.09      1.93
   33    6   16      1.40      2.81
   20    7   16      6.55     -2.15
   21    7   16      2.20      2.06
   22    7   16     -2.17      3.97
   23    7   16     -2.72      0.04
   24    7   16     -1.39      0.09
   25    7   16      0.57      0.12
   26    7   16      2.29     -1.94
   27    7   16      0.02     -1.38
   28    7   16     -0.61      1.37
   29    7   16      3.22      1.28
   30    7   16      0.37      0.39
   31    7   16     -5.63     -0.28
   32    7   16     -0.95     -1.48
   33    7   16      2.50     -1.27
   18    8   16     -3.35     -0.03
   19    8   16      9.25     -9.17
   20    8   16      2.84     -0.11
   21    8   16     -3.60      0.32
   22    8   16      1.56      0.75
   23    8   16      1.33      2.90
   24    8   16     -0.32      0.84
   25    8   16     -2.52      3.71
   26    8   16     -1.76     -1.55
   27    8   16      2.57     -0.43
   28    8   16      0.27     -2.11
   29    8   16     -2.95     -1.23
   30    8   16     -0.92      2.11
   31    8   16     -0.42      0.09
   32    8   16      1.72      0.22
   33    8   16      1.59     -0.49
   16    9   16      2.00      0.61
   17    9   16      0.68     -3.63
   18    9   16     -3.27     -1.47
   19    9   16     -1.64      1.42
   20    9   16      2.62     -0.04
   21    9   16      0.81      2.83
   22    9   16     -0.09      0.34
   23    9   16     -0.12     -2.57
   24    9   16      0.02      0.45
   25    9   16      1.26     -0.52
   26    9   16     -0.24     -1.77
   27    9   16     -1.17      1.56
   28    9   16     -0.57      2.22
   29    9   16      0.13     -2.66
   30    9   16     -0.45      0.07
   31    9   16     -1.06      3.36
   32    9   16      0.69     -1.19
   33    9   16      0.53     -2.11
   14   10   16     -0.25     -7.71
   15   10   16     -6.18      5.62
   16   10   16      1.71      4.30
   17   10   16      2.39      0.24
   18   10   16      0.49     -5.53
   19   10   16     -0.68      0.69
   20   10   16     -0.21     -0.62
   21   10   16     -0.89      2.75
   22   10   16     -1.20      3.69
   23   10   16      0.75     -2.33
   24   10   16     -0.71      4.81
   25   10   16      0.33     -5.88
   26   10   16     -0.38     -1.93
   27   10   16      0.22      2.12
   28   10   16      1.04     -2.26
   29   10   16     -1.61      4.04
   30   10   16     -0.14      0.79
   31   10   16      2.19     -1.23
   32   10   16      1.08     -1.24
   33   10   16     -0.76     -0.04
   10   11   16     -3.52     -2.80
   11   11   16     -0.93      0.48
   12   11   16      4.42      2.73
   13   11   16     -0.73      1.28
   14   11   16      1.03     -5.43
   15   11   16     -2.68     -0.75
   16   11   16     -0.70     -0.62
   17   11   16      1.34     -0.22
   18   11   16     -0.82      5.30
   19   11   16      5.03     -0.79
   20   11   16      0.90     -3.60
   21   11   16     -0.77      0.03
   22   11   16     -0.62      3.05
   23   11   16     -3.39      2.67
   24   11   16      0.71     -2.23
   25   11   16      0.56     -0.75
   26   11   16     -0.10      1.99
   27   11   16      0.01     -0.35
   28   11   16     -1.11     -2.91
   29   11   16      0.99     -0.26
   30   11   16      0.01      1.48
   31   11   16      0.27     -0.73
   32   11   16      0.43      0.02
    3   12   16     -4.63     -1.00
    4   12   16     -2.81      4.05
    5   12   16     -0.41     -0.14
    6   12   16      0.69     -3.22
    7   12   16      4.82      3.92
    8   12   16      0.76     -3.48
    9   12   16     -1.07     -1.74
   10   12   16     -4.64     -0.91
   11   12   16      0.94     -0.16
   12   12   16      2.90     -2.56
   13   12   16     -1.46     -0.91
   14   12   16      1.74      5.66
   15   12   16     -1.19      0.08
   16   12   16     -3.35      2.90
   17   12   16      0.92     -3.30
   18   12   16      2.95      0.33
   19   12   16      0.08      1.24
   20   12   16     -1.11     -0.53
   21   12   16      0.64      2.19
   22   12   16      0.80     -5.88
   23   12   16     -2.41      1.95
   24   12   16     -0.59      1.22
   25   12   16      1.22      0.28
   26   12   16      0.41      1.26
   27   12   16      0.96     -2.42
   28   12   16     -0.17      1.92
   29   12   16     -0.51     -0.75
   30   12   16     -0.51     -0.94
   31   12   16      0.76      0.07
    0   13   16      0.72     -0.53
    1   13   16     -1.58     -1.49
    2   13   16     -2.30      4.28
    3   13   16      3.49     -0.02
    4   13   16     -0.37      0.44
    5   13   16     -3.19     -0.56
    6   13   16     -2.09     -8.05
    7   13   16     -1.93      2.26
    8   13   16      3.07      0.41
    9   13   16      0.17     -0.04
   10   13   16     -0.63      4.59
   11   13   16      6.34     -2.41
   12   13   16     -1.52     -0.34
   13   13   16      1.17     -0.37
   14   13   16      1.15     -2.75
   15   13   16     -4.94     -0.84
   16   13   16      1.71      1.72
   17   13   16     -0.40      4.11
   18   13   16     -0.25      0.33
   19   13   16      2.18      0.37
   20   13   16      0.74      0.27
   21   13   16     -3.07     -2.01
   22   13   16     -4.37      0.94
   23   13   16      2.77     -0.79
   24   13   16      2.87     -2.50
   25   13   16     -1.32      0.13
   26   13   16     -0.53     -0.31
   27   13   16     -0.09      0.06
   28   13   16      0.40      1.64
   29   13   16      0.49      0.13
    0   14   16     -4.16     -0.44
    1   14   16     -0.51      1.32
    2   14   16     -0.85     -2.86
    3   14   16     -0.09      2.60
    4   14   16      1.86     -0.31
    5   14   16      0.53     -6.20
    6   14   16      3.41      3.76
    7   14   16     -4.94      0.58
    8   14   16     -1.91     -2.78
    9   14   16      3.19     -0.56
   10   14   16      0.06      1.03
   11   14   16     -0.66      1.16
   12   14   16      0.33      3.54
   13   14   16      1.33      3.46
   14   14   16     -1.77     -3.52
   15   14   16      1.35      1.08
   16   14   16      0.73     -2.53
   17   14   16     -0.71     -3.68
   18   14   16      0.88     -0.02
   19   14   16     -0.27      1.34
   20   14   16     -0.71      2.75
   21   14   16     -0.70     -1.30
   22   14   16     -1.53      0.87
   23   14   16      0.47     -1.64
   24   14   16      1.31     -0.54
   25   14   16     -0.05      2.87
   26   14   16      0.72     -1.03
   27   14   16     -0.31     -1.02
    0   15   16      0.14     -2.38
    1   15   16      0.39      0.17
    2   15   16      1.73     -0.45
    3   15   16     -0.88     -1.89
    4   15   16     -0.29     -0.22
    5   15   16      0.52     -1.22
    6   15   16      0.29      3.97
    7   15   16      1.33      0.26
    8   15   16      1.77     -1.02
    9   15   16     -0.73      0.54
   10   15   16      1.53     -2.79
   11   15   16     -1.13      2.51
   12   15   16     -3.54      1.53
   13   15   16     -1.46     -2.20
   14   15   16     -0.43     -0.68
   15   15   16      2.17      1.72
   16   15   16     -0.34      3.57
   17   15   16      0.69     -1.70
   18   15   16     -0.10     -2.82
   19   15   16     -2.07      0.98
   20   15   16      1.01     -0.08
   21   15   16      1.00     -0.97
   22   15   16      1.01     -1.13
   23   15   16     -0.32     -0.58
   24   15   16     -1.05      1.41
   25   15   16      0.93      1.15
    0   16   16      0.59      0.25
    1   16   16      0.52     -1.46
    2   16   16     -2.16      0.05
    3   16   16      2.54      0.24
    4   16   16      3.38     -1.00
    5   16   16     -2.06      1.33
    6   16   16     -2.34     -1.81
    7   16   16      1.24      2.21
    8   16   16     -0.07      2.84
    9   16   16      0.42     -1.31
   10   16   16      2.03     -1.42
   11   16   16     -0.59     -0.67
   12   16   16     -0.62      1.72
   13   16   16     -1.03     -0.12
   14   16   16     -0.25     -1.17
   15   16   16      0.34     -3.33
   16   16   16      0.43     -0.08
   17   16   16      0.14      3.08
   18   16   16     -0.97      0.71
   19   16   16     -0.88     -0.27
   20   16   16      0.04     -0.66
   21   16   16      0.58      1.65
   22   16   16      0.50      0.09
   23   16   16      0.37     -0.92
   23    0   17     -0.68     14.73
   24    0   17     -0.85      1.55
   25    0   17      0.67     -0.87
   26    0   17      5.82     -0.20
   27    0   17      0.35     -1.62
   28    0   17     -1.66      0.52
   29    0   17      0.33     -0.63
   30    0   17     -4.97      0.00
   31    0   17     -0.43     -2.25
   32    0   17      3.76     -0.33
   33    0   17      0.16     -0.54
   23    1   17     -5.89      7.81
   24    1   17     -2.48      2.54
   25    1   17     -3.15     -3.48
   26    1   17      7.24      2.09
   27    1   17      4.56     -3.57
   28    1   17     -1.37     -3.30
   29    1   17     -0.35     -1.58
   30    1   17      1.13      1.12
   31    1   17      0.47      2.17
   32    1   17     -3.40     -0.51
   33    1   17     -1.71     -0.56
   22    2   17     -4.55     10.93
   23    2   17     -1.01     -2.85
   24    2   17      2.56     -0.16
   25    2   17     -2.08      3.11
   26    2   17     -0.98     -6.87
   27    2   17     -2.37      2.94
   28    2   17      1.70     -1.01
   29    2   17      1.87     -3.06
   30    2   17     -1.52      1.17
   31    2   17     -1.10     -0.27
   32    2   17      0.47     -0.54
   33    2   17      0.49      1.76
   22    3   17     -6.03      4.77
   23    3   17      4.00      0.90
   24    3   17      3.61     -4.07
   25    3   17      1.68     -1.69
   26    3   17     -0.86     -0.83
   27    3   17     -4.49      1.72
   28    3   17     -1.16     -1.83
   29    3   17     -0.61     -2.51
   30    3   17     -0.43      2.38
   31    3   17      0.84      3.03
   32    3   17      0.75     -0.20
   33    3   17      0.60     -1.61
   21    4   17     -5.14      2.25
   22    4   17     -7.36     -4.30
   23    4   17      1.85     -3.46
   24    4   17     -4.81      8.04
   25    4   17     -2.52     -5.53
   26    4   17      0.76     -2.81
   27    4   17      2.67      2.33
   28    4   17      0.54     -2.30
   29    4   17      1.13     -0.78
   30    4   17      0.12      3.41
   31    4   17     -2.07      1.99
   32    4   17      1.71     -0.24
   33    4   17      0.58     -0.61
   20    5   17     -1.51     -2.84
   21    5   17     -6.48      3.21
   22    5   17     -0.52      0.29
   23    5   17     -1.45     -6.76
   24    5   17     -0.46      2.74
   25    5   17      3.98      1.42
   26    5   17      1.55     -2.25
   27    5   17      0.17     -0.51
   28    5   17     -0.95     -0.34
   29    5   17      1.27      1.13
   30    5   17      0.34      1.89
   31    5   17     -1.77      0.82
   32    5   17      2.09     -0.38
   33    5   17      1.22     -0.46
   19    6   17      1.78     -9.65
   20    6   17      3.19    -10.42
   21    6   17     -5.83     -0.98
   22    6   17     -2.34     -3.45
   23    6   17     -0.16      2.27
   24    6   17      5.85      1.07
   25    6   17      2.92      5.50
   26    6   17      0.65     -1.72
   27    6   17      0.78     -2.55
   28    6   17      1.43      4.23
   29    6   17     -0.67     -2.79
   30    6   17     -2.82     -3.08
   31    6   17      0.27      3.43
   32    6   17     -1.26      1.49
   33    6   17      1.18     -1.77
   18    7   17     -5.07      2.87
   19    7   17     -2.95     -0.88
   20    7   17      2.50     -4.93
   21    7   17      2.25     -1.34
   22    7   17     -1.56     -0.73
   23    7   17      1.56      2.20
   24    7   17      6.64     -0.17
   25    7   17     -1.26     -2.05
   26    7   17     -1.93      1.45
   27    7   17      1.88      2.77
   28    7   17     -1.82      0.07
   29    7   17     -2.01     -1.51
   30    7   17     -0.46      1.31
   31    7   17      0.59      1.38
   32    7   17      0.54     -1.65
   33    7   17     -1.24     -1.18
   16    8   17      0.75     -5.94
   17    8   17     -2.13     -0.78
   18    8   17      5.27     -2.75
   19    8   17      1.17     -3.97
   20    8   17     -4.76     -1.27
   21    8   17      3.51     -4.95
   22    8   17      2.10      9.44
   23    8   17      3.29      4.94
   24    8   17     -0.33      2.87
   25    8   17     -3.20     -0.51
   26    8   17     -1.77     -4.32
   27    8   17     -0.82     -1.58
   28    8   17      0.40     -2.51
   29    8   17     -2.62      2.41
   30    8   17      1.36      1.34
   31    8   17      0.46      0.27
   32    8   17     -0.69      1.67
   33    8   17      1.11     -0.59
   14    9   17      7.45     -0.40
   15    9   17     -1.28      4.94
   16    9   17     -2.22     -4.19
   17    9   17      0.93     -2.70
   18    9   17     -2.27     -0.12
   19    9   17      1.35     -0.04
   20    9   17      2.08      0.59
   21    9   17      0.23      0.55
   22    9   17      0.22      2.66
   23    9   17      0.62      1.11
   24    9   17      0.15     -1.72
   25    9   17     -3.11     -1.83
   26    9   17     -0.86      1.55
   27    9   17      0.61      2.36
   28    9   17     -0.90     -1.49
   29    9   17      0.99     -0.72
   30    9   17      1.07      1.60
   31    9   17     -0.26     -0.60
   32    9   17     -1.15     -1.02
   33    9   17     -0.14     -0.16
   11   10   17     -9.92     -1.50
   12   10   17      0.76      5.67
   13   10   17     -4.48     -4.47
   14   10   17      1.97      7.18
   15   10   17      4.56     -3.17
   16   10   17     -1.69     -2.98
   17   10   17      0.00      0.84
   18   10   17      1.47     -4.08
   19   10   17      0.72      6.01
   20   10   17      2.02      1.51
   21   10   17     -0.41      2.75
   22   10   17     -2.10     -0.18
   23   10   17     -1.86      0.01
   24   10   17     -1.31      0.13
   25   10   17     -0.05     -2.61
   26   10   17     -0.53     -0.95
   27   10   17      1.31     -4.07
   28   10   17      1.13      2.42
   29   10   17      0.61      2.90
   30   10   17      0.89     -1.05
   31   10   17      0.48      0.40
   32   10   17      0.20     -1.11
    5   11   17      3.83      4.57
    6   11   17      0.88      3.11
    7   11   17      0.60     -2.61
    8   11   17     -4.10     -9.28
    9   11   17     -6.30     -1.53
   10   11   17     -0.63      4.42
   11   11   17      1.61      0.03
   12   11   17      2.85     -3.94
   13   11   17      4.90      1.43
   14   11   17     -2.43      4.20
   15   11   17     -4.08      1.64
   16   11   17      3.64      2.91
   17   11   17     -1.15     -2.80
   18   11   17     -1.36     -4.64
   19   11   17      0.89      0.80
   20   11   17     -0.37      2.20
   21   11   17      1.42      1.35
   22   11   17     -0.59     -1.40
   23   11   17      1.86     -0.65
   24   11   17     -0.24      1.38
   25   11   17     -1.68      0.10
   26   11   17     -0.37     -0.82
   27   11   17     -1.05      0.02
   28   11   17      1.13      1.19
   29   11   17     -0.15     -1.01
   30   11   17      0.16     -2.07
   31   11   17      0.18      0.66
    0   12   17      2.90     -0.18
    1   12   17     -1.32      2.91
    2   12   17     -7.23      3.19
    3   12   17     -5.13     -2.51
    4   12   17      5.88     -0.68
    5   12   17      4.95     -7.45
    6   12   17      4.73     -0.05
    7   12   17     -1.83      4.59
    8   12   17     -3.36      2.62
    9   12   17     -0.60      2.39
   10   12   17     -1.99     -2.08
   11   12   17      1.45      4.39
   12   12   17     -2.22     -2.66
   13   12   17      1.85     -2.44
   14   12   17      0.75     -2.08
   15   12   17     -1.63      0.82
   16   12   17      4.73      3.32
   17   12   17      0.14     -4.20
   18   12   17     -0.99      2.64
   19   12   17      0.10      1.35
   20   12   17     -2.60      0.97
   21   12   17     -3.79      0.02
   22   12   17      0.69     -1.47
   23   12   17      2.39     -1.35
   24   12   17      0.93     -2.94
   25   12   17      1.65      1.46
   26   12   17     -0.40     -0.57
   27   12   17     -0.15      0.02
   28   12   17     -0.28      1.82
   29   12   17     -0.12     -0.08
   30   12   17     -0.32      0.77
    0   13   17     -0.05      2.88
    1   13   17      3.89     -2.58
    2   13   17     -0.89     -0.76
    3   13   17     -2.91     -0.09
    4   13   17     -1.22      0.04
    5   13   17     -4.70     -1.42
    6   13   17      3.81     -0.78
    7   13   17      0.09      0.09
    8   13   17     -5.48     -3.38
    9   13   17      2.28      0.74
   10   13   17      3.40      5.40
   11   13   17      3.88      4.21
   12   13   17      1.63     -0.37
   13   13   17     -0.96     -3.40
   14   13   17     -3.53     -2.17
   15   13   17      0.00     -0.06
   16   13   17     -0.17     -0.21
   17   13   17     -1.31     -0.79
   18   13   17      2.63      1.75
   19   13   17     -1.06      0.78
   20   13   17      0.16     -1.26
   21   13   17      0.83     -0.80
   22   13   17      0.09      1.50
   23   13   17     -2.30      0.66
   24   13   17     -2.47     -1.62
   25   13   17      2.62      0.41
   26   13   17      1.25      0.39
   27   13   17     -0.73     -0.11
   28   13   17     -0.29     -0.58
    0   14   17      0.11      0.00
    1   14   17     -0.86      3.69
    2   14   17     -4.62     -5.21
    3   14   17      3.27     -1.04
    4   14   17      7.65      0.24
    5   14   17      2.43     -2.06
    6   14   17     -5.75      3.56
    7   14   17     -3.91      0.04
    8   14   17      3.83     -1.07
    9   14   17     -2.39     -2.16
   10   14   17      0.64      0.64
   11   14   17      0.44     -0.15
   12   14   17      0.00     -1.39
   13   14   17      2.45      0.89
   14   14   17     -2.63      0.91
   15   14   17      0.57     -1.35
   16   14   17     -0.64     -0.64
   17   14   17      0.69      5.03
   18   14   17      0.50      0.63
   19   14   17     -1.90     -1.53
   20   14   17     -0.97     -0.32
   21   14   17      0.76     -1.34
   22   14   17      2.26     -2.10
   23   14   17     -0.94     -1.49
   24   14   17      0.84      1.84
   25   14   17      0.09      1.56
   26   14   17     -0.76      0.66
    0   15   17     -0.09     -0.98
    1   15   17     -1.36     -2.19
    2   15   17     -3.73     -0.42
    3   15   17      1.83     -1.26
    4   15   17      0.71     -1.06
    5   15   17      0.67      1.28
    6   15   17      2.55      1.95
    7   15   17     -0.18     -0.73
    8   15   17      0.99      2.34
    9   15   17      0.29     -0.96
   10   15   17      0.62     -0.69
   11   15   17     -2.08     -0.11
   12   15   17     -2.19     -2.65
   13   15   17      0.33      2.08
   14   15   17     -0.18      0.20
   15   15   17     -1.63     -0.80
   16   15   17     -0.93      1.10
   17   15   17      1.53      0.85
   18   15   17     -0.26     -1.25
   19   15   17      1.75     -0.14
   20   15   17      0.53      0.65
   21   15   17     -1.23     -0.65
   22   15   17      1.18      1.23
   23   15   17      0.17      0.21
   24   15   17     -0.45     -0.74
    0   16   17      1.44     -0.23
    1   16   17      1.67     -2.10
    2   16   17      0.42     -0.99
    3   16   17     -0.77      0.95
    4   16   17     -0.38     -2.05
    5   16   17      0.91      1.00
    6   16   17     -1.38      2.40
    7   16   17      1.00      0.47
    8   16   17     -0.95     -0.34
    9   16   17     -0.87     -0.12
   10   16   17      0.89      0.18
   11   16   17      0.14      0.62
   12   16   17      0.98     -0.24
   13   16   17     -1.54      0.02
   14   16   17      1.42      0.19
   15   16   17     -0.72     -0.29
   16   16   17     -2.11      0.72
   17   16   17      1.30     -0.61
   18   16   17      0.87     -1.41
   19   16   17      0.24     -0.79
   20   16   17     -0.10      0.24
   21   16   17      0.65      0.75
   21    0   18      0.04     11.28
   22    0   18     -8.52     -0.98
   23    0   18     -0.03     -8.92
   24    0   18      9.24     -0.22
   25    0   18     -0.62      2.67
   26    0   18     -3.27      0.52
   27    0   18      0.96     -0.72
   28    0   18     -2.11     -0.10
   29    0   18     -0.14     -0.95
   30    0   18      2.53     -0.38
   31    0   18      0.05      0.67
   32    0   18     -0.19      0.54
   33    0   18     -0.23     -0.46
   21    1   18      0.33     -0.13
   22    1   18     -8.29      6.60
   23    1   18      1.51     -3.82
   24    1   18      3.62     -0.88
   25    1   18     -3.87      3.08
   26    1   18     -2.14     -3.93
   27    1   18      3.59     -0.12
   28    1   18      0.35      3.48
   29    1   18     -2.98     -2.64
   30    1   18      0.86     -2.04
   31    1   18      0.33      3.45
   32    1   18      0.26      1.65
   33    1   18      0.43     -0.90
   20    2   18     -1.37      3.64
   21    2   18      5.94     -4.29
   22    2   18     -0.21     -4.32
   23    2   18      0.33     -1.89
   24    2   18      0.41      0.12
   25    2   18     -2.24      3.36
   26    2   18     -0.34      1.39
   27    2   18     -0.14     -0.42
   28    2   18      0.48     -3.85
   29    2   18      1.51     -0.01
   30    2   18     -0.74      2.07
   31    2   18      1.25     -0.84
   32    2   18      0.92     -0.08
   33    2   18     -2.79      2.21
   20    3   18     -2.21     -5.75
   21    3   18     -9.86     -0.56
   22    3   18      1.86      2.57
   23    3   18      5.59      4.01
   24    3   18     -0.11      3.04
   25    3   18      0.05     -1.49
   26    3   18      0.10     -2.80
   27    3   18      0.62     -0.42
   28    3   18     -1.75      1.58
   29    3   18     -0.80     -1.02
   30    3   18      3.64     -0.90
   31    3   18      0.26      1.22
   32    3   18     -0.65     -0.46
   33    3   18     -0.05      0.45
   19    4   18     -1.94      0.60
   20    4   18      3.44     -3.46
   21    4   18      0.79      2.49
   22    4   18     -2.78      4.20
   23    4   18      0.09     -1.98
   24    4   18      4.81     -0.81
   25    4   18     -0.51     -0.86
   26    4   18     -7.07      1.62
   27    4   18      2.06      2.24
   28    4   18      5.70      0.30
   29    4   18     -1.13     -1.60
   30    4   18     -1.15      1.14
   31    4   18     -0.08      1.23
   32    4   18     -1.59     -1.28
   33    4   18      0.57     -0.56
   18    5   18     -1.53      2.58
   19    5   18     -0.23      5.14
   20    5   18     -6.80      0.22
   21    5   18      1.65      0.91
   22    5   18      6.81      1.46
   23    5   18     -0.92     -2.32
   24    5   18      0.80     -3.42
   25    5   18      3.21     -0.85
   26    5   18     -1.86     -2.10
   27    5   18     -2.90      0.11
   28    5   18     -0.97      4.32
   29    5   18      1.01     -0.42
   30    5   18      1.16     -1.85
   31    5   18      2.89      1.24
   32    5   18     -0.83     -0.40
   33    5   18     -3.71     -1.47
   17    6   18      4.36     -6.00
   18    6   18     -1.34     -2.98
   19    6   18     -0.11      0.81
   20    6   18     -1.61      4.68
   21    6   18      1.04     -1.27
   22    6   18      1.35     -3.30
   23    6   18     -2.33      4.24
   24    6   18      0.28      0.20
   25    6   18     -0.51     -0.59
   26    6   18      0.53     -2.05
   27    6   18      2.17     -0.48
   28    6   18      0.67      0.63
   29    6   18     -1.16     -0.77
   30    6   18     -1.51      1.56
   31    6   18     -1.39     -0.21
   32    6   18      0.38     -2.13
   33    6   18      0.88      0.18
   16    7   18      3.12     -0.48
   17    7   18     -7.05     -0.56
   18    7   18     -4.79     -4.15
   19    7   18     -1.62      0.67
   20    7   18     -0.56      3.87
   21    7   18      3.08     -1.76
   22    7   18      6.30      0.44
   23    7   18      1.49     -4.49
   24    7   18     -0.40     -1.11
   25    7   18     -2.27      1.97
   26    7   18     -2.03      0.38
   27    7   18     -2.16      3.41
   28    7   18     -1.11     -1.80
   29    7   18      2.29      0.34
   30    7   18      1.10      2.35
   31    7   18     -0.43     -1.94
   32    7   18     -0.82     -0.72
   33    7   18      0.50      1.60
   14    8   18     -2.00     -7.80
   15    8   18     -3.27      1.85
   16    8   18     -3.07     -1.70
   17    8   18     -0.82     -3.02
   18    8   18      1.09      0.34
   19    8   18     -2.04      0.89
   20    8   18      4.10      2.81
   21    8   18      2.00     -1.98
   22    8   18     -3.19     -1.96
   23    8   18      1.62      2.64
   24    8   18      0.58      3.53
   25    8   18      1.65      0.50
   26    8   18     -1.39     -2.18
   27    8   18     -3.30     -3.41
   28    8   18      0.36      2.80
   29    8   18      0.12      1.58
   30    8   18      0.08     -1.88
   31    8   18     -0.15      0.68
   32    8   18      1.30      0.34
   33    8   18      0.99     -0.10
   11    9   18     -3.49     -3.77
   12    9   18      7.31     -0.01
   13    9   18     -0.79     -0.99
   14    9   18      1.57      5.93
   15    9   18      0.26     -2.01
   16    9   18     -2.71     -2.30
   17    9   18     -2.93      0.61
   18    9   18     -1.02     -4.26
   19    9   18      7.84      4.38
   20    9   18      2.01      1.06
   21    9   18     -0.92     -1.57
   22    9   18     -1.05     -1.65
   23    9   18     -0.69      0.71
   24    9   18     -3.26      1.73
   25    9   18      0.08     -0.21
   26    9   18      2.37      3.64
   27    9   18     -2.76     -1.17
   28    9   18      2.72     -1.75
   29    9   18      1.11      0.20
   30    9   18     -2.39     -0.29
   31    9   18      0.13     -0.61
   32    9   18      0.73     -0.12
    6   10   18      4.43     -4.20
    7   10   18      4.48      5.01
    8   10   18     -2.17     -5.55
    9   10   18     -0.68     -2.56
   10   10   18     -4.27      2.31
   11   10   18     -3.92     -3.54
   12   10   18     -0.35      3.73
   13   10   18     -2.11     -1.61
   14   10   18      1.89      2.56
   15   10   18      2.09     -0.32
   16   10   18     -1.29     -4.32
   17   10   18      2.68      0.64
   18   10   18      4.43      1.22
   19   10   18      1.57      3.36
   20   10   18     -2.62      1.80
   21   10   18     -3.30      0.28
   22   10   18      1.95      1.70
   23   10   18      0.96      0.16
   24   10   18     -1.83     -3.18
   25   10   18     -2.54     -2.59
   26   10   18     -0.97     -0.95
   27   10   18      1.89      2.75
   28   10   18      1.48     -0.39
   29   10   18      0.50     -1.11
   30   10   18     -0.14      0.62
   31   10   18     -0.36     -1.11
    0   11   18      0.49     -1.34
    1   11   18      5.53     -2.34
    2   11   18     -1.82      3.15
    3   11   18     -4.55      1.91
    4   11   18      0.22     -1.03
    5   11   18     -4.18     -1.22
    6   11   18     -3.67     -1.30
    7   11   18     -0.72      0.63
    8   11   18      0.10      0.15
    9   11   18      1.32     -3.14
   10   11   18      3.47     -2.98
   11   11   18      2.83      2.11
   12   11   18     -2.49      1.45
   13   11   18      4.91      4.68
   14   11   18      2.12      1.78
   15   11   18     -3.39     -3.93
   16   11   18     -2.83     -1.17
   17   11   18     -1.88     -0.81
   18   11   18      3.04      0.58
   19   11   18     -0.70     -0.65
   20   11   18      1.66      1.91
   21   11   18     -1.58     -1.02
   22   11   18      0.39      0.74
   23   11   18      0.79      3.35
   24   11   18     -2.46     -3.70
   25   11   18      2.62      0.73
   26   11   18     -2.12      0.43
   27   11   18     -0.19     -1.66
   28   11   18      0.03     -0.57
   29   11   18     -1.48     -0.26
   30   11   18      1.93      0.52
    0   12   18     -1.22      0.10
    1   12   18     -2.25      1.58
    2   12   18     -1.91     -0.74
    3   12   18     -3.37     -1.73
    4   12   18      3.75      1.85
    5   12   18      1.86     -4.84
    6   12   18     -1.63      2.97
    7   12   18     -1.56      0.51
    8   12   18     -0.66     -3.23
    9   12   18      0.64      7.69
   10   12   18     -2.91      0.65
   11   12   18      1.36     -0.26
   12   12   18      6.07     -2.12
   13   12   18      0.81     -1.58
   14   12   18     -0.29      1.00
   15   12   18      0.74     -3.54
   16   12   18      1.37      1.30
   17   12   18     -1.45      3.86
   18   12   18     -3.06     -0.66
   19   12   18     -0.58      0.59
   20   12   18     -1.67      0.05
   21   12   18     -0.32     -1.80
   22   12   18     -0.22     -1.18
   23   12   18     -1.04     -2.08
   24   12   18      2.62      0.63
   25   12   18      1.00      0.13
   26   12   18     -1.80      0.85
   27   12   18      1.69      0.54
   28   12   18      1.00      0.03
    0   13   18      0.13     -0.05
    1   13   18     -0.14      0.62
    2   13   18     -2.41      2.09
    3   13   18     -1.82     -3.28
    4   13   18      0.13     -4.85
    5   13   18      0.42     -1.76
    6   13   18      2.08      3.53
    7   13   18      2.14      1.22
    8   13   18      1.97     -0.51
    9   13   18      2.95      1.81
   10   13   18     -0.78     -0.45
   11   13   18     -5.36      1.58
   12   13   18      1.29      1.64
   13   13   18      0.94     -1.49
   14   13   18     -4.42     -1.85
   15   13   18     -2.78     -1.69
   16   13   18      1.98     -0.90
   17   13   18      5.73      2.32
   18   13   18     -1.12      0.49
   19   13   18     -0.54     -0.65
   20   13   18     -1.24      1.42
   21   13   18     -0.97      0.79
   22   13   18      2.71     -0.92
   23   13   18     -2.12     -2.20
   24   13   18     -1.29      0.04
   25   13   18      0.49      0.26
   26   13   18      0.90      0.85
   27   13   18      0.61      0.90
    0   14   18     -1.20      0.24
    1   14   18      3.92      0.18
    2   14   18     -1.39      0.81
    3   14   18     -1.87      2.17
    4   14   18      0.83     -0.19
    5   14   18      2.64     -1.94
    6   14   18      3.32     -0.94
    7   14   18     -0.84     -0.46
    8   14   18     -1.21      2.24
    9   14   18     -1.37     -0.27
   10   14   18      1.38     -0.73
   11   14   18      1.91     -0.66
   12   14   18     -2.56     -2.64
   13   14   18     -0.26      0.24
   14   14   18     -1.41      0.84
   15   14   18     -1.67      0.33
   16   14   18      0.43      2.25
   17   14   18      0.84      0.31
   18   14   18      0.11     -0.38
   19   14   18     -1.59     -0.17
   20   14   18      0.32     -0.74
   21   14   18      0.51     -0.31
   22   14   18      0.75     -0.31
   23   14   18      2.94      0.67
   24   14   18      1.14     -0.85
   25   14   18     -2.12      0.33
    0   15   18     -0.61     -2.24
    1   15   18     -0.16      2.55
    2   15   18     -0.15     -1.57
    3   15   18     -0.04      0.31
    4   15   18     -0.93      2.15
    5   15   18      1.89     -1.43
    6   15   18      2.11      1.47
    7   15   18     -2.75      0.46
    8   15   18      0.56      0.65
    9   15   18      0.89     -0.71
   10   15   18     -4.23     -1.16
   11   15   18      1.07      0.43
   12   15   18      1.77     -0.98
   13   15   18     -1.46      0.25
   14   15   18     -0.35      1.39
   15   15   18      0.68     -0.15
   16   15   18      2.23     -0.74
   17   15   18     -0.58      0.68
   18   15   18     -0.08      0.53
   19   15   18      0.73     -1.28
   20   15   18     -0.69     -1.25
   21   15   18     -0.30      1.10
   22   15   18     -0.88      1.65
    0   16   18      1.63      0.32
    1   16   18     -0.58     -1.36
    2   16   18      0.05     -0.96
    3   16   18     -1.87      2.35
    4   16   18     -0.58     -0.10
    5   16   18      4.11     -1.10
    6   16   18     -1.39      0.44
    7   16   18     -2.24     -0.35
    8   16   18      0.28      0.55
    9   16   18     -0.19     -0.05
   10   16   18      0.97      0.77
   11   16   18     -0.42      0.42
   12   16   18      0.36     -1.38
   13   16   18     -0.48      0.21
   14   16   18     -1.18      0.94
   15   16   18      0.07      1.19
   16   16   18      0.93     -0.67
   17   16   18      0.96     -1.32
   18   16   18     -0.11     -0.40
   19   16   18      0.64      0.34
   19    0   19     -0.71     -3.13
   20    0   19      2.53     -1.27
   21    0   19      0.58      6.84
   22    0   19      0.20      1.97
   23    0   19     -0.50    -10.54
   24    0   19     -0.82     -0.51
   25    0   19      0.38      3.70
   26    0   19     -3.41     -0.10
   27    0   19     -0.39      2.86
   28    0   19      2.05     -0.62
   29    0   19      0.52     -0.91
   30    0   19      0.39      0.48
   31    0   19      0.15      1.09
   32    0   19     -0.30     -0.52
   33    0   19     -0.38     -1.52
   19    1   19     12.56      0.52
   20    1   19     -1.44      4.00
   21    1   19     -2.04     -2.41
   22    1   19     -3.98     -1.29
   23    1   19     -3.42      2.83
   24    1   19     -0.09      1.01
   25    1   19     -0.81      0.14
   26    1   19      0.14     -0.73
   27    1   19     -0.40     -0.23
   28    1   19      1.20      3.32
   29    1   19      0.28     -0.18
   30    1   19     -0.53     -1.93
   31    1   19      1.91      0.22
   32    1   19     -0.26     -1.71
   33    1   19     -0.49      1.07
   18    2   19     -5.39      0.25
   19    2   19      5.00      1.22
   20    2   19      0.17      2.39
   21    2   19     -6.65      3.73
   22    2   19     -1.20     -1.64
   23    2   19      2.05     -0.68
   24    2   19      1.59      3.21
   25    2   19     -0.60      0.65
   26    2   19     -1.52      0.70
   27    2   19      2.45      0.05
   28    2   19      2.95     -3.30
   29    2   19     -0.66     -3.30
   30    2   19     -0.80     -0.34
   31    2   19     -0.63      2.79
   32    2   19     -0.66      0.32
   33    2   19      0.70     -1.08
   18    3   19     -3.87      1.76
   19    3   19     -9.12      8.54
   20    3   19      1.31      5.57
   21    3   19      5.50     -2.13
   22    3   19     -5.05     -1.81
   23    3   19     -2.65      1.57
   24    3   19     -0.60     -2.97
   25    3   19      1.92      2.78
   26    3   19      2.13     -0.58
   27    3   19     -0.75     -4.72
   28    3   19      3.61      0.79
   29    3   19      0.83     -1.33
   30    3   19     -0.38      0.61
   31    3   19      0.41     -0.70
   32    3   19     -1.30      0.52
   33    3   19     -0.29      1.19
   17    4   19      4.82      5.79
   18    4   19      1.50      0.77
   19    4   19     -0.45      2.02
   20    4   19     -1.95      7.21
   21    4   19      1.64     -2.20
   22    4   19      2.22     -8.09
   23    4   19     -2.03     -0.93
   24    4   19      0.48     -0.06
   25    4   19      2.37     -1.64
   26    4   19      0.10     -0.65
   27    4   19     -0.07     -1.17
   28    4   19      0.52      3.60
   29    4   19     -1.04      2.26
   30    4   19     -1.43     -1.11
   31    4   19      0.00     -0.37
   32    4   19     -0.28     -0.12
   33    4   19     -0.50      0.68
   16    5   19     -9.77      9.60
   17    5   19     -3.66      3.86
   18    5   19     -5.42     -5.19
   19    5   19     -7.26     -4.43
   20    5   19      6.28      2.31
   21    5   19      2.63     -3.89
   22    5   19      3.25     -1.35
   23    5   19      1.66     -1.72
   24    5   19     -2.95     -2.28
   25    5   19      3.58     -0.06
   26    5   19     -0.92      1.33
   27    5   19      1.42      3.74
   28    5   19      0.51     -0.64
   29    5   19     -4.17      0.95
   30    5   19      1.24     -1.49
   31    5   19     -1.93      0.08
   32    5   19     -1.79      1.47
   33    5   19      1.83     -0.39
   15    6   19     -2.04      2.11
   16    6   19      0.67      0.78
   17    6   19     -2.41     -3.14
   18    6   19     -2.53     -0.80
   19    6   19      2.82      3.30
   20    6   19     -0.77      0.59
   21    6   19     -1.78     -7.14
   22    6   19      2.87     -4.69
   23    6   19      1.08      2.02
   24    6   19     -1.92      3.33
   25    6   19     -0.73      2.03
   26    6   19     -0.99      1.04
   27    6   19      0.36      2.97
   28    6   19      1.21     -1.14
   29    6   19     -0.31     -1.75
   30    6   19      0.23      1.55
   31    6   19     -1.14     -2.85
   32    6   19     -0.90     -1.02
   33    6   19      1.11      1.73
   13    7   19      5.86      7.66
   14    7   19      5.97      8.34
   15    7   19     -8.91     -2.19
   16    7   19     -6.09     -8.37
   17    7   19     -2.92     -5.37
   18    7   19     -2.87     -1.32
   19    7   19      7.52      4.48
   20    7   19      0.97     -1.42
   21    7   19      0.50      2.52
   22    7   19      7.32      0.68
   23    7   19     -2.75     -4.24
   24    7   19     -4.70      4.01
   25    7   19     -0.93      1.40
   26    7   19      2.19      0.99
   27    7   19     -1.41      1.10
   28    7   19     -3.39      0.27
   29    7   19      1.43     -3.36
   30    7   19      0.71     -1.86
   31    7   19      1.95      3.85
   32    7   19      0.92     -0.68
   33    7   19     -1.51     -1.63
   10    8   19     -1.83      2.57
   11    8   19      2.23      4.63
   12    8   19      4.63     -0.37
   13    8   19      3.45     -2.85
   14    8   19     -4.67      0.45
   15    8   19     -1.69      2.09
   16    8   19     -0.51     -2.30
   17    8   19     -4.84     -0.24
   18    8   19     -1.78     -0.01
   19    8   19      2.85     -3.37
   20    8   19      2.32      2.74
   21    8   19      1.56      2.58
   22    8   19      2.24     -3.56
   23    8   19     -1.55      2.56
   24    8   19     -1.83      3.73
   25    8   19      0.95     -2.60
   26    8   19     -0.08     -0.91
   27    8   19     -0.29      0.74
   28    8   19      0.09     -1.30
   29    8   19      0.37      0.66
   30    8   19     -0.85      0.61
   31    8   19     -0.49     -1.54
   32    8   19      1.31     -0.90
    6    9   19      7.35     -5.69
    7    9   19     -0.68      6.07
    8    9   19      0.48     -0.88
    9    9   19     -2.32     -5.26
   10    9   19     -2.74      3.07
   11    9   19      1.59      5.18
   12    9   19     -1.49      1.61
   13    9   19      1.97      2.23
   14    9   19     -0.84     -2.36
   15    9   19     -4.66     -6.40
   16    9   19      0.30     -0.15
   17    9   19     -0.22      0.48
   18    9   19      4.57      2.15
   19    9   19      1.11      1.79
   20    9   19      0.08     -0.57
   21    9   19      5.87     -0.01
   22    9   19     -3.14      0.08
   23    9   19     -4.33      2.58
   24    9   19     -3.27     -2.32
   25    9   19      1.45     -1.13
   26    9   19      2.82     -0.75
   27    9   19     -0.87     -0.11
   28    9   19      1.21      2.33
   29    9   19     -0.57     -2.74
   30    9   19     -0.04     -0.03
   31    9   19      0.32      0.93
    0   10   19     -1.92      0.30
    1   10   19     -2.51     -6.13
    2   10   19     -0.44      0.06
    3   10   19     -4.67      3.32
    4   10   19      0.65      0.01
    5   10   19      2.53      2.46
    6   10   19      5.09      0.41
    7   10   19      4.73      2.77
    8   10   19     -4.73     -0.12
    9   10   19     -5.30     -0.86
   10   10   19     -1.28     -2.60
   11   10   19      0.05     -2.30
   12   10   19      3.14      2.34
   13   10   19      1.51      0.31
   14   10   19     -2.85      0.11
   15   10   19     -0.85     -0.13
   16   10   19      0.01      1.78
   17   10   19      0.70      0.47
   18   10   19      0.97     -4.60
   19   10   19      0.93     -0.55
   20   10   19      2.67      3.50
   21   10   19      0.46      1.21
   22   10   19     -1.09     -1.00
   23   10   19     -1.54      0.11
   24   10   19     -0.99      1.01
   25   10   19      1.51     -0.51
   26   10   19     -1.46     -1.11
   27   10   19     -1.56     -2.10
   28   10   19      1.08     -0.06
   29   10   19     -0.66      1.60
   30   10   19      0.11     -0.34
    0   11   19      0.22      3.04
    1   11   19      1.06      2.22
    2   11   19     -5.20     -4.94
    3   11   19     -3.11     -4.62
    4   11   19     -2.68      3.00
    5   11   19      0.17     -1.43
    6   11   19      1.75      1.04
    7   11   19      2.03      5.81
    8   11   19      3.01      1.05
    9   11   19     -0.70      1.32
   10   11   19     -1.01     -1.67
   11   11   19     -1.97     -1.55
   12   11   19      1.41      0.54
   13   11   19      2.84     -3.30
   14   11   19     -3.67     -1.58
   15   11   19      0.83      1.00
   16   11   19      0.27     -0.39
   17   11   19      2.41      1.42
   18   11   19      0.88      1.37
   19   11   19     -2.95     -0.01
   20   11   19      2.17      0.34
   21   11   19     -1.49     -3.21
   22   11   19      0.12      1.86
   23   11   19     -3.28      0.89
   24   11   19     -1.01     -2.00
   25   11   19      3.39      1.91
   26   11   19     -0.32     -0.45
   27   11   19      0.27      0.33
   28   11   19     -0.62     -0.34
    0   12   19      2.46      0.14
    1   12   19     -0.38      2.38
    2   12   19     -0.88      2.22
    3   12   19      0.19      1.84
    4   12   19     -2.48     -0.39
    5   12   19      0.79     -5.43
    6   12   19      0.83      2.57
    7   12   19     -2.84     -1.81
    8   12   19      0.85     -3.76
    9   12   19      1.45     -0.16
   10   12   19      0.58     -0.97
   11   12   19      2.58      5.89
   12   12   19      0.46      2.36
   13   12   19     -2.23      0.99
   14   12   19      1.68     -1.89
   15   12   19     -1.52     -5.49
   16   12   19     -4.07      1.76
   17   12   19      3.71      0.54
   18   12   19      2.91      0.35
   19   12   19     -0.46      1.86
   20   12   19     -0.66      0.74
   21   12   19     -2.93     -0.32
   22   12   19     -1.54     -1.83
   23   12   19      0.38     -0.34
   24   12   19      0.75     -0.24
   25   12   19     -0.77     -0.40
   26   12   19     -0.08      0.59
   27   12   19      1.84      0.53
    0   13   19     -0.35      0.28
    1   13   19     -3.03     -0.95
    2   13   19      1.95     -1.81
    3   13   19     -0.02      1.52
    4   13   19     -0.14      1.24
    5   13   19      6.24      2.66
    6   13   19     -0.66      1.10
    7   13   19     -1.12     -4.90
    8   13   19     -0.39      2.43
    9   13   19     -0.02      0.12
   10   13   19      1.45     -3.80
   11   13   19     -3.11      0.01
   12   13   19     -1.81      0.89
   13   13   19     -0.41      2.09
   14   13   19      2.93     -2.27
   15   13   19     -0.95     -0.84
   16   13   19      0.41      1.48
   17   13   19      2.18      0.93
   18   13   19     -3.04      1.50
   19   13   19      0.95      1.12
   20   13   19     -0.43     -1.41
   21   13   19     -0.92     -1.76
   22   13   19     -1.36      0.67
   23   13   19      1.59     -0.20
   24   13   19      2.76      0.03
   25   13   19     -1.11     -0.21
    0   14   19     -1.57      0.09
    1   14   19      0.10     -0.79
    2   14   19     -0.14     -2.27
    3   14   19     -0.17      0.02
    4   14   19      1.37     -0.92
    5   14   19      2.40      0.36
    6   14   19     -0.01      0.79
    7   14   19      0.65      0.47
    8   14   19      0.41      1.12
    9   14   19     -0.87      1.07
   10   14   19     -0.67      2.08
   11   14   19     -1.39     -0.33
   12   14   19     -0.23      0.44
   13   14   19     -1.20     -2.84
   14   14   19      0.27     -4.27
   15   14   19      2.01      3.99
   16   14   19     -0.73      0.09
   17   14   19     -1.13     -1.96
   18   14   19      0.24      1.88
   19   14   19      0.04      0.96
   20   14   19     -0.60     -0.90
   21   14   19      0.70     -1.06
   22   14   19      0.47      0.28
   23   14   19      0.55     -0.09
    0   15   19      0.17     -2.75
    1   15   19     -0.41      1.64
    2   15   19      2.98      1.95
    3   15   19     -0.01      2.35
    4   15   19      0.36      0.17
    5   15   19      0.61      0.22
    6   15   19     -0.77     -1.14
    7   15   19     -2.06     -1.85
    8   15   19     -0.94     -1.18
    9   15   19      1.53     -0.07
   10   15   19     -1.04      1.45
   11   15   19      0.08      0.82
   12   15   19      0.20      0.92
   13   15   19      1.98     -1.40
   14   15   19     -0.04      1.09
   15   15   19     -1.95      0.52
   16   15   19      1.43     -1.08
   17   15   19      1.57      1.16
   18   15   19     -0.36     -1.08
   19   15   19     -1.70     -1.51
   20   15   19      0.42     -0.39
    0   16   19     -1.18     -0.27
    1   16   19      1.14     -0.09
    2   16   19      1.23      1.94
    3   16   19      0.56      0.67
    4   16   19      0.53      1.00
    5   16   19     -2.35     -0.36
    6   16   19     -0.26     -0.92
    7   16   19      0.77      0.96
    8   16   19     -1.50     -0.15
    9   16   19      1.37     -1.37
   10   16   19      0.13     -0.97
   11   16   19     -0.47     -0.39
   12   16   19     -1.47     -0.09
   13   16   19     -0.89     -0.41
   14   16   19      2.29      0.89
   15   16   19      0.36      0.84
   16   16   19     -0.15      0.11
   17   16   19      0.08     -0.40
   16    0   20     -1.88      1.75
   17    0   20     -1.18     -6.74
   18    0   20      3.37     -0.71
   19    0   20      0.74     -1.92
   20    0   20      1.84     -0.54
   21    0   20     -1.11      1.09
   22    0   20      1.72      0.03
   23    0   20      1.21      3.68
   24    0   20     -6.70      0.98
   25    0   20     -0.77     -7.39
   26    0   20     -3.12     -0.83
   27    0   20      0.46      3.91
   28    0   20      7.37      0.27
   29    0   20      0.15      0.02
   30    0   20     -2.68      0.11
   31    0   20     -0.29     -1.26
   32    0   20     -0.59     -0.02
   33    0   20      0.06      1.68
   16    1   20     -1.79     -5.03
   17    1   20      1.63      0.07
   18    1   20     -5.35      4.34
   19    1   20     -2.84     -2.23
   20    1   20     -0.90     -2.20
   21    1   20      0.93     -0.06
   22    1   20      3.92      0.63
   23    1   20     -1.60     -2.51
   24    1   20     -0.12     -1.85
   25    1   20     -0.20      4.34
   26    1   20      1.87      1.32
   27    1   20      2.00     -0.50
   28    1   20      0.78      0.77
   29    1   20     -0.43      1.16
   30    1   20     -2.38      0.52
   31    1   20      0.36     -0.46
   32    1   20      0.43     -1.02
   33    1   20     -0.46     -0.70
   16    2   20     -1.83     -1.05
   17    2   20     -2.25      4.85
   18    2   20     -2.82     -2.18
   19    2   20      4.36     -3.54
   20    2   20      5.07      5.36
   21    2   20     -2.52      0.00
   22    2   20     -3.09     -2.67
   23    2   20     -2.90      3.82
   24    2   20      1.74      0.49
   25    2   20      2.09     -0.20
   26    2   20      0.53      0.28
   27    2   20      1.20      0.91
   28    2   20      1.91     -0.76
   29    2   20     -0.74     -2.21
   30    2   20     -2.36     -0.40
   31    2   20     -1.21     -0.32
   32    2   20     -0.73      1.45
   33    2   20      1.52      0.46
   15    3   20     -0.19     -0.34
   16    3   20     -1.18      2.53
   17    3   20     -4.53      3.56
   18    3   20      3.25      0.43
   19    3   20      3.40     -6.74
   20    3   20      0.29      1.73
   21    3   20      4.33      6.85
   22    3   20      1.82     -4.03
   23    3   20      1.00     -0.01
   24    3   20     -6.20      2.92
   25    3   20     -4.25      0.10
   26    3   20      4.19     -2.36
   27    3   20      1.60     -1.82
   28    3   20     -0.49      1.68
   29    3   20     -2.69     -2.12
   30    3   20     -1.70     -0.93
   31    3   20      2.97      1.34
   32    3   20      1.10      0.52
   33    3   20     -1.37     -0.24
   14    4   20     -0.75    -10.65
   15    4   20      7.67      1.14
   16    4   20      1.86      8.84
   17    4   20     -0.57      3.35
   18    4   20     -2.77     -1.58
   19    4   20      4.27      7.62
   20    4   20      4.96     -0.93
   21    4   20     -7.32     -8.47
   22    4   20     -4.51      0.00
   23    4   20      3.15     -2.43
   24    4   20     -0.17      2.86
   25    4   20      1.78      2.18
   26    4   20      0.95     -2.49
   27    4   20     -2.24     -0.67
   28    4   20     -0.76     -1.92
   29    4   20      0.82      1.45
   30    4   20      0.39      1.14
   31    4   20     -1.13     -0.09
   32    4   20      1.07      1.75
   33    4   20      0.87     -0.30
   13    5   20      7.06      1.66
   14    5   20     -3.88      1.09
   15    5   20      2.29      4.26
   16    5   20      0.47     -0.84
   17    5   20     -0.79     -2.82
   18    5   20      2.32     -1.18
   19    5   20     -0.46     -1.16
   20    5   20      1.17      2.99
   21    5   20     -6.09     -4.59
   22    5   20     -2.39     -2.34
   23    5   20      3.21      2.22
   24    5   20     -2.34      1.00
   25    5   20      0.75     -1.20
   26    5   20      3.67      0.45
   27    5   20      0.13      3.92
   28    5   20     -1.43     -1.96
   29    5   20     -0.94     -0.10
   30    5   20      0.69      1.00
   31    5   20      0.60     -0.15
   32    5   20     -0.49     -0.41
   33    5   20     -0.38     -0.41
   11    6   20      0.24      5.09
   12    6   20     -0.10      0.71
   13    6   20     -2.51     -6.52
   14    6   20      5.92     -0.29
   15    6   20      1.89      3.92
   16    6   20     -0.95      4.56
   17    6   20     -1.27     -0.80
   18    6   20     -6.42     -1.41
   19    6   20     -0.09     -2.98
   20    6   20      2.17     -4.09
   21    6   20     -1.29      4.56
   22    6   20     -1.34     -0.77
   23    6   20      2.00     -1.11
   24    6   20      3.57      1.86
   25    6   20     -1.61      0.03
   26    6   20     -0.28      3.10
   27    6   20      1.70     -1.07
   28    6   20      0.78     -0.94
   29    6   20     -0.52      1.77
   30    6   20     -2.12     -0.40
   31    6   20      0.23     -1.09
   32    6   20      0.39     -0.43
    9    7   20     -0.98     -5.01
   10    7   20     -2.94      2.57
   11    7   20      2.38      5.02
   12    7   20      7.30      3.20
   13    7   20     -6.27     -5.76
   14    7   20     -1.86     -4.96
   15    7   20     -0.12      1.48
   16    7   20     -0.79      2.65
   17    7   20      2.70     -0.27
   18    7   20     -4.31     -4.30
   19    7   20     -1.39      3.74
   20    7   20      2.84      0.79
   21    7   20      3.84     -3.05
   22    7   20      1.96      1.21
   23    7   20     -2.13      4.31
   24    7   20     -0.44      1.77
   25    7   20     -1.02     -2.79
   26    7   20     -1.79      0.66
   27    7   20      2.36     -0.30
   28    7   20      0.97      0.08
   29    7   20     -0.86     -1.27
   30    7   20      0.62     -1.91
   31    7   20     -1.05      0.13
   32    7   20     -0.57      0.06
    4    8   20      1.84      2.26
    5    8   20     -7.11     -1.13
    6    8   20      3.72     -2.15
    7    8   20      4.29     -1.11
    8    8   20     -0.69     -2.39
    9    8   20     -7.61     -1.10
   10    8   20     -3.66     -0.64
   11    8   20      9.29     -0.99
   12    8   20     -1.11      3.21
   13    8   20      0.20      1.01
   14    8   20      1.83     -2.93
   15    8   20     -3.39      5.23
   16    8   20     -0.33      3.32
   17    8   20     -5.42     -6.22
   18    8   20      2.22     -0.84
   19    8   20      5.29      1.83
   20    8   20     -0.59     -0.28
   21    8   20      0.25     -1.39
   22    8   20      1.23      2.28
   23    8   20      1.22      2.78
   24    8   20     -2.61     -2.88
   25    8   20      0.21      0.13
   26    8   20     -0.30      0.59
   27    8   20     -0.62     -1.64
   28    8   20      1.04     -1.65
   29    8   20     -1.95      0.56
   30    8   20      0.27      1.51
   31    8   20     -0.10     -0.55
    0    9   20     -0.33      4.49
    1    9   20      4.21      1.40
    2    9   20     -0.87     -5.01
    3    9   20     -4.87      3.02
    4    9   20     -1.89      2.48
    5    9   20     -4.00     -6.77
    6    9   20     -0.59      2.55
    7    9   20      5.88     -0.56
    8    9   20      3.31     -1.40
    9    9   20     -1.94      7.97
   10    9   20     -1.43     -2.24
   11    9   20      0.05     -2.22
   12    9   20     -2.85      1.33
   13    9   20      2.13     -2.10
   14    9   20      1.70     -0.94
   15    9   20     -1.56     -0.56
   16    9   20      2.83      0.86
   17    9   20     -0.14     -1.36
   18    9   20     -1.51      2.24
   19    9   20      0.48      3.42
   20    9   20      1.54      0.04
   21    9   20      0.24     -0.18
   22    9   20     -1.68     -1.62
   23    9   20     -0.56     -1.43
   24    9   20     -1.48     -0.48
   25    9   20     -1.96      0.65
   26    9   20      2.97     -1.55
   27    9   20      1.62     -0.09
   28    9   20     -2.57      0.87
   29    9   20      0.61     -0.79
   30    9   20      0.46      0.53
    0   10   20      1.86      0.13
    1   10   20     -1.14      0.08
    2   10   20     -0.89      5.10
    3   10   20     -1.96      0.89
    4   10   20     -1.00     -1.84
    5   10   20      1.99      0.29
    6   10   20     -2.54      0.42
    7   10   20     -1.49     -1.70
    8   10   20      3.61     -0.65
    9   10   20     -1.40     -2.89
   10   10   20      2.83     -1.25
   11   10   20      1.81      4.94
   12   10   20     -0.03      0.34
   13   10   20     -0.09     -1.15
   14   10   20     -4.28      3.36
   15   10   20      1.45      1.20
   16   10   20     -1.06     -3.38
   17   10   20      1.11     -1.73
   18   10   20      1.90      0.61
   19   10   20     -1.46     -0.46
   20   10   20      0.68     -0.79
   21   10   20     -1.31      0.83
   22   10   20      1.94      0.15
   23   10   20     -0.85     -0.51
   24   10   20     -0.62      1.89
   25   10   20      0.98      0.87
   26   10   20     -2.88     -1.01
   27   10   20     -0.01     -0.79
   28   10   20      0.57     -0.50
    0   11   20     -0.42     -1.15
    1   11   20      1.56     -2.33
    2   11   20     -2.68      1.58
    3   11   20     -1.72     -0.03
    4   11   20     -1.07     -3.09
    5   11   20      2.40      1.99
    6   11   20      7.27      1.34
    7   11   20     -2.42     -2.34
    8   11   20     -0.52      3.43
    9   11   20     -1.27      1.06
   10   11   20     -2.64     -3.86
   11   11   20      1.01     -0.54
   12   11   20     -2.46      1.59
   13   11   20      0.80     -1.32
   14   11   20      1.61     -1.29
   15   11   20      1.13      3.35
   16   11   20      0.51      1.20
   17   11   20     -1.71      0.53
   18   11   20      0.11      0.03
   19   11   20     -0.57     -2.04
   20   11   20     -2.24     -0.20
   21   11   20      0.76     -1.27
   22   11   20      1.20     -1.30
   23   11   20      0.06      0.51
   24   11   20      0.21      0.99
   25   11   20      1.01      0.06
   26   11   20      0.38      0.62
   27   11   20     -1.32      1.31
    0   12   20     -1.29      0.17
    1   12   20     -2.87      4.29
    2   12   20     -0.70     -4.26
    3   12   20      0.02     -3.49
    4   12   20      0.15      2.48
    5   12   20      0.10     -1.61
    6   12   20      1.39     -2.57
    7   12   20      3.12     -0.74
    8   12   20      1.13     -1.06
    9   12   20      0.33      0.43
   10   12   20      0.12      3.40
   11   12   20     -2.75      3.43
   12   12   20     -2.70      1.54
   13   12   20     -1.29     -0.80
   14   12   20      2.23     -2.98
   15   12   20     -0.44     -1.77
   16   12   20     -0.40     -2.33
   17   12   20      3.02     -0.20
   18   12   20     -0.54      4.16
   19   12   20     -0.39      1.06
   20   12   20     -0.20      0.79
   21   12   20      0.27     -0.09
   22   12   20     -0.88     -1.69
   23   12   20     -1.42     -0.88
   24   12   20      1.06     -0.21
   25   12   20      0.22      0.88
    0   13   20      0.21      0.47
    1   13   20     -2.11      2.29
    2   13   20     -2.83     -2.10
    3   13   20      0.66     -2.08
    4   13   20     -1.44      3.50
    5   13   20      5.04      1.73
    6   13   20     -1.30     -1.81
    7   13   20     -3.01      0.62
    8   13   20      0.70     -0.19
    9   13   20     -3.03     -2.06
   10   13   20      1.74      1.42
   11   13   20      2.42      2.09
   12   13   20      1.32     -1.34
   13   13   20     -0.74     -0.82
   14   13   20     -1.05      0.38
   15   13   20      1.40     -0.71
   16   13   20     -1.74      0.93
   17   13   20     -1.28      0.20
   18   13   20      2.54     -1.60
   19   13   20      0.21      0.32
   20   13   20     -0.50     -0.11
   21   13   20      0.03     -0.66
   22   13   20     -0.28      1.19
   23   13   20      0.66      0.84
    0   14   20      0.77     -0.62
    1   14   20      1.21     -2.14
    2   14   20     -0.03     -2.58
    3   14   20      2.89      1.77
    4   14   20      1.37     -1.47
    5   14   20      1.90     -2.32
    6   14   20     -2.29      4.37
    7   14   20     -1.60      3.09
    8   14   20     -0.66     -0.49
    9   14   20     -2.03      1.16
   10   14   20      0.66      0.04
   11   14   20     -0.89     -2.21
   12   14   20      0.73      0.03
   13   14   20      1.75     -0.12
   14   14   20      0.26     -0.34
   15   14   20     -0.16     -0.69
   16   14   20     -0.97     -1.01
   17   14   20     -0.51      2.33
   18   14   20      0.45     -0.92
   19   14   20      1.06     -0.86
   20   14   20      0.82      0.89
   21   14   20     -0.66     -0.03
    0   15   20     -0.03      2.41
    1   15   20     -0.94     -2.00
    2   15   20      2.28     -2.07
    3   15   20     -1.15      0.85
    4   15   20      2.76      0.98
    5   15   20      0.98      2.21
    6   15   20     -2.42      0.08
    7   15   20      2.27     -2.43
    8   15   20     -1.94      0.08
    9   15   20     -0.60      0.33
   10   15   20      1.96     -0.59
   11   15   20     -0.49     -0.44
   12   15   20     -0.43      1.21
   13   15   20     -1.16      0.14
   14   15   20      0.23     -1.43
   15   15   20      1.59      1.18
   16   15   20     -0.26      0.94
   17   15   20     -0.28     -1.21
   18   15   20     -0.14     -0.85
    0   16   20      2.01     -0.34
    1   16   20     -0.47      1.67
    2   16   20     -1.18      2.76
    3   16   20     -1.41     -1.93
    4   16   20      2.54     -1.59
    5   16   20     -0.97      1.16
    6   16   20     -2.74      1.09
    7   16   20      0.33      0.13
    8   16   20      0.16     -1.07
    9   16   20      1.67     -0.81
   10   16   20     -1.08     -0.59
   11   16   20      0.13     -0.14
   12   16   20      0.86      0.26
   13   16   20     -0.27     -0.40
   14   16   20      0.45     -0.23
   15   16   20     -0.69     -0.31
   14    0   21     -7.93      0.31
   15    0   21     -1.14     -7.41
   16    0   21      1.97     -0.60
   17    0   21      1.13      3.87
   18    0   21     -0.72      0.64
   19    0   21     -0.99      1.94
   20    0   21      9.18     -0.29
   21    0   21      0.43     -0.22
   22    0   21     -7.22      0.29
   23    0   21     -0.07      5.27
   24    0   21     -1.08     -0.08
   25    0   21     -0.37     -6.71
   26    0   21     -0.89     -0.16
   27    0   21      0.49      2.13
   28    0   21     -1.33     -0.07
   29    0   21     -0.04     -2.11
   30    0   21      3.55     -0.04
   31    0   21     -0.11      3.27
   32    0   21     -0.72      0.27
   33    0   21      0.20     -1.82
   13    1   21     -0.31      0.85
   14    1   21      3.57     -1.42
   15    1   21      2.94      4.18
   16    1   21     -4.05      6.58
   17    1   21      0.39     -4.64
   18    1   21     -0.81     -3.27
   19    1   21     -2.09     -1.47
   20    1   21     -3.91     -2.35
   21    1   21      0.34      0.56
   22    1   21      4.12     -1.21
   23    1   21      0.92      1.50
   24    1   21     -1.26      4.71
   25    1   21     -1.83     -0.38
   26    1   21      1.23     -4.06
   27    1   21      0.00     -0.13
   28    1   21      0.32      3.33
   29    1   21      1.38     -0.64
   30    1   21      1.50     -1.39
   31    1   21      0.33      0.50
   32    1   21     -1.02      0.07
   33    1   21     -0.94      0.37
   13    2   21     -3.15     -1.56
   14    2   21     -0.96      0.35
   15    2   21      3.22      4.44
   16    2   21      0.30      6.69
   17    2   21      5.26     -2.07
   18    2   21      2.58      0.71
   19    2   21     -5.01      0.57
   20    2   21      0.65     -1.81
   21    2   21     -0.08     -1.33
   22    2   21     -3.97     -1.92
   23    2   21     -2.49     -1.53
   24    2   21      3.66      2.00
   25    2   21      1.73     -0.13
   26    2   21      1.14     -1.02
   27    2   21     -0.87      1.15
   28    2   21     -2.58     -0.57
   29    2   21      1.83      0.66
   30    2   21      1.14      1.11
   31    2   21      0.77     -0.21
   32    2   21     -1.02     -0.38
   33    2   21     -1.34      0.40
   12    3   21     -4.36      2.53
   13    3   21     -2.94     -3.48
   14    3   21      2.97     -5.32
   15    3   21     -1.44      3.20
   16    3   21      1.68      1.33
   17    3   21      1.39     -5.84
   18    3   21      3.12      1.76
   19    3   21      1.73      1.67
   20    3   21     -1.16     -0.86
   21    3   21     -1.79      0.58
   22    3   21     -2.34     -0.60
   23    3   21      0.23      2.51
   24    3   21      0.41      1.28
   25    3   21      2.88     -1.85
   26    3   21      1.05     -1.84
   27    3   21     -1.34      2.45
   28    3   21     -0.96      1.44
   29    3   21      1.06     -2.27
   30    3   21     -0.19     -1.07
   31    3   21     -3.28     -0.13
   32    3   21     -1.00      0.61
   33    3   21      1.16     -0.18
   11    4   21     -1.27     -2.61
   12    4   21     -0.04      7.12
   13    4   21     -1.18      4.84
   14    4   21      4.38      0.32
   15    4   21      2.12     -0.73
   16    4   21     -2.62     -3.75
   17    4   21      2.14      2.35
   18    4   21     -0.88     -1.23
   19    4   21     -4.08     -1.00
   20    4   21     -2.16     -0.35
   21    4   21     -0.49     -0.94
   22    4   21     -0.29     -0.03
   23    4   21      3.02     -1.11
   24    4   21      0.03     -0.36
   25    4   21     -2.08      2.98
   26    4   21      1.71      2.26
   27    4   21      1.38      0.00
   28    4   21      0.20     -1.00
   29    4   21     -0.74     -1.97
   30    4   21      0.63      3.25
   31    4   21      0.66     -0.65
   32    4   21     -1.95     -3.15
    9    5   21      3.18     -6.72
   10    5   21      2.17     -3.89
   11    5   21     -0.06      3.92
   12    5   21      2.63     -2.39
   13    5   21      3.07     -0.12
   14    5   21     -5.72     -1.18
   15    5   21      0.85     -0.71
   16    5   21      2.74      1.68
   17    5   21     -1.70      0.20
   18    5   21     -2.03      1.98
   19    5   21     -1.58      1.70
   20    5   21     -1.79     -1.19
   21    5   21     -1.03     -1.33
   22    5   21      2.83     -0.10
   23    5   21      1.32     -1.01
   24    5   21      0.59      2.33
   25    5   21     -0.58     -0.01
   26    5   21     -0.18     -2.71
   27    5   21     -1.07      0.25
   28    5   21     -0.64      1.81
   29    5   21      1.17      0.33
   30    5   21     -1.53     -1.73
   31    5   21      0.51      0.90
   32    5   21      2.15      0.57
    6    6   21      1.09     -2.65
    7    6   21     -1.35     -3.69
    8    6   21     -3.46     -1.69
    9    6   21     -2.84      6.86
   10    6   21      3.01     -1.34
   11    6   21      6.61     -1.37
   12    6   21      0.88      1.58
   13    6   21     -4.82     -0.27
   14    6   21     -3.67      0.43
   15    6   21     -0.26      0.34
   16    6   21      0.00      2.66
   17    6   21      0.58     -2.99
   18    6   21      1.15     -2.24
   19    6   21     -1.39      1.53
   20    6   21     -2.44     -0.78
   21    6   21      0.78     -2.51
   22    6   21      4.01      3.04
   23    6   21      1.54      2.32
   24    6   21     -1.09      0.06
   25    6   21      1.72      1.98
   26    6   21      2.28     -2.51
   27    6   21     -2.82     -0.43
   28    6   21     -1.96     -0.73
   29    6   21      0.61     -1.30
   30    6   21      0.02      1.17
   31    6   21     -1.64     -0.76
    0    7   21      0.29      5.62
    1    7   21     -0.97     -5.20
    2    7   21      0.90     -2.27
    3    7   21      0.29      4.36
    4    7   21      3.05      1.78
    5    7   21      0.75     -0.18
    6    7   21     -1.78     -5.83
    7    7   21      2.05     -0.26
    8    7   21     -2.10      1.17
    9    7   21     -1.62     -3.29
   10    7   21      1.40      1.97
   11    7   21     -0.40     -0.55
   12    7   21     -0.88      1.02
   13    7   21     -1.43      4.01
   14    7   21      2.42     -0.93
   15    7   21     -0.97      0.63
   16    7   21     -2.64      3.34
   17    7   21     -0.29     -2.33
   18    7   21     -0.16     -3.63
   19    7   21      0.69     -0.64
   20    7   21      2.01     -1.98
   21    7   21      3.54      1.20
   22    7   21     -0.02      2.48
   23    7   21     -0.23      0.20
   24    7   21     -0.91      0.01
   25    7   21     -1.02      0.23
   26    7   21     -0.41      0.31
   27    7   21     -1.80     -0.08
   28    7   21     -0.06     -0.89
   29    7   21      1.60     -0.86
   30    7   21      1.45      0.22
    0    8   21      0.06     -0.12
    1    8   21      1.46      0.85
    2    8   21     -0.04     -2.05
    3    8   21     -1.62     -0.36
    4    8   21     -1.44      1.81
    5    8   21      0.13      0.84
    6    8   21      2.32     -0.23
    7    8   21     -2.26     -3.77
    8    8   21     -1.67      4.04
    9    8   21      5.21      3.19
   10    8   21      2.24     -3.97
   11    8   21     -1.04     -0.34
   12    8   21     -3.10      0.88
   13    8   21     -4.25      0.98
   14    8   21      0.63      1.58
   15    8   21      0.06     -0.69
   16    8   21      2.13     -2.87
   17    8   21      3.86     -1.14
   18    8   21     -0.36     -0.80
   19    8   21     -1.98     -0.11
   20    8   21      0.02      1.16
   21    8   21      1.13      2.39
   22    8   21      1.47      0.65
   23    8   21     -0.20     -0.03
   24    8   21     -2.21     -0.47
   25    8   21      0.62     -2.95
   26    8   21     -1.72      1.21
   27    8   21     -0.28      0.95
   28    8   21      0.55     -2.17
   29    8   21     -0.98      0.01
    0    9   21     -0.25     -8.26
    1    9   21      1.98     -3.43
    2    9   21      3.39      7.22
    3    9   21     -1.77     -2.98
    4    9   21     -2.75     -4.56
    5    9   21     -2.32     -0.19
    6    9   21      0.41      2.77
    7    9   21     -0.09      4.00
    8    9   21      1.23     -0.79
    9    9   21      1.80      2.22
   10    9   21      0.11     -0.15
   11    9   21      0.90     -3.42
   12    9   21     -3.65      0.63
   13    9   21      1.16     -0.70
   14    9   21      2.23     -0.15
   15    9   21     -0.73      0.62
   16    9   21      1.40     -3.73
   17    9   21      0.59     -1.24
   18    9   21      0.12      1.98
   19    9   21     -1.38      1.58
   20    9   21     -1.90      2.11
   21    9   21      0.48      0.11
   22    9   21      1.07      0.12
   23    9   21     -2.60      0.21
   24    9   21      0.46     -1.50
   25    9   21      1.41     -0.56
   26    9   21     -1.51      1.17
   27    9   21      0.36     -0.59
   28    9   21      0.66     -1.28
    0   10   21      4.58      0.10
    1   10   21     -0.92      1.05
    2   10   21     -1.60     -4.77
    3   10   21      3.58      2.70
    4   10   21     -1.68      1.89
    5   10   21     -1.08     -3.13
    6   10   21      1.22      0.21
    7   10   21     -2.81     -0.75
    8   10   21      2.26      1.01
    9   10   21      0.17     -2.62
   10   10   21     -3.36     -1.83
   11   10   21      0.77      2.27
   12   10   21     -1.94      1.38
   13   10   21      2.78      2.39
   14   10   21      5.07     -2.20
   15   10   21     -2.65     -2.40
   16   10   21     -4.17     -0.05
   17   10   21      1.69     -1.89
   18   10   21      1.72      2.62
   19   10   21      0.06      3.52
   20   10   21      0.75      0.45
   21   10   21     -0.42     -1.77
   22   10   21     -0.53     -0.30
   23   10   21     -1.93      0.59
   24   10   21      0.39     -1.51
   25   10   21     -0.40      0.30
   26   10   21     -0.29      0.60
   27   10   21      0.72     -0.24
    0   11   21     -0.61      0.92
    1   11   21      1.35     -0.24
    2   11   21     -5.18     -1.69
    3   11   21     -0.97      1.25
    4   11   21      2.00      1.14
    5   11   21      0.91      1.06
    6   11   21      0.79      2.56
    7   11   21      1.43     -2.30
    8   11   21      0.81     -5.91
    9   11   21     -3.40     -2.46
   10   11   21      2.16      3.39
   11   11   21     -1.76      1.02
   12   11   21     -1.62      0.75
   13   11   21      3.12      3.33
   14   11   21     -1.88      0.16
   15   11   21     -1.77     -2.37
   16   11   21      0.11     -1.62
   17   11   21      1.24      1.15
   18   11   21      0.63      2.19
   19   11   21     -0.84      0.88
   20   11   21     -0.35     -0.37
   21   11   21      0.64     -0.99
   22   11   21     -0.84     -1.21
   23   11   21      1.38     -0.65
   24   11   21      1.34     -0.85
   25   11   21     -1.30      0.49
    0   12   21      2.00      0.19
    1   12   21      0.28     -2.30
    2   12   21     -1.65     -0.68
    3   12   21     -1.50      1.00
    4   12   21      0.26     -1.81
    5   12   21      1.50     -0.93
    6   12   21     -1.47      0.21
    7   12   21      1.15      3.49
    8   12   21      1.56     -1.28
    9   12   21     -1.53     -0.34
   10   12   21      1.59      2.78
   11   12   21     -0.40     -1.33
   12   12   21     -0.28      1.71
   13   12   21     -0.43     -0.62
   14   12   21     -1.22     -2.17
   15   12   21      0.98     -0.59
   16   12   21      1.10     -0.78
   17   12   21      0.31      2.54
   18   12   21      1.05      0.92
   19   12   21     -0.64      1.03
   20   12   21     -3.32     -0.38
   21   12   21      0.27     -0.97
   22   12   21      0.20     -0.26
   23   12   21      0.07     -2.90
   24   12   21      0.93      0.18
    0   13   21      0.25     -0.36
    1   13   21     -1.07     -3.17
    2   13   21      0.97      0.03
    3   13   21      0.43     -0.94
    4   13   21     -1.52     -0.33
    5   13   21      0.68      1.06
    6   13   21      0.25     -0.27
    7   13   21      0.32     -0.90
    8   13   21     -0.81      0.02
    9   13   21      1.08      3.30
   10   13   21     -2.29      2.61
   11   13   21     -1.84      1.09
   12   13   21      2.95     -2.51
   13   13   21      0.94     -3.51
   14   13   21      0.68      0.95
   15   13   21     -1.04      0.01
   16   13   21     -0.38     -1.15
   17   13   21      1.64      0.93
   18   13   21      0.42      0.84
   19   13   21     -1.40     -1.22
   20   13   21     -0.25     -0.37
   21   13   21      0.54      0.28
   22   13   21      0.02     -0.04
    0   14   21      3.01      0.14
    1   14   21     -1.38      0.60
    2   14   21     -1.07      1.05
    3   14   21     -0.40     -2.04
    4   14   21      1.41     -0.94
    5   14   21      1.53      1.80
    6   14   21     -2.15      3.11
    7   14   21     -0.22     -1.04
    8   14   21     -0.65     -2.52
    9   14   21      0.49      0.73
   10   14   21      0.05     -0.35
   11   14   21     -1.25      0.70
   12   14   21      0.59      0.49
   13   14   21      1.28     -0.30
   14   14   21      0.43     -1.01
   15   14   21     -1.03     -1.62
   16   14   21     -0.49      2.44
   17   14   21      0.10      1.56
   18   14   21     -0.05     -1.19
   19   14   21     -0.23     -1.51
    0   15   21      0.02     -1.14
    1   15   21      2.20      3.24
    2   15   21     -0.54     -0.50
    3   15   21     -3.52     -0.56
    4   15   21      0.28      1.13
    5   15   21      2.29      0.50
    6   15   21      1.18      0.62
    7   15   21     -1.10      0.37
    8   15   21     -0.72      0.40
    9   15   21      0.13     -0.81
   10   15   21      0.58     -0.48
   11   15   21      0.39     -1.47
   12   15   21     -0.50     -1.87
   13   15   21      0.49      0.24
   14   15   21     -0.37      2.08
   15   15   21     -0.40      0.86
   16   15   21     -0.08     -1.37
    0   16   21     -1.33      0.27
    1   16   21     -2.31      0.39
    2   16   21      0.33     -0.05
    3   16   21     -1.43     -0.24
    4   16   21     -0.02      0.41
    5   16   21     -0.01      1.16
    6   16   21      0.70     -0.24
    7   16   21      0.64     -1.76
    8   16   21      0.17      0.28
    9   16   21      0.64      1.24
   10   16   21     -0.73      0.17
   11   16   21     -0.42     -1.53
   12   16   21      0.47     -0.37
    9    0   22     -0.91     -0.11
   10    0   22     -1.48     -0.16
   11    0   22      0.94      0.16
   12    0   22     -5.29      0.41
   13    0   22      0.00     -1.65
   14    0   22      2.57     -0.06
   15    0   22     -0.30     -1.22
   16    0   22      0.52      0.06
   17    0   22      0.10      0.56
   18    0   22      2.48     -0.35
   19    0   22      0.26     -0.47
   20    0   22     -2.02      0.15
   21    0   22     -0.35      3.71
   22    0   22     -1.94      0.28
   23    0   22     -0.42     -4.49
   24    0   22      2.75      0.04
   25    0   22      0.39      4.84
   26    0   22      2.42     -0.34
   27    0   22      0.03     -3.54
   28    0   22     -5.17      0.11
   29    0   22     -0.01      2.95
   30    0   22      2.28     -0.04
   31    0   22      0.17     -0.71
   32    0   22     -0.58     -0.12
    9    1   22      5.48     -2.10
   10    1   22     -4.66      2.83
   11    1   22     -4.24      0.23
   12    1   22     -0.73     -2.17
   13    1   22     -2.83      4.45
   14    1   22      1.58      2.05
   15    1   22      2.51     -1.56
   16    1   22      3.11      1.15
   17    1   22     -0.17      0.95
   18    1   22     -1.52     -3.84
   19    1   22      3.40      0.24
   20    1   22     -2.74      1.89
   21    1   22     -3.01     -1.86
   22    1   22     -0.04     -0.08
   23    1   22      0.15      0.29
   24    1   22      2.91      0.46
   25    1   22     -0.15     -1.84
   26    1   22     -2.02     -1.11
   27    1   22     -1.27      2.25
   28    1   22     -0.38      1.69
   29    1   22      2.68     -1.37
   30    1   22      1.03     -0.79
   31    1   22     -1.04      0.53
   32    1   22      0.17     -0.90
    9    2   22     -4.54      6.50
   10    2   22      5.68     -1.00
   11    2   22      1.16     -5.00
   12    2   22     -1.69     -0.93
   13    2   22      0.85      6.61
   14    2   22     -1.20      1.21
   15    2   22      3.39     -1.77
   16    2   22      0.37     -0.41
   17    2   22     -1.28     -0.06
   18    2   22      1.34     -0.91
   19    2   22     -0.99     -0.25
   20    2   22     -1.82      0.33
   21    2   22     -2.23     -0.84
   22    2   22      2.12      1.51
   23    2   22      3.75     -1.51
   24    2   22     -3.54      0.34
   25    2   22     -1.91      0.80
   26    2   22      3.43     -0.92
   27    2   22     -0.05      0.14
   28    2   22     -2.46     -0.11
   29    2   22     -0.17     -0.72
   30    2   22      0.84     -0.33
   31    2   22      0.54      0.74
   32    2   22      0.83     -0.35
    7    3   22     -5.93      1.46
    8    3   22     -4.33     -1.17
    9    3   22      1.11      0.52
   10    3   22     -5.39      3.27
   11    3   22     -3.55      3.68
   12    3   22      2.59     -0.97
   13    3   22      4.67     -3.41
   14    3   22      3.03     -3.21
   15    3   22     -0.76     -4.01
   16    3   22      1.27      1.10
   17    3   22     -1.03     -0.69
   18    3   22     -0.19      0.41
   19    3   22     -1.19      2.73
   20    3   22     -4.34      0.75
   21    3   22      1.03     -0.12
   22    3   22      1.82     -2.16
   23    3   22      0.68      1.16
   24    3   22     -0.34      2.12
   25    3   22     -0.89      0.88
   26    3   22      1.25     -0.33
   27    3   22      1.91     -0.37
   28    3   22      1.65     -0.70
   29    3   22     -1.90     -1.62
   30    3   22     -2.26      0.68
   31    3   22      0.46      0.14
    5    4   22     -0.55      4.95
    6    4   22      2.36      3.75
    7    4   22     -0.36      0.12
    8    4   22     -3.22     -1.65
    9    4   22     -0.04      0.79
   10    4   22      3.13      1.33
   11    4   22      5.41     -7.76
   12    4   22      1.08      1.02
   13    4   22     -5.12      5.20
   14    4   22     -2.35      1.49
   15    4   22     -0.87     -2.21
   16    4   22     -0.75     -2.55
   17    4   22     -0.36     -0.79
   18    4   22      1.05     -0.56
   19    4   22      1.42      2.78
   20    4   22     -1.64      0.51
   21    4   22      1.94      0.24
   22    4   22      1.63     -1.49
   23    4   22     -3.80      0.62
   24    4   22     -0.05      0.53
   25    4   22      2.31     -1.71
   26    4   22      0.90      0.85
   27    4   22     -1.08      1.90
   28    4   22     -0.34      0.84
   29    4   22      0.75     -2.33
   30    4   22     -0.80      0.01
   31    4   22      0.69      1.42
    0    5   22     -0.34      0.81
    1    5   22      0.98     -4.92
    2    5   22      6.88     -0.87
    3    5   22      2.08      5.79
    4    5   22      0.25      2.36
    5    5   22     -4.20     -4.99
    6    5   22     -5.84     -1.39
    7    5   22      0.23      3.82
    8    5   22     -0.95      2.07
    9    5   22     -4.20     -2.39
   10    5   22      7.11     -2.61
   11    5   22      6.81     -3.03
   12    5   22     -5.25     -2.31
   13    5   22      2.73      1.25
   14    5   22      4.10      0.67
   15    5   22     -4.40      2.50
   16    5   22     -6.60      2.94
   17    5   22     -0.15      0.96
   18    5   22      4.06     -1.12
   19    5   22     -2.80     -0.08
   20    5   22      0.12      0.84
   21    5   22      4.13     -0.02
   22    5   22      2.34      0.49
   23    5   22     -3.14     -1.59
   24    5   22     -2.64     -1.35
   25    5   22      3.52     -0.97
   26    5   22     -0.72     -0.89
   27    5   22      0.27      1.22
   28    5   22     -0.28      0.51
   29    5   22     -3.59     -0.31
   30    5   22      1.69      0.55
    0    6   22      4.71      0.88
    1    6   22      4.77     -1.30
    2    6   22     -3.83     -1.34
    3    6   22     -0.05      0.20
    4    6   22      3.86      3.56
    5    6   22     -0.98     -2.79
    6    6   22     -3.18     -0.26
    7    6   22      0.40      2.74
    8    6   22      2.85     -3.04
    9    6   22     -3.00      3.11
   10    6   22     -2.94     -2.50
   11    6   22      1.64     -1.47
   12    6   22     -2.03      3.06
   13    6   22      0.25     -0.57
   14    6   22      2.40     -0.31
   15    6   22     -1.31      0.85
   16    6   22      1.58      1.25
   17    6   22      2.25      0.92
   18    6   22      0.52     -0.97
   19    6   22     -0.67     -1.86
   20    6   22     -2.57      1.65
   21    6   22      1.98     -2.98
   22    6   22     -0.87     -0.63
   23    6   22     -1.84      2.06
   24    6   22      3.13      0.39
   25    6   22      1.41      2.26
   26    6   22     -1.33     -1.50
   27    6   22     -2.48      0.22
   28    6   22     -0.30     -0.29
   29    6   22      0.36     -3.18
   30    6   22      0.46      1.07
    0    7   22      0.14     -0.87
    1    7   22     -0.59     -2.31
    2    7   22      0.24      0.14
    3    7   22      0.18      4.63
    4    7   22     -3.73     -1.55
    5    7   22      1.04     -3.30
    6    7   22      0.98      4.58
    7    7   22     -1.35      3.23
    8    7   22      1.15     -3.52
    9    7   22      2.64     -3.83
   10    7   22      2.62     -2.27
   11    7   22     -5.68      0.18
   12    7   22     -1.88      1.04
   13    7   22      4.25      4.84
   14    7   22      0.77      5.13
   15    7   22     -1.44     -1.42
   16    7   22     -3.38     -2.60
   17    7   22      3.16     -4.41
   18    7   22      1.56     -0.20
   19    7   22     -2.83      2.02
   20    7   22      0.33     -1.24
   21    7   22      1.85      0.02
   22    7   22      1.45      0.01
   23    7   22     -1.72     -0.26
   24    7   22     -0.92     -0.22
   25    7   22     -0.55      0.34
   26    7   22      0.03      2.04
   27    7   22      0.27      0.42
   28    7   22     -1.05     -0.99
   29    7   22      0.52      0.75
    0    8   22      3.56     -0.14
    1    8   22     -2.08      0.72
    2    8   22     -1.68      1.46
    3    8   22     -3.14      1.30
    4    8   22     -1.96     -3.07
    5    8   22      5.30     -3.02
    6    8   22     -0.37      2.59
    7    8   22     -2.82      1.43
    8    8   22      2.85      2.01
    9    8   22      0.69     -2.30
   10    8   22     -0.17      0.23
   11    8   22     -0.26      3.14
   12    8   22      0.03     -1.68
   13    8   22      1.71     -2.61
   14    8   22     -0.63      0.44
   15    8   22     -0.57      1.24
   16    8   22      0.25     -1.95
   17    8   22     -0.05     -1.14
   18    8   22      0.86     -1.31
   19    8   22     -3.67      0.94
   20    8   22     -0.52      2.98
   21    8   22      1.75      2.16
   22    8   22     -0.71     -1.33
   23    8   22      1.08     -3.01
   24    8   22      0.81      1.20
   25    8   22      1.03      1.36
   26    8   22     -2.17     -1.73
   27    8   22     -1.83     -0.82
   28    8   22      0.83      1.45
    0    9   22     -0.14      3.16
    1    9   22      0.11     -4.83
    2    9   22     -2.45     -2.10
    3    9   22     -1.20      2.79
    4    9   22      1.68      2.99
    5    9   22      1.69     -2.88
    6    9   22      1.80     -3.89
    7    9   22     -2.63      2.76
    8    9   22     -2.84      1.14
    9    9   22      3.29     -5.15
   10    9   22      1.48      2.00
   11    9   22     -0.59      4.43
   12    9   22      0.10     -0.04
   13    9   22      0.30     -0.20
   14    9   22     -0.15     -2.59
   15    9   22     -3.64      0.32
   16    9   22      0.28     -0.90
   17    9   22      2.58     -0.88
   18    9   22     -0.57      2.11
   19    9   22     -0.26      0.11
   20    9   22      0.00     -1.25
   21    9   22      1.09      0.46
   22    9   22     -1.21      1.95
   23    9   22     -1.62     -0.13
   24    9   22      0.63     -1.05
   25    9   22      0.73      0.16
   26    9   22      1.06      0.85
   27    9   22     -0.33     -0.59
    0   10   22      0.85     -0.02
    1   10   22     -2.20      0.68
    2   10   22      0.17      0.08
    3   10   22     -1.68     -1.31
    4   10   22      0.52     -0.25
    5   10   22      3.91      0.91
    6   10   22     -0.21      1.50
    7   10   22     -1.04     -0.23
    8   10   22     -2.36     -3.20
    9   10   22     -1.54      0.71
   10   10   22      1.33      0.62
   11   10   22      0.60     -1.47
   12   10   22      1.58      0.02
   13   10   22     -1.54      1.23
   14   10   22     -2.25      0.71
   15   10   22      2.66     -1.55
   16   10   22     -0.33      0.15
   17   10   22     -0.90      0.96
   18   10   22     -0.76      0.53
   19   10   22      0.10     -0.66
   20   10   22      2.12      0.77
   21   10   22      1.20      2.31
   22   10   22      1.00     -1.05
   23   10   22     -1.93     -2.78
   24   10   22     -1.52     -0.18
   25   10   22     -0.13      1.22
    0   11   22      0.45     -1.88
    1   11   22     -0.05     -3.25
    2   11   22     -0.88      0.72
    3   11   22     -1.23      0.58
    4   11   22     -3.21      1.91
    5   11   22      2.23     -0.56
    6   11   22      1.41     -3.93
    7   11   22     -1.65      3.83
    8   11   22      2.71      0.05
    9   11   22      3.17     -3.87
   10   11   22     -1.60      2.78
   11   11   22     -4.02      0.78
   12   11   22      0.11      0.74
   13   11   22      0.14      0.28
   14   11   22     -1.06      0.69
   15   11   22      0.82     -0.98
   16   11   22      1.64     -3.01
   17   11   22      0.41      1.42
   18   11   22     -1.18      1.55
   19   11   22      0.20     -0.50
   20   11   22      0.28     -0.81
   21   11   22      0.47     -0.34
   22   11   22      0.07      1.44
   23   11   22     -0.89      0.39
   24   11   22      0.56     -1.12
    0   12   22     -1.59     -0.46
    1   12   22     -0.06      1.18
    2   12   22      0.95     -1.93
    3   12   22     -1.40     -1.11
    4   12   22     -0.04     -1.80
    5   12   22      0.33      0.91
    6   12   22     -1.56      3.12
    7   12   22      0.11     -2.62
    8   12   22      1.61      0.17
    9   12   22      1.57      1.87
   10   12   22     -0.85      0.07
   11   12   22     -1.09     -0.53
   12   12   22      0.87     -1.25
   13   12   22      0.04      0.90
   14   12   22      0.35      0.44
   15   12   22     -0.74     -0.76
   16   12   22      0.11      0.23
   17   12   22      0.10      0.80
   18   12   22     -0.46     -0.34
   19   12   22      1.18     -0.33
   20   12   22      0.94      0.06
   21   12   22     -1.15      0.08
   22   12   22     -2.32     -0.73
    0   13   22     -0.31      0.54
    1   13   22     -0.60     -0.17
    2   13   22      0.22     -1.29
    3   13   22     -1.56     -0.73
    4   13   22      3.86      0.14
    5   13   22      2.96     -0.80
    6   13   22     -2.60      1.55
    7   13   22     -0.60      0.45
    8   13   22     -0.10      0.32
    9   13   22     -0.13      2.46
   10   13   22     -1.80     -0.55
   11   13   22      0.20     -0.49
   12   13   22     -0.37     -0.07
   13   13   22      0.93     -0.36
   14   13   22      2.35     -1.72
   15   13   22     -1.87     -2.04
   16   13   22      1.09      0.30
   17   13   22     -0.27      1.15
   18   13   22     -1.16      1.37
   19   13   22      0.78      0.33
    0   14   22      0.16      0.18
    1   14   22      0.79     -1.21
    2   14   22     -0.27     -0.79
    3   14   22     -0.07     -0.42
    4   14   22      0.15      1.34
    5   14   22     -1.27      2.84
    6   14   22      1.00     -1.56
    7   14   22      2.04     -0.60
    8   14   22     -0.82     -0.93
    9   14   22     -1.99      0.29
   10   14   22     -0.48      1.83
   11   14   22      0.67     -1.60
   12   14   22      0.52     -0.35
   13   14   22      1.23      0.82
   14   14   22     -0.94     -0.11
   15   14   22     -0.97      0.10
   16   14   22      0.18     -0.28
   17   14   22     -0.08     -0.44
    0   15   22      0.03     -0.73
    1   15   22      0.15      0.75
    2   15   22     -0.49      0.83
    3   15   22      1.31      1.85
    4   15   22      0.37      0.37
    5   15   22     -2.10      1.08
    6   15   22     -0.94     -1.03
    7   15   22      0.29     -1.91
    8   15   22      3.00      0.59
    9   15   22     -0.33     -0.54
   10   15   22     -2.28     -1.03
   11   15   22     -0.50      0.02
   12   15   22      0.57      0.58
   13   15   22      2.37     -0.29
    0   16   22      1.18      0.11
    1   16   22      0.10     -0.66
    2   16   22     -0.33      0.97
    3   16   22     -1.26      1.23
    4   16   22     -1.32      0.69
    5   16   22      0.54     -0.54
    6   16   22      1.61      0.15
    7   16   22      0.46     -0.18
    0    0    0      0.00      0.00
# SQUEEZE RESULTS (Version =  11015)
# Note: Data are Listed for all Voids in the P1 Unit Cell
# i.e. Centre of Gravity, Solvent Accessible Volume,
# Recovered number of Electrons in the Void and
# Details about the Squeezed Material
loop_
  _platon_squeeze_void_nr
  _platon_squeeze_void_average_x
  _platon_squeeze_void_average_y
  _platon_squeeze_void_average_z
  _platon_squeeze_void_volume
  _platon_squeeze_void_count_electrons
  _platon_squeeze_void_content
   1  0.250 -0.010  0.500      2859       787 ' '
   2  0.750 -0.047  0.500      2856       787 ' '
# Missing Reflections Below sin(th)/lambda = 0.25
loop_
  _platon_missing_refln_index_h
  _platon_missing_refln_index_k
  _platon_missing_refln_index_l
  _platon_missing_refln_theta
    2    0    0     2.542
    4    0    0     5.090
    3    2    0     6.292
    5    2    0     8.106
    7    2    0    10.254
    0    4    0    10.030
    2    4    0    10.353
    3    4    0    10.745
    0    0    1     1.844
    0    1    1     3.104
    0    1    2     4.457
    0    0    4     7.396
    0    0    5     9.259
    0    1    6    11.416
_platon_squeeze_void_probe_radius                  1.20
_platon_squeeze_details
)
TITL a in P2(1)2(1)2
CELL   34.7570   17.7053   23.9558     90.00     90.00     90.00
SPGR P21212
# Solvent Accessible Volume =    5704.6
# Electrons Found in S.A.V. =    1562.9
# Note: Atoms in Void as Cxxx and Qxxx all others
C101 0.873 0.905 0.669 !       4.05 eA-3
C102 0.902 0.847 0.569 !       4.01 eA-3
C103 0.606 0.841 0.606 !       3.75 eA-3
C104 0.614 0.370 0.959 !       3.50 eA-3
C105 0.629 0.346 0.282 !       3.49 eA-3
C106 0.598 0.795 0.761 !       3.46 eA-3
C107 0.129 0.610 0.285 !       3.40 eA-3
C108 0.632 0.846 0.743 !       3.13 eA-3
C109 0.409 0.685 0.273 !       3.11 eA-3
C110 0.876 0.355 0.939 !       2.84 eA-3
C111 0.322 0.185 0.555 !       2.78 eA-3
C112 0.092 0.608 0.870 !       2.57 eA-3
C113 0.134 0.582 0.899 !       2.55 eA-3
C114 0.901 0.892 0.093 !       2.48 eA-3
C115 0.328 0.685 0.475 !       2.47 eA-3
C116 0.154 0.904 0.717 !       2.08 eA-3
C117 0.171 0.926 0.679 !       2.00 eA-3
C118 0.913 0.875 0.073 !       1.96 eA-3
C119 0.578 0.341 0.985 !       1.94 eA-3
C120 0.324 0.942 0.737 !       1.91 eA-3
C121 0.691 0.296 0.438 !       1.89 eA-3
C122 0.806 0.577 0.279 !       1.82 eA-3
C123 0.254 0.471 0.518 !       1.82 eA-3
C124 0.318 0.500 0.335 !       1.74 eA-3
Q125 0.329 0.559 0.974 !       1.66 eA-3
C126 0.745 0.084 0.334 !       1.65 eA-3
C127 0.747 0.659 0.453 !       1.64 eA-3
C128 0.256 0.499 0.578 !       1.63 eA-3
C129 0.256 0.408 0.588 !       1.62 eA-3
Q130 0.743 0.372 0.265 !       1.62 eA-3
C131 0.353 0.612 0.931 !       1.61 eA-3
C132 0.180 0.885 0.704 !       1.60 eA-3
Q133 0.744 0.341 0.265 !       1.60 eA-3
Q134 0.747 0.980 0.062 !       1.58 eA-3
Q135 0.247 0.522 0.938 !       1.56 eA-3
C136 0.806 0.767 0.584 !       1.54 eA-3
Q137 0.100 0.642 0.805 !       1.50 eA-3
C138 0.696 0.863 0.456 !       1.50 eA-3
C139 0.220 0.334 0.386 !       1.50 eA-3
C140 0.659 0.374 0.912 !       1.46 eA-3
C141 0.247 0.469 0.647 !       1.45 eA-3
C142 0.246 0.859 0.528 !       1.42 eA-3
C143 0.772 0.468 0.884 !       1.41 eA-3
C144 0.226 0.178 0.279 !       1.41 eA-3
C145 0.754 0.981 0.440 !       1.41 eA-3
C146 0.711 0.107 0.752 !       1.41 eA-3
C147 0.674 0.030 0.789 !       1.41 eA-3
C148 0.295 0.671 0.742 !       1.39 eA-3
C149 0.710 0.371 0.572 !       1.39 eA-3
C150 0.658 0.944 0.039 !       1.38 eA-3
C151 0.756 0.262 0.584 !       1.38 eA-3
C152 0.726 0.327 0.712 !       1.37 eA-3
Q153 0.279 0.558 0.945 !       1.36 eA-3
C154 0.295 0.972 0.675 !       1.36 eA-3
Q155 0.678 0.999 0.775 !       1.35 eA-3
C156 0.254 0.437 0.448 !       1.34 eA-3
C157 0.266 0.553 0.447 !       1.34 eA-3
C158 0.757 0.419 0.463 !       1.33 eA-3
C159 0.792 0.465 0.939 !       1.33 eA-3
C160 0.761 0.519 0.881 !       1.33 eA-3
C161 0.253 0.513 0.397 !       1.33 eA-3
C162 0.754 0.032 0.577 !       1.31 eA-3
C163 0.722 0.286 0.704 !       1.31 eA-3
C164 0.227 0.734 0.631 !       1.31 eA-3
C165 0.727 0.517 0.644 !       1.31 eA-3
C166 0.222 0.326 0.451 !       1.30 eA-3
C167 0.228 0.815 0.337 !       1.30 eA-3
C168 0.739 0.638 0.759 !       1.28 eA-3
Q169 0.088 0.647 0.353 !       1.27 eA-3
C170 0.859 0.809 0.574 !       1.26 eA-3
C171 0.251 0.800 0.589 !       1.25 eA-3
C172 0.260 0.332 0.701 !       1.24 eA-3
C173 0.701 0.862 0.271 !       1.24 eA-3
C174 0.262 0.995 0.353 !       1.24 eA-3
C175 0.750 0.094 0.275 !       1.24 eA-3
C176 0.246 0.406 0.385 !       1.22 eA-3
Q177 0.918 0.889 0.968 !       1.22 eA-3
C178 0.757 0.412 0.515 !       1.22 eA-3
C179 0.841 0.330 0.225 !       1.22 eA-3
C180 0.239 0.549 0.321 !       1.18 eA-3
C181 0.242 0.456 0.382 !       1.17 eA-3
C182 0.157 0.462 0.295 !       1.17 eA-3
C183 0.858 0.365 0.209 !       1.17 eA-3
C184 0.272 0.018 0.335 !       1.17 eA-3
C185 0.778 0.415 0.525 !       1.16 eA-3
C186 0.247 0.568 0.645 !       1.16 eA-3
C187 0.787 0.172 0.356 !       1.16 eA-3
C188 0.278 0.060 0.411 !       1.15 eA-3
C189 0.195 0.670 0.516 !       1.15 eA-3
C190 0.797 0.440 0.640 !       1.15 eA-3
C191 0.104 0.685 0.304 !       1.14 eA-3
Q192 0.266 0.582 0.283 !       1.14 eA-3
C193 0.769 0.923 0.710 !       1.13 eA-3
C194 0.219 0.698 0.270 !       1.13 eA-3
C195 0.726 0.729 0.695 !       1.13 eA-3
C196 0.252 0.556 0.710 !       1.10 eA-3
C197 0.759 0.621 0.522 !       1.10 eA-3
C198 0.703 0.824 0.503 !       1.10 eA-3
C199 0.148 0.018 0.741 !       1.09 eA-3
)
;
_shelx_shelxl_version_number     2014/7
_olex2_submission_special_instructions 'No special instructions were received'
loop_
_space_group_symop_operation_xyz
'x, y, z'
'-x, -y, z'
'-x+1/2, y+1/2, -z'
'x+1/2, -y+1/2, -z'
loop_
_atom_site_label
_atom_site_type_symbol
_atom_site_fract_x
_atom_site_fract_y
_atom_site_fract_z
_atom_site_U_iso_or_equiv
_atom_site_adp_type
_atom_site_occupancy
_atom_site_site_symmetry_order
_atom_site_calc_flag
_atom_site_refinement_flags_posn
_atom_site_refinement_flags_adp
_atom_site_refinement_flags_occupancy
_atom_site_disorder_assembly
_atom_site_disorder_group
Cd1 Cd 0.52771(3) 0.59288(6) 1.14075(4) 0.0347(3) Uani 1 1 d . U . . .
Cd2 Cd -0.02701(3) 0.59321(6) 1.10441(4) 0.0276(3) Uani 1 1 d . U . . .
Mn1 Mn 0.52413(10) 0.6601(2) 0.63708(12) 0.0445(10) Uani 0.763(5) 1 d . U . A 1
Mn2 Mn -0.02250(13) 0.6587(3) 0.60381(15) 0.0507(12) Uani 0.650(6) 1 d . U . B
1
O7 O 0.0369(2) 0.5391(5) 1.1025(4) 0.0296(17) Uani 1 1 d . U . . .
N3 N 0.5325(3) 0.5957(7) 1.0432(4) 0.0348(19) Uani 1 1 d . U . . .
C20 C 0.5179(6) 0.6516(10) 1.0181(6) 0.062(5) Uani 1 1 d . U . . .
H20 H 0.5050 0.6901 1.0385 0.074 Uiso 1 1 calc R . . . .
C19 C 0.5209(6) 0.6559(10) 0.9597(6) 0.061(4) Uani 1 1 d . U . . .
H19 H 0.5114 0.6994 0.9410 0.073 Uiso 1 1 calc R . . . .
C18 C 0.5368(4) 0.6013(9) 0.9302(6) 0.043(3) Uani 1 1 d . U . . .
C22 C 0.5499(5) 0.5397(10) 0.9582(6) 0.060(4) Uani 1 1 d . U . . .
H22 H 0.5594 0.4973 0.9382 0.072 Uiso 1 1 calc R . . . .
C21 C 0.5492(5) 0.5391(10) 1.0180(6) 0.057(4) Uani 1 1 d . U . . .
H21 H 0.5605 0.4989 1.0386 0.068 Uiso 1 1 calc R . . . .
O8 O 0.0309(3) 0.6633(5) 1.1000(4) 0.0330(17) Uani 1 1 d . U . . .
O9 O 0.4707(3) 0.6641(6) 1.1336(4) 0.0368(18) Uani 1 1 d . U . . .
C100 C 0.09416(16) 0.6124(5) 1.0948(4) 0.032(3) Uani 1 1 d . U . . .
C101 C 0.1167(2) 0.5478(4) 1.0989(4) 0.031(3) Uani 1 1 d G U . . .
H101 H 0.1049 0.4999 1.1036 0.037 Uiso 1 1 calc R . . . .
C96 C 0.1566(2) 0.5534(4) 1.0961(4) 0.038(3) Uani 1 1 d G U . . .
C97 C 0.17385(17) 0.6235(5) 1.0892(5) 0.047(3) Uani 1 1 d G U . . .
C98 C 0.1513(2) 0.6882(4) 1.0851(5) 0.061(3) Uani 1 1 d DG U . . .
C99 C 0.1115(2) 0.6826(4) 1.0879(4) 0.036(3) Uani 1 1 d G U . . .
H99 H 0.0961 0.7267 1.0851 0.043 Uiso 1 1 calc R . . . .
O2 O 0.5490(3) 0.5919(6) 0.5853(3) 0.0422(16) Uani 1 1 d . U . . .
C85 C 0.3837(2) 0.5498(4) 1.1295(4) 0.041(3) Uani 1 1 d . U . . .
H85 H 0.3948 0.5019 1.1371 0.050 Uiso 1 1 calc R . . . .
C86 C 0.40689(18) 0.6135(5) 1.1256(4) 0.045(3) Uani 1 1 d G U . . .
C87 C 0.3906(2) 0.6835(4) 1.1144(5) 0.047(3) Uani 1 1 d G U . . .
H87 H 0.4064 0.7271 1.1118 0.056 Uiso 1 1 calc R . . . .
C88 C 0.3510(3) 0.6898(4) 1.1070(5) 0.063(3) Uani 1 1 d DG U . . .
C89 C 0.32782(18) 0.6261(5) 1.1108(5) 0.052(3) Uani 1 1 d G U . . .
C84 C 0.3441(2) 0.5561(4) 1.1220(4) 0.044(3) Uani 1 1 d G U . . .
O3 O -0.0490(3) 0.6028(7) 0.5470(4) 0.0521(17) Uani 1 1 d . U . . .
C10 C 0.5396(3) 0.6028(6) 0.8678(2) 0.039(3) Uani 1 1 d . U . . .
C11 C 0.5709(2) 0.5680(5) 0.8423(3) 0.041(3) Uani 1 1 d G U . . .
H11 H 0.5897 0.5430 0.8644 0.049 Uiso 1 1 calc R . . . .
C12 C 0.5747(2) 0.5699(6) 0.7846(3) 0.047(3) Uani 1 1 d DG U . . .
C13 C 0.5472(3) 0.6066(6) 0.7523(2) 0.040(3) Uani 1 1 d G U . . .
C8 C 0.5159(2) 0.6413(5) 0.7777(3) 0.038(3) Uani 1 1 d G U . . .
C9 C 0.5121(2) 0.6394(5) 0.8355(3) 0.040(3) Uani 1 1 d G U . . .
H9 H 0.4907 0.6631 0.8528 0.048 Uiso 1 1 calc R . . . .
C59 C -0.0543(3) 0.5401(5) 0.9834(3) 0.047(4) Uani 1 1 d . U . . .
H59 H -0.0681 0.5030 1.0039 0.057 Uiso 1 1 calc R . . . .
C60 C -0.0560(3) 0.5406(5) 0.9254(3) 0.048(4) Uani 1 1 d G U . . .
H60 H -0.0709 0.5039 0.9063 0.058 Uiso 1 1 calc R . . . .
C56 C -0.0358(3) 0.5949(5) 0.8954(2) 0.042(3) Uani 1 1 d G U . . .
C57 C -0.0140(3) 0.6487(5) 0.9234(3) 0.046(4) Uani 1 1 d G U . . .
H57 H -0.0002 0.6858 0.9029 0.055 Uiso 1 1 calc R . . . .
C58 C -0.0123(3) 0.6482(5) 0.9813(3) 0.046(4) Uani 1 1 d G U . . .
H58 H 0.0026 0.6849 1.0005 0.055 Uiso 1 1 calc R . . . .
N8 N -0.0325(2) 0.5939(5) 1.0113(2) 0.0337(19) Uani 1 1 d G U . . .
O4 O -0.0505(3) 0.6012(7) 0.6598(4) 0.0544(18) Uani 1 1 d . U . . .
O1 O 0.5500(3) 0.6074(6) 0.6953(4) 0.0458(17) Uani 1 1 d . U . . .
N2 N 0.4764(4) 0.6521(7) 0.5877(4) 0.0448(18) Uani 1 1 d . U . . .
N6 N 0.0243(4) 0.6513(7) 0.6580(5) 0.0516(19) Uani 1 1 d . U . . .
O14 O -0.0956(3) 0.6293(6) 1.1145(5) 0.051(2) Uani 1 1 d . U . . .
N5 N 0.0214(4) 0.6680(7) 0.5500(5) 0.0486(18) Uani 1 1 d . U . . .
C38 C 0.5535(3) 0.5292(5) 0.3192(3) 0.040(3) Uani 1 1 d . U . . .
H38 H 0.5691 0.4928 0.3377 0.048 Uiso 1 1 calc R . . . .
C34 C 0.5315(3) 0.5796(5) 0.3501(2) 0.040(3) Uani 1 1 d G U . . .
C35 C 0.5087(3) 0.6328(5) 0.3231(3) 0.042(3) Uani 1 1 d G U . . .
H35 H 0.4937 0.6672 0.3442 0.050 Uiso 1 1 calc R . . . .
C36 C 0.5080(2) 0.6355(5) 0.2651(3) 0.042(3) Uani 1 1 d G U . . .
H36 H 0.4924 0.6718 0.2466 0.050 Uiso 1 1 calc R . . . .
N4 N 0.5300(2) 0.5851(5) 0.2342(2) 0.039(2) Uani 1 1 d G U . . .
C37 C 0.5527(3) 0.5319(5) 0.2612(3) 0.043(3) Uani 1 1 d G U . . .
H37 H 0.5678 0.4974 0.2401 0.052 Uiso 1 1 calc R . . . .
C48 C -0.0388(4) 0.5996(9) 0.8313(5) 0.043(3) Uani 1 1 d . U . . .
C49 C -0.0730(4) 0.5749(8) 0.8040(6) 0.040(3) Uani 1 1 d . U . . .
H49 H -0.0931 0.5551 0.8266 0.048 Uiso 1 1 calc R . . . .
C50 C -0.0791(4) 0.5779(9) 0.7467(6) 0.049(2) Uani 1 1 d D U . . .
C51 C -0.0473(5) 0.6001(10) 0.7153(6) 0.048(3) Uani 1 1 d . U . . .
C46 C -0.0128(5) 0.6223(9) 0.7424(6) 0.050(3) Uani 1 1 d . U . . .
C47 C -0.0100(5) 0.6210(10) 0.7995(6) 0.055(4) Uani 1 1 d . U . . .
H47 H 0.0135 0.6360 0.8165 0.066 Uiso 1 1 calc R . . . .
C26 C 0.5366(2) 0.5802(6) 0.4150(2) 0.041(3) Uani 1 1 d . U . . .
C27 C 0.5714(2) 0.5609(6) 0.4399(3) 0.039(3) Uani 1 1 d G U . . .
H27 H 0.5923 0.5444 0.4176 0.047 Uiso 1 1 calc R . . . .
C28 C 0.5755(2) 0.5658(6) 0.4975(3) 0.041(2) Uani 1 1 d DG U . . .
C29 C 0.5448(3) 0.5899(6) 0.5302(2) 0.037(3) Uani 1 1 d G U . . .
C24 C 0.5100(2) 0.6091(6) 0.5053(3) 0.040(3) Uani 1 1 d G U . . .
C25 C 0.5059(2) 0.6043(6) 0.4477(3) 0.038(3) Uani 1 1 d G U . . .
H25 H 0.4822 0.6175 0.4307 0.046 Uiso 1 1 calc R . . . .
N1 N 0.4823(4) 0.6827(7) 0.6935(5) 0.0450(18) Uani 1 1 d . U . . .
O12 O 0.5966(3) 0.6274(7) 1.1509(5) 0.056(2) Uani 1 1 d . U . . .
C14 C 0.6114(4) 0.5365(9) 0.7570(6) 0.056(2) Uani 1 1 d D U . . .
C62 C -0.0103(2) 0.6189(6) 0.4669(3) 0.042(3) Uani 1 1 d . U . . .
C67 C -0.0053(2) 0.6109(6) 0.4096(3) 0.044(3) Uani 1 1 d G U . . .
H67 H 0.0182 0.6258 0.3927 0.053 Uiso 1 1 calc R . . . .
C66 C -0.0348(3) 0.5811(6) 0.3771(2) 0.041(3) Uani 1 1 d G U . . .
C65 C -0.0692(2) 0.5593(5) 0.4018(3) 0.039(3) Uani 1 1 d G U . . .
H65 H -0.0893 0.5390 0.3796 0.046 Uiso 1 1 calc R . . . .
C64 C -0.0742(2) 0.5673(6) 0.4591(3) 0.048(2) Uani 1 1 d DG U . . .
C63 C -0.0448(3) 0.5971(6) 0.4916(2) 0.048(3) Uani 1 1 d G U . . .
C106 C 0.0528(4) 0.6069(8) 1.0993(5) 0.026(2) Uani 1 1 d . U . . .
C5 C 0.3751(5) 0.7338(10) 0.6128(6) 0.052(3) Uani 1 1 d . U . . .
H5A H 0.3571 0.7633 0.5893 0.063 Uiso 1 1 calc R . . . .
H5B H 0.3624 0.6854 0.6224 0.063 Uiso 1 1 calc R . . . .
C61 C 0.0216(5) 0.6537(9) 0.4977(6) 0.050(3) Uani 1 1 d . U . . .
H61 H 0.0440 0.6665 0.4772 0.060 Uiso 1 1 calc R . . . .
C30 C 0.6155(4) 0.5485(8) 0.5211(6) 0.047(2) Uani 1 1 d D U . . .
C53 C -0.1467(5) 0.5336(10) 0.7667(6) 0.060(3) Uani 1 1 d D U . . .
H53A H -0.1366 0.4903 0.7876 0.089 Uiso 1 1 calc GR . . . .
H53B H -0.1710 0.5195 0.7487 0.089 Uiso 1 1 calc GR . . . .
H53C H -0.1512 0.5757 0.7925 0.089 Uiso 1 1 calc GR . . . .
C41 C 0.0911(5) 0.7118(10) 0.6659(6) 0.055(3) Uani 1 1 d . U . . .
H41A H 0.0966 0.6842 0.7010 0.066 Uiso 1 1 calc R . . . .
H41B H 0.0805 0.7618 0.6759 0.066 Uiso 1 1 calc R . . . .
C76 C -0.0541(4) 0.5321(8) 0.2842(6) 0.038(3) Uani 1 1 d . U . . .
H76 H -0.0712 0.4977 0.3019 0.045 Uiso 1 1 calc R . . . .
C72 C -0.0307(4) 0.5778(8) 0.3146(5) 0.038(3) Uani 1 1 d . U . . .
C73 C -0.0053(5) 0.6232(9) 0.2880(6) 0.042(3) Uani 1 1 d . U . . .
H73 H 0.0123 0.6530 0.3090 0.051 Uiso 1 1 calc R . . . .
C74 C -0.0048(4) 0.6263(8) 0.2310(6) 0.036(3) Uani 1 1 d . U . . .
H74 H 0.0125 0.6595 0.2125 0.043 Uiso 1 1 calc R . . . .
N7 N -0.0281(3) 0.5838(6) 0.2018(4) 0.026(2) Uani 1 1 d . U . . .
C75 C -0.0523(4) 0.5376(8) 0.2258(6) 0.039(3) Uani 1 1 d . U . . .
H75 H -0.0688 0.5075 0.2035 0.047 Uiso 1 1 calc R . . . .
O11 O 0.5562(3) 0.7181(6) 1.1595(5) 0.057(2) Uani 1 1 d . U . . .
C52 C -0.1176(4) 0.5574(9) 0.7223(6) 0.056(2) Uani 1 1 d D U . . .
O6 O 0.2902(3) 0.6334(6) 1.1055(5) 0.062(2) Uani 1 1 d . U . . .
C43 C 0.1195(5) 0.7652(9) 0.5800(6) 0.049(3) Uani 1 1 d . U . . .
H43A H 0.1437 0.7718 0.5589 0.059 Uiso 1 1 calc R . . . .
H43B H 0.1095 0.8160 0.5894 0.059 Uiso 1 1 calc R . . . .
C6 C 0.4114(5) 0.7181(10) 0.5804(6) 0.052(3) Uani 1 1 d . U . . .
H6A H 0.4049 0.6895 0.5462 0.062 Uiso 1 1 calc R . . . .
H6B H 0.4231 0.7666 0.5688 0.062 Uiso 1 1 calc R . . . .
C17 C 0.6331(5) 0.5948(10) 0.7213(6) 0.057(3) Uani 1 1 d D U . . .
H17A H 0.6170 0.6098 0.6896 0.085 Uiso 1 1 calc GR . . . .
H17B H 0.6571 0.5725 0.7076 0.085 Uiso 1 1 calc GR . . . .
H17C H 0.6390 0.6393 0.7441 0.085 Uiso 1 1 calc GR . . . .
N58 N 0.2141(3) 0.4738(7) 1.0966(6) 0.057(2) Uani 1 1 d . U . . .
C23 C 0.4785(5) 0.6352(8) 0.5336(6) 0.041(3) Uani 1 1 d . U . . .
H23 H 0.4557 0.6421 0.5124 0.050 Uiso 1 1 calc R . . . .
O17 O 0.5460(4) 0.7423(8) 0.6257(5) 0.043(2) Uani 0.763(5) 1 d . U . A 1
C68 C -0.1141(4) 0.5498(9) 0.4865(6) 0.052(2) Uani 1 1 d D U . . .
C33 C 0.6456(4) 0.5279(10) 0.4773(6) 0.050(3) Uani 1 1 d D U . . .
H33A H 0.6357 0.4871 0.4537 0.076 Uiso 1 1 calc GR . . . .
H33B H 0.6692 0.5112 0.4959 0.076 Uiso 1 1 calc GR . . . .
H33C H 0.6511 0.5722 0.4542 0.076 Uiso 1 1 calc GR . . . .
C71 C -0.1447(5) 0.5288(10) 0.4418(6) 0.058(3) Uani 1 1 d D U . . .
H71A H -0.1452 0.5677 0.4127 0.086 Uiso 1 1 calc GR . . . .
H71B H -0.1701 0.5255 0.4595 0.086 Uiso 1 1 calc GR . . . .
H71C H -0.1382 0.4800 0.4251 0.086 Uiso 1 1 calc GR . . . .
O5 O 0.2116(3) 0.6309(6) 1.0875(5) 0.0562(19) Uani 1 1 d . U . . .
N76 N 0.2868(4) 0.4789(8) 1.1240(7) 0.059(2) Uani 1 1 d . U . . .
C94 C 0.4496(4) 0.6066(9) 1.1336(5) 0.034(2) Uani 1 1 d . U . . .
C15 C 0.6389(5) 0.5014(10) 0.8001(6) 0.063(3) Uani 1 1 d D U . . .
H15A H 0.6470 0.5402 0.8268 0.094 Uiso 1 1 calc GR . . . .
H15B H 0.6615 0.4809 0.7809 0.094 Uiso 1 1 calc GR . . . .
H15C H 0.6256 0.4607 0.8200 0.094 Uiso 1 1 calc GR . . . .
C45 C 0.0215(5) 0.6428(9) 0.7107(6) 0.054(3) Uani 1 1 d . U . . .
H45 H 0.0444 0.6506 0.7317 0.065 Uiso 1 1 calc R . . . .
C79 C 0.2912(5) 0.3347(10) 1.1299(10) 0.074(4) Uani 1 1 d . U . . .
H79A H 0.3015 0.3319 1.0914 0.088 Uiso 1 1 calc R . . . .
H79B H 0.3133 0.3381 1.1558 0.088 Uiso 1 1 calc R . . . .
C44 C 0.0902(5) 0.7242(10) 0.5431(6) 0.047(3) Uani 1 1 d . U . . .
H44A H 0.0842 0.7552 0.5099 0.056 Uiso 1 1 calc R . . . .
H44B H 0.1009 0.6754 0.5304 0.056 Uiso 1 1 calc R . . . .
C42 C 0.1278(5) 0.7222(10) 0.6338(6) 0.055(3) Uani 1 1 d . U . . .
H42A H 0.1391 0.6723 0.6249 0.066 Uiso 1 1 calc R . . . .
H42B H 0.1466 0.7507 0.6567 0.066 Uiso 1 1 calc R . . . .
C16 C 0.5992(5) 0.4699(9) 0.7204(6) 0.061(3) Uani 1 1 d D U . . .
H16A H 0.5837 0.4347 0.7425 0.091 Uiso 1 1 calc GR . . . .
H16B H 0.6222 0.4438 0.7065 0.091 Uiso 1 1 calc GR . . . .
H16C H 0.5841 0.4884 0.6888 0.091 Uiso 1 1 calc GR . . . .
C70 C -0.1308(5) 0.6158(9) 0.5194(6) 0.051(3) Uani 1 1 d D U . . .
H70A H -0.1145 0.6259 0.5520 0.076 Uiso 1 1 calc GR . . . .
H70B H -0.1568 0.6032 0.5319 0.076 Uiso 1 1 calc GR . . . .
H70C H -0.1316 0.6608 0.4957 0.076 Uiso 1 1 calc GR . . . .
C77 C 0.2328(4) 0.4021(10) 1.0963(9) 0.063(3) Uani 1 1 d . U . . .
H77 H 0.2434 0.3942 1.0580 0.076 Uiso 1 1 calc R . . . .
C82 C 0.2072(4) 0.3335(9) 1.1098(9) 0.068(4) Uani 1 1 d . U . . .
H82A H 0.1850 0.3318 1.0840 0.082 Uiso 1 1 calc R . . . .
H82B H 0.1974 0.3372 1.1485 0.082 Uiso 1 1 calc R . . . .
C4 C 0.3836(5) 0.7769(10) 0.6652(6) 0.052(3) Uani 1 1 d . U . . .
H4A H 0.3597 0.7810 0.6876 0.063 Uiso 1 1 calc R . . . .
H4B H 0.3918 0.8287 0.6552 0.063 Uiso 1 1 calc R . . . .
C1 C 0.4398(5) 0.6745(9) 0.6134(6) 0.046(2) Uani 1 1 d . U . . .
H1 H 0.4267 0.6274 0.6266 0.055 Uiso 1 1 calc R . . . .
O18 O -0.0425(4) 0.7417(9) 0.6051(6) 0.044(3) Uani 0.650(6) 1 d . U . B 1
C39 C 0.0545(5) 0.7109(10) 0.5760(6) 0.049(2) Uani 1 1 d . U . . .
H39 H 0.0443 0.7619 0.5861 0.058 Uiso 1 1 calc R . . . .
C3 C 0.4157(5) 0.7388(10) 0.7018(6) 0.051(3) Uani 1 1 d . U . . .
H3A H 0.4234 0.7733 0.7324 0.061 Uiso 1 1 calc R . . . .
H3B H 0.4058 0.6916 0.7185 0.061 Uiso 1 1 calc R . . . .
C69 C -0.1102(5) 0.4796(9) 0.5232(6) 0.060(3) Uani 1 1 d D U . . .
H69A H -0.1062 0.4351 0.4996 0.090 Uiso 1 1 calc GR . . . .
H69B H -0.1337 0.4730 0.5453 0.090 Uiso 1 1 calc GR . . . .
H69C H -0.0882 0.4857 0.5484 0.090 Uiso 1 1 calc GR . . . .
O16 O -0.0545(3) 0.7195(6) 1.1267(5) 0.058(3) Uani 1 1 d . U . . .
C7 C 0.4848(5) 0.6768(9) 0.7488(6) 0.045(3) Uani 1 1 d . U . . .
H7 H 0.4645 0.6975 0.7705 0.054 Uiso 1 1 calc R . . . .
C55 C -0.1113(5) 0.4896(10) 0.6838(6) 0.065(3) Uani 1 1 d D U . . .
H55A H -0.0948 0.5046 0.6525 0.098 Uiso 1 1 calc GR . . . .
H55B H -0.1361 0.4721 0.6695 0.098 Uiso 1 1 calc GR . . . .
H55C H -0.0989 0.4488 0.7047 0.098 Uiso 1 1 calc GR . . . .
C32 C 0.6120(5) 0.4808(9) 0.5623(6) 0.053(3) Uani 1 1 d D U . . .
H32A H 0.5923 0.4921 0.5904 0.080 Uiso 1 1 calc GR . . . .
H32B H 0.6368 0.4726 0.5809 0.080 Uiso 1 1 calc GR . . . .
H32C H 0.6047 0.4352 0.5417 0.080 Uiso 1 1 calc GR . . . .
C78 C 0.2662(4) 0.4048(10) 1.1358(9) 0.064(3) Uani 1 1 d . U . . .
H78 H 0.2560 0.4065 1.1748 0.077 Uiso 1 1 calc R . . . .
C2 C 0.4497(5) 0.7219(10) 0.6654(6) 0.047(2) Uani 1 1 d . U . . .
H2 H 0.4598 0.7714 0.6518 0.057 Uiso 1 1 calc R . . . .
C90 C 0.3334(4) 0.7676(9) 1.0934(8) 0.070(3) Uani 1 1 d D U . . .
C31 C 0.6318(5) 0.6180(8) 0.5535(6) 0.048(3) Uani 1 1 d D U . . .
H31A H 0.6356 0.6601 0.5275 0.073 Uiso 1 1 calc GR . . . .
H31B H 0.6565 0.6045 0.5705 0.073 Uiso 1 1 calc GR . . . .
H31C H 0.6136 0.6330 0.5827 0.073 Uiso 1 1 calc GR . . . .
C95 C 0.1777(4) 0.4832(9) 1.0974(7) 0.042(3) Uani 1 1 d . U . . .
H95 H 0.1626 0.4384 1.0991 0.050 Uiso 1 1 calc R . . . .
C83 C 0.3223(4) 0.4864(9) 1.1275(7) 0.051(3) Uani 1 1 d . U . . .
H83 H 0.3368 0.4418 1.1345 0.061 Uiso 1 1 calc R . . . .
O18A O 0.0000 0.5000 0.5987(15) 0.051(3) Uani 0.350(6) 2 d S TU P B 2
Mn2A Mn -0.0149(2) 0.5942(6) 0.6040(3) 0.0558(18) Uani 0.350(6) 1 d . U . B 2
N9 N 0.5895(4) 0.6954(9) 1.1642(6) 0.059(3) Uani 1 1 d . U . . .
N10 N -0.0891(4) 0.6948(9) 1.1301(7) 0.071(4) Uani 1 1 d . U . . .
C81 C 0.2326(5) 0.2591(10) 1.1029(10) 0.078(4) Uani 1 1 d . U . . .
H81A H 0.2172 0.2140 1.1130 0.094 Uiso 1 1 calc R . . . .
H81B H 0.2410 0.2537 1.0636 0.094 Uiso 1 1 calc R . . . .
O19 O 0.2367(5) 0.5693(11) 1.1900(10) 0.052(3) Uani 0.497(8) 1 d . U . C 1
C80 C 0.2688(5) 0.2650(10) 1.1422(10) 0.081(4) Uani 1 1 d . U . . .
H80A H 0.2603 0.2658 1.1816 0.097 Uiso 1 1 calc R . . . .
H80B H 0.2854 0.2202 1.1367 0.097 Uiso 1 1 calc R . . . .
C91 C 0.3108(5) 0.7664(10) 1.0387(8) 0.073(4) Uani 1 1 d D U . . .
H91A H 0.3287 0.7602 1.0074 0.109 Uiso 1 1 calc GR . . . .
H91B H 0.2967 0.8140 1.0345 0.109 Uiso 1 1 calc GR . . . .
H91C H 0.2926 0.7242 1.0392 0.109 Uiso 1 1 calc GR . . . .
C92 C 0.3639(5) 0.8305(10) 1.0894(9) 0.074(4) Uani 1 1 d D U . . .
H92A H 0.3805 0.8290 1.1225 0.111 Uiso 1 1 calc GR . . . .
H92B H 0.3511 0.8797 1.0874 0.111 Uiso 1 1 calc GR . . . .
H92C H 0.3796 0.8229 1.0559 0.111 Uiso 1 1 calc GR . . . .
O13 O 0.6163(3) 0.7363(8) 1.1839(6) 0.088(4) Uani 1 1 d . U . . .
C40 C 0.0620(5) 0.6687(10) 0.6325(6) 0.050(2) Uani 1 1 d . U . . .
H40 H 0.0740 0.6191 0.6228 0.060 Uiso 1 1 calc R . . . .
C93 C 0.3088(5) 0.7896(11) 1.1448(8) 0.075(4) Uani 1 1 d D U . . .
H93A H 0.2897 0.7501 1.1519 0.113 Uiso 1 1 calc GR . . . .
H93B H 0.2957 0.8376 1.1375 0.113 Uiso 1 1 calc GR . . . .
H93C H 0.3255 0.7949 1.1776 0.113 Uiso 1 1 calc GR . . . .
O15 O -0.1136(4) 0.7382(9) 1.1453(10) 0.149(8) Uani 1 1 d . U . . .
O17A O 0.5000 0.5000 0.655(2) 0.046(4) Uani 0.237(5) 2 d S TU P A 2
C102 C 0.1694(4) 0.7674(9) 1.0793(8) 0.074(3) Uani 1 1 d D U . . .
V1 V 0.24843(17) 0.5624(4) 1.1222(5) 0.0584(18) Uani 0.497(8) 1 d . U . C 1
O19A O 0.2620(5) 0.5421(11) 1.0179(10) 0.054(3) Uani 0.503(8) 1 d . U . C 2
V2 V 0.25269(17) 0.5601(4) 1.0796(5) 0.0579(17) Uani 0.503(8) 1 d . U . C 2
C104 C 0.1939(5) 0.7725(10) 1.0270(8) 0.079(4) Uani 1 1 d D U . . .
H10A H 0.2157 0.7377 1.0301 0.119 Uiso 1 1 calc GR . . . .
H10B H 0.2035 0.8243 1.0227 0.119 Uiso 1 1 calc GR . . . .
H10C H 0.1784 0.7589 0.9944 0.119 Uiso 1 1 calc GR . . . .
C103 C 0.1946(5) 0.7878(11) 1.1297(8) 0.079(4) Uani 1 1 d D U . . .
H10D H 0.1807 0.7760 1.1643 0.119 Uiso 1 1 calc GR . . . .
H10E H 0.2006 0.8419 1.1288 0.119 Uiso 1 1 calc GR . . . .
H10F H 0.2185 0.7586 1.1284 0.119 Uiso 1 1 calc GR . . . .
C105 C 0.1394(5) 0.8313(9) 1.0734(10) 0.080(4) Uani 1 1 d D U . . .
H10G H 0.1245 0.8236 1.0392 0.120 Uiso 1 1 calc GR . . . .
H10H H 0.1527 0.8801 1.0715 0.120 Uiso 1 1 calc GR . . . .
H10I H 0.1221 0.8307 1.1057 0.120 Uiso 1 1 calc GR . . . .
O10 O 0.4636(2) 0.5413(6) 1.1386(4) 0.0339(18) Uani 1 1 d . U . . .
C54 C -0.1343(5) 0.6246(9) 0.6898(6) 0.053(3) Uani 1 1 d D U . . .
H54A H -0.1381 0.6673 0.7152 0.080 Uiso 1 1 calc GR . . . .
H54B H -0.1591 0.6101 0.6734 0.080 Uiso 1 1 calc GR . . . .
H54C H -0.1165 0.6393 0.6601 0.080 Uiso 1 1 calc GR . . . .
Mn1A Mn 0.5167(3) 0.5954(8) 0.6474(4) 0.0481(19) Uani 0.237(5) 1 d . U . A 2
loop_
_atom_site_aniso_label
_atom_site_aniso_U_11
_atom_site_aniso_U_22
_atom_site_aniso_U_33
_atom_site_aniso_U_23
_atom_site_aniso_U_13
_atom_site_aniso_U_12
Cd1 0.0216(6) 0.0658(7) 0.0166(6) 0.0047(5) -0.0016(5) -0.0024(7)
Cd2 0.0209(5) 0.0487(6) 0.0133(5) -0.0005(5) 0.0010(4) 0.0025(6)
Mn1 0.0506(19) 0.063(2) 0.0197(15) 0.0041(13) -0.0005(13) -0.0047(17)
Mn2 0.059(2) 0.076(3) 0.0170(16) -0.0006(16) -0.0008(15) 0.014(2)
O7 0.022(3) 0.046(3) 0.020(4) -0.001(3) 0.001(2) 0.004(2)
N3 0.031(4) 0.056(4) 0.017(2) 0.006(2) 0.005(2) 0.003(3)
C20 0.094(11) 0.071(5) 0.020(3) 0.005(3) 0.002(3) 0.035(6)
C19 0.099(11) 0.065(5) 0.019(3) 0.004(3) 0.002(3) 0.028(6)
C18 0.057(7) 0.054(5) 0.019(2) 0.001(2) -0.001(2) 0.006(5)
C22 0.095(11) 0.067(5) 0.019(3) 0.006(2) 0.009(3) 0.028(6)
C21 0.079(10) 0.070(5) 0.020(3) 0.007(2) 0.007(3) 0.029(6)
O8 0.024(2) 0.047(3) 0.028(4) 0.000(3) 0.002(2) 0.005(2)
O9 0.024(2) 0.061(3) 0.025(4) -0.004(3) -0.003(2) -0.005(2)
C100 0.023(2) 0.048(3) 0.025(7) -0.006(3) 0.001(2) 0.0034(19)
C101 0.021(2) 0.047(3) 0.025(7) -0.007(3) -0.001(3) 0.002(2)
C96 0.021(2) 0.048(3) 0.045(8) -0.010(3) -0.001(3) 0.001(2)
C97 0.020(2) 0.049(3) 0.072(9) -0.007(3) 0.000(3) 0.0006(19)
C98 0.025(3) 0.050(3) 0.108(9) -0.001(3) 0.005(3) 0.003(2)
C99 0.025(3) 0.048(3) 0.035(8) -0.005(3) 0.002(3) 0.003(2)
O2 0.052(3) 0.061(4) 0.014(2) 0.003(2) -0.0050(18) 0.000(3)
C85 0.020(3) 0.055(4) 0.049(8) -0.021(4) 0.004(3) 0.001(2)
C86 0.023(2) 0.058(4) 0.053(8) -0.015(4) -0.003(2) -0.0028(19)
C87 0.026(3) 0.058(4) 0.056(9) -0.016(4) -0.004(3) -0.002(2)
C88 0.027(3) 0.059(3) 0.104(8) -0.014(3) -0.010(3) -0.002(2)
C89 0.021(2) 0.056(3) 0.079(9) -0.020(3) -0.002(3) 0.002(2)
C84 0.021(3) 0.054(3) 0.056(8) -0.024(3) 0.001(3) 0.001(2)
O3 0.065(3) 0.075(4) 0.017(2) 0.001(2) 0.0001(19) 0.005(3)
C10 0.053(5) 0.045(6) 0.019(2) 0.000(2) -0.001(2) -0.002(4)
C11 0.055(5) 0.048(7) 0.019(3) -0.002(3) -0.002(2) 0.000(5)
C12 0.062(4) 0.060(6) 0.019(3) -0.002(2) -0.001(2) 0.008(4)
C13 0.053(4) 0.048(6) 0.018(2) 0.000(2) 0.0019(19) -0.001(4)
C8 0.051(4) 0.045(6) 0.016(2) -0.002(2) 0.000(2) -0.003(4)
C9 0.054(5) 0.050(7) 0.017(3) -0.001(3) 0.001(2) 0.002(5)
C59 0.062(7) 0.060(6) 0.019(3) 0.007(3) -0.005(3) -0.015(6)
C60 0.068(8) 0.056(6) 0.020(3) 0.006(3) -0.005(3) -0.009(6)
C56 0.059(6) 0.048(5) 0.019(2) 0.003(2) -0.002(2) 0.000(5)
C57 0.068(7) 0.054(6) 0.016(3) 0.002(3) 0.004(3) -0.010(6)
C58 0.063(8) 0.058(6) 0.016(3) 0.002(3) 0.005(3) -0.014(6)
N8 0.033(4) 0.047(4) 0.021(2) 0.005(2) 0.001(2) 0.005(3)
O4 0.065(3) 0.081(4) 0.017(2) 0.000(2) -0.0066(19) 0.004(3)
O1 0.057(3) 0.063(4) 0.017(2) 0.000(2) 0.0024(18) 0.004(3)
N2 0.052(3) 0.061(4) 0.021(2) 0.005(2) -0.0010(18) -0.003(2)
N6 0.060(3) 0.075(5) 0.019(2) 0.002(2) -0.0026(18) 0.007(3)
O14 0.028(3) 0.066(4) 0.058(6) -0.005(4) 0.005(3) 0.011(3)
N5 0.058(3) 0.067(4) 0.021(2) -0.001(2) -0.0006(19) 0.014(3)
C38 0.039(6) 0.059(6) 0.021(3) -0.004(3) -0.005(3) -0.010(5)
C34 0.040(5) 0.057(6) 0.022(3) -0.002(2) -0.003(2) -0.011(5)
C35 0.041(6) 0.062(6) 0.022(3) -0.001(3) 0.000(3) -0.007(5)
C36 0.041(7) 0.062(6) 0.022(3) -0.001(3) 0.002(3) -0.006(5)
N4 0.033(6) 0.061(6) 0.022(3) -0.004(3) -0.003(3) -0.009(5)
C37 0.043(7) 0.065(6) 0.021(3) -0.004(3) -0.005(3) -0.003(5)
C48 0.060(4) 0.049(7) 0.019(2) 0.002(2) -0.003(2) 0.005(4)
C49 0.059(4) 0.042(8) 0.019(3) -0.003(3) -0.003(2) 0.008(4)
C50 0.063(3) 0.066(6) 0.019(3) -0.003(3) -0.005(2) 0.005(3)
C51 0.061(3) 0.064(8) 0.018(2) -0.001(2) -0.0052(19) 0.007(4)
C46 0.061(3) 0.072(9) 0.017(2) 0.003(3) -0.004(2) 0.004(4)
C47 0.064(4) 0.083(10) 0.018(3) 0.004(3) -0.004(2) -0.006(5)
C26 0.043(4) 0.058(7) 0.021(2) -0.001(2) -0.005(2) -0.010(4)
C27 0.042(4) 0.056(8) 0.019(3) -0.002(3) -0.005(2) -0.009(4)
C28 0.047(3) 0.059(6) 0.018(3) -0.002(3) -0.007(2) -0.006(3)
C29 0.047(3) 0.049(7) 0.015(2) 0.004(2) -0.0051(19) -0.007(3)
C24 0.047(3) 0.054(8) 0.019(2) 0.004(3) -0.005(2) -0.006(4)
C25 0.043(4) 0.053(8) 0.019(3) 0.004(3) -0.004(2) -0.009(4)
N1 0.052(3) 0.062(4) 0.021(2) 0.002(2) 0.0008(18) -0.001(3)
O12 0.027(3) 0.084(4) 0.056(5) 0.008(4) -0.006(3) -0.012(3)
C14 0.067(4) 0.074(5) 0.026(4) -0.003(3) 0.002(3) 0.015(4)
C62 0.059(4) 0.049(7) 0.019(3) 0.004(3) 0.001(2) 0.015(4)
C67 0.057(4) 0.055(8) 0.020(3) 0.001(3) 0.002(2) 0.010(4)
C66 0.056(4) 0.045(7) 0.021(2) 0.004(2) 0.002(2) 0.012(4)
C65 0.054(4) 0.044(7) 0.018(3) 0.008(3) 0.000(2) 0.014(4)
C64 0.062(3) 0.063(6) 0.018(3) 0.005(3) 0.001(2) 0.007(3)
C63 0.061(3) 0.064(7) 0.018(2) 0.002(2) 0.0009(19) 0.009(4)
C106 0.022(2) 0.047(3) 0.010(6) -0.002(3) 0.000(2) 0.0035(19)
C5 0.058(4) 0.060(7) 0.038(5) 0.002(5) -0.005(3) 0.000(4)
C61 0.061(4) 0.067(7) 0.022(2) -0.001(3) 0.000(2) 0.010(4)
C30 0.049(3) 0.067(5) 0.025(4) -0.004(3) -0.011(3) -0.003(3)
C53 0.068(5) 0.086(7) 0.025(5) -0.007(4) -0.008(4) -0.004(5)
C41 0.066(4) 0.078(7) 0.021(4) 0.009(4) -0.007(3) 0.002(4)
C76 0.050(6) 0.044(6) 0.019(3) 0.004(3) 0.005(3) 0.001(5)
C72 0.051(5) 0.042(6) 0.022(2) 0.002(2) 0.002(2) 0.004(5)
C73 0.057(6) 0.050(6) 0.020(3) -0.001(3) 0.001(2) -0.005(5)
C74 0.043(5) 0.045(5) 0.021(3) 0.000(3) 0.002(3) -0.010(5)
N7 0.028(2) 0.028(2) 0.022(2) 0.0011(13) 0.0017(14) 0.0025(14)
C75 0.048(5) 0.051(6) 0.019(3) 0.003(3) 0.003(3) -0.015(5)
O11 0.033(3) 0.078(4) 0.058(6) -0.001(3) -0.011(3) -0.011(3)
C52 0.065(4) 0.079(6) 0.024(4) -0.006(3) -0.008(3) 0.001(3)
O6 0.022(2) 0.054(3) 0.110(5) -0.014(3) -0.004(2) 0.000(2)
C43 0.060(5) 0.068(7) 0.019(4) 0.009(4) -0.005(3) 0.011(4)
C6 0.058(4) 0.064(7) 0.033(4) 0.002(4) -0.007(3) 0.000(4)
C17 0.066(6) 0.077(6) 0.027(5) -0.002(4) 0.000(4) 0.014(5)
N58 0.018(2) 0.050(2) 0.101(5) -0.012(3) -0.003(3) 0.0007(19)
C23 0.049(3) 0.055(7) 0.020(2) 0.006(3) -0.002(2) -0.004(4)
O17 0.048(5) 0.059(3) 0.020(5) 0.001(3) -0.001(3) -0.001(3)
C68 0.064(4) 0.070(5) 0.023(4) 0.005(3) 0.005(3) 0.004(3)
C33 0.050(5) 0.072(7) 0.029(5) -0.005(4) -0.010(4) -0.003(4)
C71 0.068(5) 0.077(7) 0.028(5) 0.004(4) 0.002(4) 0.001(5)
O5 0.019(2) 0.050(3) 0.099(5) -0.011(3) -0.001(2) 0.001(2)
N76 0.020(2) 0.053(3) 0.106(5) -0.014(3) -0.004(3) 0.0035(19)
C94 0.023(2) 0.060(3) 0.019(6) -0.008(3) 0.001(2) -0.0034(19)
C15 0.075(6) 0.083(7) 0.030(5) -0.003(4) -0.001(4) 0.021(5)
C45 0.062(4) 0.081(9) 0.019(2) 0.003(3) -0.003(2) 0.002(4)
C79 0.030(4) 0.055(3) 0.136(11) -0.014(4) -0.010(5) 0.006(3)
C44 0.058(4) 0.064(7) 0.020(4) 0.009(4) -0.004(3) 0.016(4)
C42 0.064(4) 0.078(8) 0.023(4) 0.015(5) -0.008(3) 0.005(4)
C16 0.078(7) 0.075(6) 0.030(5) -0.005(4) 0.000(4) 0.014(5)
C70 0.060(6) 0.070(6) 0.022(5) 0.006(4) 0.004(4) 0.002(4)
C77 0.024(3) 0.051(3) 0.113(7) -0.013(3) -0.005(3) 0.003(2)
C82 0.027(4) 0.053(3) 0.125(10) -0.007(4) -0.011(5) 0.001(3)
C4 0.055(4) 0.063(7) 0.038(5) 0.001(4) -0.003(3) -0.002(4)
C1 0.053(3) 0.061(5) 0.024(3) 0.004(3) 0.000(2) -0.003(3)
O18 0.049(5) 0.072(4) 0.012(5) -0.003(3) -0.001(4) 0.008(3)
C39 0.060(3) 0.067(5) 0.019(3) 0.002(3) -0.002(2) 0.012(3)
C3 0.054(4) 0.066(7) 0.033(4) 0.000(4) 0.001(3) 0.000(4)
C69 0.075(7) 0.073(6) 0.031(5) 0.009(4) 0.003(4) 0.003(4)
O16 0.036(3) 0.063(4) 0.076(6) -0.011(4) 0.005(3) 0.011(3)
C7 0.054(4) 0.061(7) 0.021(2) 0.003(2) 0.001(2) 0.003(5)
C55 0.082(7) 0.082(6) 0.033(5) -0.012(4) -0.003(5) -0.001(5)
C32 0.056(6) 0.071(6) 0.033(5) 0.001(4) -0.009(4) -0.001(4)
C78 0.024(3) 0.054(3) 0.115(6) -0.010(3) -0.006(3) 0.002(2)
C2 0.053(3) 0.064(5) 0.026(3) 0.002(3) -0.002(2) 0.000(3)
C90 0.034(4) 0.060(4) 0.116(7) -0.013(4) -0.013(4) 0.001(3)
C31 0.051(6) 0.068(6) 0.026(5) -0.003(4) -0.015(4) -0.003(4)
C95 0.019(2) 0.048(3) 0.058(8) -0.009(3) -0.003(3) 0.000(2)
C83 0.019(2) 0.054(3) 0.079(9) -0.020(4) -0.001(3) 0.003(2)
O18A 0.064(7) 0.073(4) 0.017(7) 0.000 0.000 0.002(4)
Mn2A 0.070(3) 0.076(4) 0.022(2) 0.0014(19) -0.0063(18) 0.002(3)
N9 0.032(3) 0.083(4) 0.062(8) 0.007(4) -0.011(3) -0.011(3)
N10 0.035(3) 0.071(4) 0.107(10) -0.020(5) 0.011(4) 0.009(3)
C81 0.032(5) 0.054(4) 0.148(11) -0.011(4) -0.015(6) 0.005(3)
O19 0.011(5) 0.044(6) 0.103(4) -0.011(3) -0.007(3) 0.004(4)
C80 0.033(5) 0.057(4) 0.151(11) -0.006(4) -0.017(6) 0.003(3)
C91 0.040(6) 0.061(7) 0.117(7) -0.014(5) -0.015(5) 0.004(5)
C92 0.038(5) 0.064(5) 0.119(9) -0.013(5) -0.013(5) -0.002(4)
O13 0.044(4) 0.099(6) 0.121(10) -0.010(6) -0.027(5) -0.015(4)
C40 0.060(3) 0.071(6) 0.019(3) 0.005(3) -0.003(2) 0.009(3)
C93 0.038(6) 0.069(7) 0.119(8) -0.016(5) -0.010(5) 0.002(5)
O15 0.048(5) 0.104(6) 0.29(2) -0.083(9) 0.035(6) 0.011(4)
O17A 0.059(7) 0.062(4) 0.016(7) 0.000 0.000 0.003(4)
C102 0.037(4) 0.052(3) 0.134(8) 0.001(4) 0.007(4) -0.002(3)
V1 0.018(2) 0.052(2) 0.105(5) -0.012(3) -0.005(2) 0.0027(18)
O19A 0.011(5) 0.047(6) 0.104(4) -0.013(3) -0.002(3) -0.003(4)
V2 0.017(2) 0.051(2) 0.106(4) -0.014(3) -0.004(2) 0.0016(18)
C104 0.046(6) 0.055(7) 0.136(8) 0.002(5) 0.012(5) -0.003(5)
C103 0.042(6) 0.059(7) 0.137(8) -0.004(5) 0.004(5) -0.002(5)
C105 0.045(6) 0.056(5) 0.140(10) 0.000(5) 0.005(5) 0.002(4)
O10 0.023(3) 0.060(3) 0.018(4) -0.005(3) 0.004(2) -0.003(2)
C54 0.063(6) 0.078(6) 0.018(5) -0.010(4) -0.008(4) 0.001(4)
Mn1A 0.060(3) 0.063(4) 0.021(2) 0.0016(19) 0.0008(19) 0.004(3)
loop_
_atom_type_symbol
_atom_type_description
_atom_type_scat_dispersion_real
_atom_type_scat_dispersion_imag
_atom_type_scat_source
C C 0.0181 0.0091 'International Tables Vol C Tables 4.2.6.8 and 6.1.1.4'
H H 0.0000 0.0000 'International Tables Vol C Tables 4.2.6.8 and 6.1.1.4'
Cd Cd 0.1185 4.6533 'International Tables Vol C Tables 4.2.6.8 and 6.1.1.4'
Mn Mn -0.5299 2.8052 'International Tables Vol C Tables 4.2.6.8 and 6.1.1.4'
N N 0.0311 0.0180 'International Tables Vol C Tables 4.2.6.8 and 6.1.1.4'
O O 0.0492 0.0322 'International Tables Vol C Tables 4.2.6.8 and 6.1.1.4'
V V 0.0687 2.1097 'International Tables Vol C Tables 4.2.6.8 and 6.1.1.4'
loop_
_geom_angle_atom_site_label_1
_geom_angle_atom_site_label_2
_geom_angle_atom_site_label_3
_geom_angle
_geom_angle_site_symmetry_1
_geom_angle_site_symmetry_3
N3 Cd1 O9 88.6(3) . .
N3 Cd1 O12 91.3(4) . .
N3 Cd1 O11 97.7(4) . .
N3 Cd1 C94 90.4(4) . .
N3 Cd1 O10 93.0(3) . .
N3 Cd1 O10 89.5(4) . 2_665
O9 Cd1 O12 133.3(4) . .
O9 Cd1 O11 82.5(3) . .
O9 Cd1 C94 27.3(4) . .
O9 Cd1 O10 129.4(3) . 2_665
O9 Cd1 O10 54.8(3) . .
N4 Cd1 N3 173(3) 1_556 .
N4 Cd1 O9 98(3) 1_556 .
N4 Cd1 O12 83(3) 1_556 .
N4 Cd1 O11 82(3) 1_556 .
N4 Cd1 C94 96(3) 1_556 .
N4 Cd1 O10 92(3) 1_556 .
N4 Cd1 O10 87(3) 1_556 2_665
O12 Cd1 C94 160.5(4) . .
O11 Cd1 O12 51.3(4) . .
O11 Cd1 C94 109.3(4) . .
O10 Cd1 O12 97.2(4) 2_665 .
O10 Cd1 O12 170.9(4) . .
O10 Cd1 O11 135.6(3) . .
O10 Cd1 O11 147.6(3) 2_665 .
O10 Cd1 C94 102.2(4) 2_665 .
O10 Cd1 C94 27.5(4) . .
O10 Cd1 O10 74.9(3) 2_665 .
O7 Cd2 O7 75.0(3) 2_565 .
O7 Cd2 O14 170.6(3) . .
O7 Cd2 O14 96.8(3) 2_565 .
O7 Cd2 O16 135.4(3) . .
O7 Cd2 O16 146.8(3) 2_565 .
O8 Cd2 O7 129.8(3) . 2_565
O8 Cd2 O7 55.0(3) . .
O8 Cd2 O14 133.4(3) . .
O8 Cd2 O16 82.3(3) . .
N8 Cd2 O7 88.5(3) . 2_565
N8 Cd2 O7 93.5(3) . .
N8 Cd2 O8 91.4(3) . .
N8 Cd2 O14 90.9(3) . .
N8 Cd2 N7 173.1(3) . 1_556
N8 Cd2 O16 100.2(4) . .
O14 Cd2 O16 51.6(4) . .
N7 Cd2 O7 90.3(3) 1_556 .
N7 Cd2 O7 86.9(3) 1_556 2_565
N7 Cd2 O8 95.5(3) 1_556 .
N7 Cd2 O14 84.6(4) 1_556 .
N7 Cd2 O16 81.0(4) 1_556 .
O2 Mn1 N2 87.0(5) . .
O2 Mn1 N1 150.6(5) . .
O1 Mn1 O2 87.3(4) . .
O1 Mn1 N2 140.7(5) . .
O1 Mn1 N1 87.0(5) . .
N1 Mn1 N2 79.5(5) . .
O17 Mn1 O2 103.7(5) . .
O17 Mn1 O1 109.4(6) . .
O17 Mn1 N2 109.7(6) . .
O17 Mn1 N1 105.4(6) . .
O3 Mn2 O4 88.8(5) . .
O3 Mn2 N6 141.6(5) . .
O3 Mn2 N5 87.2(5) . .
O4 Mn2 N6 85.9(5) . .
O4 Mn2 N5 150.1(6) . .
N5 Mn2 N6 79.1(5) . .
O18 Mn2 O3 105.9(6) . .
O18 Mn2 O4 104.3(6) . .
O18 Mn2 N6 112.3(7) . .
O18 Mn2 N5 105.3(7) . .
Cd2 O7 Cd2 105.0(3) 2_565 .
C106 O7 Cd2 163.5(8) . 2_565
C106 O7 Cd2 91.5(7) . .
C20 N3 Cd1 117.5(10) . .
C20 N3 C21 124.0(13) . .
C21 N3 Cd1 118.5(10) . .
N3 C20 H20 120.5 . .
N3 C20 C19 119.0(15) . .
C19 C20 H20 120.5 . .
C20 C19 H19 119.1 . .
C18 C19 C20 121.7(15) . .
C18 C19 H19 119.1 . .
C19 C18 C22 117.6(14) . .
C19 C18 C10 123.4(13) . .
C22 C18 C10 119.0(13) . .
C18 C22 H22 120.2 . .
C18 C22 C21 119.6(15) . .
C21 C22 H22 120.2 . .
N3 C21 C22 117.7(14) . .
N3 C21 H21 121.2 . .
C22 C21 H21 121.2 . .
C106 O8 Cd2 95.7(8) . .
C94 O9 Cd1 93.2(9) . .
C101 C100 C99 120.0 . .
C101 C100 C106 120.0(8) . .
C99 C100 C106 120.0(8) . .
C100 C101 H101 120.0 . .
C96 C101 C100 120.0 . .
C96 C101 H101 120.0 . .
C101 C96 C97 120.0 . .
C101 C96 C95 116.4(8) . .
C97 C96 C95 123.5(8) . .
C98 C97 C96 120.0 . .
O5 C97 C96 121.5(7) . .
O5 C97 C98 118.5(7) . .
C97 C98 C102 121.6(8) . .
C99 C98 C97 120.0 . .
C99 C98 C102 118.3(8) . .
C100 C99 H99 120.0 . .
C98 C99 C100 120.0 . .
C98 C99 H99 120.0 . .
C29 O2 Mn1 127.2(8) . .
C29 O2 Mn1A 136.8(8) . .
C86 C85 H85 120.0 . .
C86 C85 C84 120.0 . .
C84 C85 H85 120.0 . .
C85 C86 C94 119.9(9) . .
C87 C86 C85 120.0 . .
C87 C86 C94 120.1(9) . .
C86 C87 H87 120.0 . .
C86 C87 C88 120.0 . .
C88 C87 H87 120.0 . .
C87 C88 C89 120.0 . .
C87 C88 C90 119.4(8) . .
C89 C88 C90 120.6(8) . .
C84 C89 C88 120.0 . .
O6 C89 C88 119.3(8) . .
O6 C89 C84 120.7(8) . .
C85 C84 C83 115.8(9) . .
C89 C84 C85 120.0 . .
C89 C84 C83 124.2(9) . .
C63 O3 Mn2 133.6(9) . .
C63 O3 Mn2A 132.0(9) . .
C11 C10 C18 118.8(8) . .
C11 C10 C9 120.0 . .
C9 C10 C18 121.2(8) . .
C10 C11 H11 120.0 . .
C10 C11 C12 120.0 . .
C12 C11 H11 120.0 . .
C11 C12 C14 119.5(7) . .
C13 C12 C11 120.0 . .
C13 C12 C14 120.3(7) . .
C8 C13 C12 120.0 . .
O1 C13 C12 120.7(7) . .
O1 C13 C8 119.3(7) . .
C13 C8 C9 120.0 . .
C13 C8 C7 125.0(8) . .
C9 C8 C7 114.9(8) . .
C10 C9 H9 120.0 . .
C8 C9 C10 120.0 . .
C8 C9 H9 120.0 . .
C60 C59 H59 120.0 . .
C60 C59 N8 120.0 . .
N8 C59 H59 120.0 . .
C59 C60 H60 120.0 . .
C59 C60 C56 120.0 . .
C56 C60 H60 120.0 . .
C60 C56 C48 121.1(8) . .
C57 C56 C60 120.0 . .
C57 C56 C48 118.8(8) . .
C56 C57 H57 120.0 . .
C56 C57 C58 120.0 . .
C58 C57 H57 120.0 . .
C57 C58 H58 120.0 . .
C57 C58 N8 120.0 . .
N8 C58 H58 120.0 . .
C59 N8 Cd2 121.5(4) . .
C58 N8 Cd2 118.4(4) . .
C58 N8 C59 120.0 . .
C51 O4 Mn2 130.8(11) . .
C51 O4 Mn2A 132.3(10) . .
C13 O1 Mn1 134.6(8) . .
C13 O1 Mn1A 130.1(9) . .
C23 N2 Mn1 122.4(11) . .
C23 N2 C1 121.0(13) . .
C23 N2 Mn1A 119.2(11) . .
C1 N2 Mn1 116.3(9) . .
C1 N2 Mn1A 113.3(9) . .
C45 N6 Mn2 124.4(12) . .
C45 N6 Mn2A 119.7(12) . .
C45 N6 C40 120.1(14) . .
C40 N6 Mn2 114.9(8) . .
C40 N6 Mn2A 114.4(9) . .
N10 O14 Cd2 95.5(9) . .
C61 N5 Mn2 128.1(12) . .
C61 N5 C39 120.1(14) . .
C61 N5 Mn2A 117.0(12) . .
C39 N5 Mn2 110.8(9) . .
C39 N5 Mn2A 119.0(9) . .
C34 C38 H38 120.0 . .
C34 C38 C37 120.0 . .
C37 C38 H38 120.0 . .
C38 C34 C26 118.1(6) . .
C35 C34 C38 120.0 . .
C35 C34 C26 121.5(6) . .
C34 C35 H35 120.0 . .
C34 C35 C36 120.0 . .
C36 C35 H35 120.0 . .
C35 C36 H36 120.0 . .
C35 C36 N4 120.0 . .
N4 C36 H36 120.0 . .
C36 N4 Cd1 118.2(4) . 1_554
C37 N4 Cd1 121.8(4) . 1_554
C37 N4 C36 120.0 . .
C38 C37 H37 120.0 . .
N4 C37 C38 120.0 . .
N4 C37 H37 120.0 . .
C49 C48 C56 119.9(12) . .
C47 C48 C56 122.7(13) . .
C47 C48 C49 117.3(13) . .
C48 C49 H49 117.7 . .
C50 C49 C48 124.6(14) . .
C50 C49 H49 117.7 . .
C49 C50 C51 115.1(13) . .
C49 C50 C52 120.6(14) . .
C51 C50 C52 124.3(13) . .
O4 C51 C50 118.5(14) . .
O4 C51 C46 121.4(14) . .
C50 C51 C46 120.0(13) . .
C51 C46 C45 121.4(13) . .
C47 C46 C51 120.8(15) . .
C47 C46 C45 117.6(15) . .
C48 C47 C46 121.8(16) . .
C48 C47 H47 119.1 . .
C46 C47 H47 119.1 . .
C27 C26 C34 121.6(6) . .
C27 C26 C25 120.0 . .
C25 C26 C34 118.4(6) . .
C26 C27 H27 120.0 . .
C28 C27 C26 120.0 . .
C28 C27 H27 120.0 . .
C27 C28 C30 116.5(7) . .
C29 C28 C27 120.0 . .
C29 C28 C30 123.4(7) . .
O2 C29 C28 119.0(7) . .
O2 C29 C24 121.0(7) . .
C24 C29 C28 120.0 . .
C29 C24 C25 120.0 . .
C23 C24 C29 124.5(8) . .
C23 C24 C25 115.5(8) . .
C26 C25 H25 120.0 . .
C24 C25 C26 120.0 . .
C24 C25 H25 120.0 . .
C7 N1 Mn1 127.0(11) . .
C7 N1 C2 122.4(12) . .
C7 N1 Mn1A 113.6(10) . .
C2 N1 Mn1 109.7(8) . .
C2 N1 Mn1A 120.3(9) . .
N9 O12 Cd1 94.1(9) . .
C17 C14 C12 112.6(12) . .
C15 C14 C12 112.2(11) . .
C15 C14 C17 109.9(13) . .
C16 C14 C12 108.1(12) . .
C16 C14 C17 109.6(12) . .
C16 C14 C15 104.1(13) . .
C67 C62 C63 120.0 . .
C67 C62 C61 116.4(8) . .
C63 C62 C61 123.6(8) . .
C62 C67 H67 120.0 . .
C66 C67 C62 120.0 . .
C66 C67 H67 120.0 . .
C67 C66 C65 120.0 . .
C67 C66 C72 120.2(8) . .
C65 C66 C72 119.6(8) . .
C66 C65 H65 120.0 . .
C66 C65 C64 120.0 . .
C64 C65 H65 120.0 . .
C65 C64 C68 120.3(8) . .
C63 C64 C65 120.0 . .
C63 C64 C68 119.5(8) . .
O3 C63 C62 119.7(8) . .
O3 C63 C64 120.3(8) . .
C64 C63 C62 120.0 . .
O7 C106 C100 118.8(11) . .
O8 C106 O7 117.9(11) . .
O8 C106 C100 123.3(12) . .
H5A C5 H5B 108.0 . .
C6 C5 H5A 109.4 . .
C6 C5 H5B 109.4 . .
C4 C5 H5A 109.4 . .
C4 C5 H5B 109.4 . .
C4 C5 C6 111.1(14) . .
N5 C61 C62 125.0(15) . .
N5 C61 H61 117.5 . .
C62 C61 H61 117.5 . .
C28 C30 C32 108.4(11) . .
C28 C30 C31 110.8(11) . .
C33 C30 C28 114.7(11) . .
C33 C30 C32 107.9(13) . .
C33 C30 C31 106.3(12) . .
C32 C30 C31 108.6(11) . .
H53A C53 H53B 109.5 . .
H53A C53 H53C 109.5 . .
H53B C53 H53C 109.5 . .
C52 C53 H53A 109.5 . .
C52 C53 H53B 109.5 . .
C52 C53 H53C 109.5 . .
H41A C41 H41B 108.0 . .
C42 C41 H41A 109.4 . .
C42 C41 H41B 109.4 . .
C40 C41 H41A 109.4 . .
C40 C41 H41B 109.4 . .
C40 C41 C42 111.3(13) . .
C72 C76 H76 121.2 . .
C72 C76 C75 117.7(14) . .
C75 C76 H76 121.2 . .
C76 C72 C66 119.9(12) . .
C73 C72 C66 120.4(13) . .
C73 C72 C76 119.6(13) . .
C72 C73 H73 120.0 . .
C72 C73 C74 120.0(14) . .
C74 C73 H73 120.0 . .
C73 C74 H74 119.9 . .
N7 C74 C73 120.3(13) . .
N7 C74 H74 119.9 . .
C74 N7 Cd2 118.8(9) . 1_554
C75 N7 Cd2 119.6(9) . 1_554
C75 N7 C74 121.6(12) . .
C76 C75 H75 119.6 . .
N7 C75 C76 120.8(13) . .
N7 C75 H75 119.6 . .
N9 O11 Cd1 95.8(10) . .
C50 C52 C53 112.7(12) . .
C50 C52 C55 107.2(13) . .
C50 C52 C54 110.3(13) . .
C53 C52 C55 107.4(13) . .
C53 C52 C54 108.4(13) . .
C55 C52 C54 110.9(12) . .
C89 O6 V1 130.6(9) . .
C89 O6 V2 129.0(8) . .
H43A C43 H43B 107.9 . .
C44 C43 H43A 109.2 . .
C44 C43 H43B 109.2 . .
C42 C43 H43A 109.2 . .
C42 C43 H43B 109.2 . .
C42 C43 C44 112.2(14) . .
C5 C6 H6A 109.2 . .
C5 C6 H6B 109.2 . .
H6A C6 H6B 107.9 . .
C1 C6 C5 112.2(13) . .
C1 C6 H6A 109.2 . .
C1 C6 H6B 109.2 . .
C14 C17 H17A 109.5 . .
C14 C17 H17B 109.5 . .
C14 C17 H17C 109.5 . .
H17A C17 H17B 109.5 . .
H17A C17 H17C 109.5 . .
H17B C17 H17C 109.5 . .
C77 N58 V1 114.6(9) . .
C77 N58 V2 111.2(9) . .
C95 N58 C77 124.5(14) . .
C95 N58 V1 118.0(11) . .
C95 N58 V2 123.2(12) . .
N2 C23 C24 126.9(14) . .
N2 C23 H23 116.5 . .
C24 C23 H23 116.5 . .
C71 C68 C64 111.4(11) . .
C70 C68 C64 113.7(12) . .
C70 C68 C71 106.3(13) . .
C70 C68 C69 111.0(12) . .
C69 C68 C64 108.9(12) . .
C69 C68 C71 105.3(13) . .
C30 C33 H33A 109.5 . .
C30 C33 H33B 109.5 . .
C30 C33 H33C 109.5 . .
H33A C33 H33B 109.5 . .
H33A C33 H33C 109.5 . .
H33B C33 H33C 109.5 . .
C68 C71 H71A 109.5 . .
C68 C71 H71B 109.5 . .
C68 C71 H71C 109.5 . .
H71A C71 H71B 109.5 . .
H71A C71 H71C 109.5 . .
H71B C71 H71C 109.5 . .
C97 O5 V1 125.3(9) . .
C97 O5 V2 133.0(8) . .
C78 N76 V1 109.2(9) . .
C78 N76 V2 114.2(9) . .
C83 N76 C78 123.2(14) . .
C83 N76 V1 125.9(12) . .
C83 N76 V2 120.6(13) . .
O9 C94 Cd1 59.5(7) . .
O9 C94 C86 120.7(13) . .
O9 C94 O10 121.3(13) . .
C86 C94 Cd1 176.2(9) . .
O10 C94 Cd1 61.9(7) . .
O10 C94 C86 118.0(12) . .
C14 C15 H15A 109.5 . .
C14 C15 H15B 109.5 . .
C14 C15 H15C 109.5 . .
H15A C15 H15B 109.5 . .
H15A C15 H15C 109.5 . .
H15B C15 H15C 109.5 . .
N6 C45 C46 127.3(16) . .
N6 C45 H45 116.3 . .
C46 C45 H45 116.3 . .
H79A C79 H79B 108.0 . .
C78 C79 H79A 109.4 . .
C78 C79 H79B 109.4 . .
C80 C79 H79A 109.4 . .
C80 C79 H79B 109.4 . .
C80 C79 C78 111.0(14) . .
C43 C44 H44A 109.9 . .
C43 C44 H44B 109.9 . .
H44A C44 H44B 108.3 . .
C39 C44 C43 108.9(12) . .
C39 C44 H44A 109.9 . .
C39 C44 H44B 109.9 . .
C41 C42 C43 109.5(14) . .
C41 C42 H42A 109.8 . .
C41 C42 H42B 109.8 . .
C43 C42 H42A 109.8 . .
C43 C42 H42B 109.8 . .
H42A C42 H42B 108.2 . .
C14 C16 H16A 109.5 . .
C14 C16 H16B 109.5 . .
C14 C16 H16C 109.5 . .
H16A C16 H16B 109.5 . .
H16A C16 H16C 109.5 . .
H16B C16 H16C 109.5 . .
C68 C70 H70A 109.5 . .
C68 C70 H70B 109.5 . .
C68 C70 H70C 109.5 . .
H70A C70 H70B 109.5 . .
H70A C70 H70C 109.5 . .
H70B C70 H70C 109.5 . .
N58 C77 H77 107.3 . .
N58 C77 C82 116.1(12) . .
N58 C77 C78 108.7(15) . .
C82 C77 H77 107.3 . .
C78 C77 H77 107.3 . .
C78 C77 C82 109.9(17) . .
C77 C82 H82A 110.1 . .
C77 C82 H82B 110.1 . .
C77 C82 C81 108.1(13) . .
H82A C82 H82B 108.4 . .
C81 C82 H82A 110.1 . .
C81 C82 H82B 110.1 . .
C5 C4 H4A 109.0 . .
C5 C4 H4B 109.0 . .
C5 C4 C3 112.9(14) . .
H4A C4 H4B 107.8 . .
C3 C4 H4A 109.0 . .
C3 C4 H4B 109.0 . .
N2 C1 C6 119.6(12) . .
N2 C1 H1 107.5 . .
N2 C1 C2 107.0(12) . .
C6 C1 H1 107.5 . .
C6 C1 C2 107.3(13) . .
C2 C1 H1 107.5 . .
N5 C39 H39 106.3 . .
N5 C39 C40 104.0(12) . .
C44 C39 N5 119.6(12) . .
C44 C39 H39 106.3 . .
C44 C39 C40 113.3(13) . .
C40 C39 H39 106.3 . .
C4 C3 H3A 109.9 . .
C4 C3 H3B 109.9 . .
H3A C3 H3B 108.3 . .
C2 C3 C4 108.9(13) . .
C2 C3 H3A 109.9 . .
C2 C3 H3B 109.9 . .
C68 C69 H69A 109.5 . .
C68 C69 H69B 109.5 . .
C68 C69 H69C 109.5 . .
H69A C69 H69B 109.5 . .
H69A C69 H69C 109.5 . .
H69B C69 H69C 109.5 . .
N10 O16 Cd2 93.8(9) . .
C8 C7 H7 117.8 . .
N1 C7 C8 124.4(13) . .
N1 C7 H7 117.8 . .
C52 C55 H55A 109.5 . .
C52 C55 H55B 109.5 . .
C52 C55 H55C 109.5 . .
H55A C55 H55B 109.5 . .
H55A C55 H55C 109.5 . .
H55B C55 H55C 109.5 . .
C30 C32 H32A 109.5 . .
C30 C32 H32B 109.5 . .
C30 C32 H32C 109.5 . .
H32A C32 H32B 109.5 . .
H32A C32 H32C 109.5 . .
H32B C32 H32C 109.5 . .
N76 C78 C79 114.6(13) . .
N76 C78 H78 108.4 . .
C79 C78 H78 108.4 . .
C77 C78 N76 106.0(16) . .
C77 C78 C79 110.9(16) . .
C77 C78 H78 108.4 . .
N1 C2 C1 106.4(12) . .
N1 C2 C3 115.5(12) . .
N1 C2 H2 106.9 . .
C1 C2 H2 106.9 . .
C3 C2 C1 113.7(13) . .
C3 C2 H2 106.9 . .
C88 C90 C93 106.0(13) . .
C91 C90 C88 111.8(13) . .
C91 C90 C92 108.1(15) . .
C91 C90 C93 113.6(14) . .
C92 C90 C88 112.8(12) . .
C92 C90 C93 104.3(14) . .
C30 C31 H31A 109.5 . .
C30 C31 H31B 109.5 . .
C30 C31 H31C 109.5 . .
H31A C31 H31B 109.5 . .
H31A C31 H31C 109.5 . .
H31B C31 H31C 109.5 . .
C96 C95 H95 116.0 . .
N58 C95 C96 128.0(14) . .
N58 C95 H95 116.0 . .
C84 C83 H83 116.5 . .
N76 C83 C84 127.1(15) . .
N76 C83 H83 116.5 . .
Mn2A O18A Mn2A 172(2) . 2_565
O3 Mn2A O4 96.0(6) . .
O3 Mn2A N6 146.5(8) . .
O3 Mn2A N5 83.4(6) . .
O4 Mn2A N6 87.5(6) . .
O4 Mn2A N5 140.2(7) . .
N6 Mn2A N5 73.3(5) . .
O18A Mn2A O3 102.6(11) . .
O18A Mn2A O4 108.5(11) . .
O18A Mn2A N6 107.8(9) . .
O18A Mn2A N5 110.4(9) . .
O12 N9 O13 119.4(14) . .
O11 N9 O12 118.0(14) . .
O11 N9 O13 122.5(16) . .
O14 N10 O16 118.1(14) . .
O15 N10 O14 124.1(16) . .
O15 N10 O16 117.7(16) . .
C82 C81 H81A 109.9 . .
C82 C81 H81B 109.9 . .
H81A C81 H81B 108.3 . .
C80 C81 C82 109.0(16) . .
C80 C81 H81A 109.9 . .
C80 C81 H81B 109.9 . .
C79 C80 C81 110.8(18) . .
C79 C80 H80A 109.5 . .
C79 C80 H80B 109.5 . .
C81 C80 H80A 109.5 . .
C81 C80 H80B 109.5 . .
H80A C80 H80B 108.1 . .
C90 C91 H91A 109.5 . .
C90 C91 H91B 109.5 . .
C90 C91 H91C 109.5 . .
H91A C91 H91B 109.5 . .
H91A C91 H91C 109.5 . .
H91B C91 H91C 109.5 . .
C90 C92 H92A 109.5 . .
C90 C92 H92B 109.5 . .
C90 C92 H92C 109.5 . .
H92A C92 H92B 109.5 . .
H92A C92 H92C 109.5 . .
H92B C92 H92C 109.5 . .
N6 C40 C41 119.0(13) . .
N6 C40 C39 108.1(12) . .
N6 C40 H40 106.6 . .
C41 C40 C39 109.2(14) . .
C41 C40 H40 106.6 . .
C39 C40 H40 106.6 . .
C90 C93 H93A 109.5 . .
C90 C93 H93B 109.5 . .
C90 C93 H93C 109.5 . .
H93A C93 H93B 109.5 . .
H93A C93 H93C 109.5 . .
H93B C93 H93C 109.5 . .
Mn1A O17A Mn1A 169(3) . 2_665
C104 C102 C98 110.9(13) . .
C104 C102 C103 108.4(14) . .
C104 C102 C105 105.0(15) . .
C103 C102 C98 112.1(14) . .
C103 C102 C105 106.6(15) . .
C105 C102 C98 113.5(12) . .
O6 V1 N58 148.6(8) . .
O6 V1 N76 89.1(5) . .
O5 V1 O6 90.0(5) . .
O5 V1 N58 88.1(5) . .
O5 V1 N76 155.5(9) . .
N76 V1 N58 80.1(5) . .
O19 V1 O6 109.4(9) . .
O19 V1 N58 101.6(9) . .
O19 V1 O5 102.0(8) . .
O19 V1 N76 101.4(9) . .
O6 V2 N58 149.7(9) . .
O6 V2 N76 85.3(6) . .
N58 V2 N76 76.4(5) . .
O5 V2 O6 91.8(5) . .
O5 V2 N58 88.9(5) . .
O5 V2 N76 143.5(8) . .
O19A V2 O6 107.7(9) . .
O19A V2 N58 99.9(9) . .
O19A V2 O5 112.8(10) . .
O19A V2 N76 102.7(9) . .
C102 C104 H10A 109.5 . .
C102 C104 H10B 109.5 . .
C102 C104 H10C 109.5 . .
H10A C104 H10B 109.5 . .
H10A C104 H10C 109.5 . .
H10B C104 H10C 109.5 . .
C102 C103 H10D 109.5 . .
C102 C103 H10E 109.5 . .
C102 C103 H10F 109.5 . .
H10D C103 H10E 109.5 . .
H10D C103 H10F 109.5 . .
H10E C103 H10F 109.5 . .
C102 C105 H10G 109.5 . .
C102 C105 H10H 109.5 . .
C102 C105 H10I 109.5 . .
H10G C105 H10H 109.5 . .
H10G C105 H10I 109.5 . .
H10H C105 H10I 109.5 . .
Cd1 O10 Cd1 105.0(3) 2_665 .
C94 O10 Cd1 90.7(8) . .
C94 O10 Cd1 163.8(9) . 2_665
C52 C54 H54A 109.5 . .
C52 C54 H54B 109.5 . .
C52 C54 H54C 109.5 . .
H54A C54 H54B 109.5 . .
H54A C54 H54C 109.5 . .
H54B C54 H54C 109.5 . .
O2 Mn1A N2 83.1(6) . .
O2 Mn1A N1 137.4(8) . .
O1 Mn1A O2 98.0(7) . .
O1 Mn1A N2 146.0(9) . .
O1 Mn1A N1 86.8(7) . .
O1 Mn1A O17A 106.2(15) . .
N2 Mn1A N1 70.8(6) . .
O17A Mn1A O2 104.1(15) . .
O17A Mn1A N2 106.4(12) . .
O17A Mn1A N1 115.2(12) . .
loop_
_geom_bond_atom_site_label_1
_geom_bond_atom_site_label_2
_geom_bond_distance
_geom_bond_site_symmetry_2
Cd1 N3 2.343(10) .
Cd1 O9 2.355(10) .
Cd1 N4 2.244(9) 1_556
Cd1 O12 2.482(10) .
Cd1 O11 2.469(11) .
Cd1 C94 2.730(14) .
Cd1 O10 2.396(10) 2_665
Cd1 O10 2.408(9) .
Cd2 O7 2.419(8) .
Cd2 O7 2.369(9) 2_565
Cd2 O8 2.367(9) .
Cd2 N8 2.238(5) .
Cd2 O14 2.479(10) .
Cd2 N7 2.340(10) 1_556
Cd2 O16 2.490(11) .
Mn1 O2 1.935(10) .
Mn1 O1 1.905(10) .
Mn1 N2 2.041(13) .
Mn1 N1 2.026(12) .
Mn1 O17 1.665(14) .
Mn2 O3 1.919(11) .
Mn2 O4 1.945(11) .
Mn2 N6 2.086(13) .
Mn2 N5 2.006(13) .
Mn2 O18 1.625(16) .
O7 Cd2 2.369(9) 2_565
O7 C106 1.323(16) .
N3 C20 1.265(18) .
N3 C21 1.306(19) .
C20 H20 0.9500 .
C20 C19 1.41(2) .
C19 H19 0.9500 .
C19 C18 1.32(2) .
C18 C22 1.36(2) .
C18 C10 1.498(15) .
C22 H22 0.9500 .
C22 C21 1.43(2) .
C21 H21 0.9500 .
O8 C106 1.255(15) .
O9 C94 1.255(17) .
C100 C101 1.3900 .
C100 C99 1.3900 .
C100 C106 1.446(14) .
C101 H101 0.9500 .
C101 C96 1.3900 .
C96 C97 1.3900 .
C96 C95 1.444(16) .
C97 C98 1.3900 .
C97 O5 1.319(11) .
C98 C99 1.3900 .
C98 C102 1.544(16) .
C99 H99 0.9500 .
O2 C29 1.327(10) .
O2 Mn1A 1.864(14) .
C85 H85 0.9500 .
C85 C86 1.3900 .
C85 C84 1.3900 .
C86 C87 1.3900 .
C86 C94 1.503(15) .
C87 H87 0.9500 .
C87 C88 1.3900 .
C88 C89 1.3900 .
C88 C90 1.541(16) .
C89 C84 1.3900 .
C89 O6 1.321(11) .
C84 C83 1.453(18) .
O3 C63 1.338(10) .
O3 Mn2A 1.813(12) .
C10 C11 1.3900 .
C10 C9 1.3900 .
C11 H11 0.9500 .
C11 C12 1.3900 .
C12 C13 1.3900 .
C12 C14 1.554(15) .
C13 C8 1.3900 .
C13 O1 1.368(10) .
C8 C9 1.3900 .
C8 C7 1.431(16) .
C9 H9 0.9500 .
C59 H59 0.9500 .
C59 C60 1.3900 .
C59 N8 1.3900 .
C60 H60 0.9500 .
C60 C56 1.3900 .
C56 C57 1.3900 .
C56 C48 1.542(14) .
C57 H57 0.9500 .
C57 C58 1.3900 .
C58 H58 0.9500 .
C58 N8 1.3900 .
O4 C51 1.335(16) .
O4 Mn2A 1.825(13) .
O1 Mn1A 1.643(14) .
N2 C23 1.333(17) .
N2 C1 1.469(19) .
N2 Mn1A 2.239(16) .
N6 C45 1.275(17) .
N6 Mn2A 2.136(15) .
N6 C40 1.48(2) .
O14 N10 1.240(17) .
N5 C61 1.278(18) .
N5 C39 1.51(2) .
N5 Mn2A 2.231(15) .
C38 H38 0.9500 .
C38 C34 1.3900 .
C38 C37 1.3900 .
C34 C35 1.3900 .
C34 C26 1.564(8) .
C35 H35 0.9500 .
C35 C36 1.3900 .
C36 H36 0.9500 .
C36 N4 1.3900 .
N4 Cd1 2.244(6) 1_554
N4 C37 1.3900 .
C37 H37 0.9500 .
C48 C49 1.42(2) .
C48 C47 1.32(2) .
C49 H49 0.9500 .
C49 C50 1.389(19) .
C50 C51 1.39(2) .
C50 C52 1.506(18) .
C51 C46 1.42(2) .
C46 C47 1.37(2) .
C46 C45 1.46(2) .
C47 H47 0.9500 .
C26 C27 1.3900 .
C26 C25 1.3900 .
C27 H27 0.9500 .
C27 C28 1.3900 .
C28 C29 1.3900 .
C28 C30 1.532(14) .
C29 C24 1.3900 .
C24 C25 1.3900 .
C24 C23 1.368(16) .
C25 H25 0.9500 .
N1 C7 1.330(17) .
N1 C2 1.488(19) .
N1 Mn1A 2.246(17) .
O12 N9 1.269(17) .
C14 C17 1.538(18) .
C14 C15 1.537(18) .
C14 C16 1.530(18) .
C62 C67 1.3900 .
C62 C63 1.3900 .
C62 C61 1.468(18) .
C67 H67 0.9500 .
C67 C66 1.3900 .
C66 C65 1.3900 .
C66 C72 1.505(14) .
C65 H65 0.9500 .
C65 C64 1.3900 .
C64 C63 1.3900 .
C64 C68 1.565(15) .
C5 H5A 0.9900 .
C5 H5B 0.9900 .
C5 C6 1.51(2) .
C5 C4 1.50(2) .
C61 H61 0.9500 .
C30 C33 1.524(17) .
C30 C32 1.557(18) .
C30 C31 1.563(17) .
C53 H53A 0.9800 .
C53 H53B 0.9800 .
C53 H53C 0.9800 .
C53 C52 1.528(18) .
C41 H41A 0.9900 .
C41 H41B 0.9900 .
C41 C42 1.50(2) .
C41 C40 1.50(2) .
C76 H76 0.9500 .
C76 C72 1.358(19) .
C76 C75 1.404(19) .
C72 C73 1.354(19) .
C73 H73 0.9500 .
C73 C74 1.368(19) .
C74 H74 0.9500 .
C74 N7 1.307(16) .
N7 Cd2 2.340(10) 1_554
N7 C75 1.306(16) .
C75 H75 0.9500 .
O11 N9 1.229(16) .
C52 C55 1.529(18) .
C52 C54 1.537(18) .
O6 V1 1.961(12) .
O6 V2 1.941(12) .
C43 H43A 0.9900 .
C43 H43B 0.9900 .
C43 C44 1.53(2) .
C43 C42 1.53(2) .
C6 H6A 0.9900 .
C6 H6B 0.9900 .
C6 C1 1.48(2) .
C17 H17A 0.9800 .
C17 H17B 0.9800 .
C17 H17C 0.9800 .
N58 C77 1.43(2) .
N58 C95 1.278(17) .
N58 V1 2.064(14) .
N58 V2 2.074(15) .
C23 H23 0.9500 .
C68 C71 1.555(18) .
C68 C70 1.524(18) .
C68 C69 1.529(18) .
C33 H33A 0.9800 .
C33 H33B 0.9800 .
C33 H33C 0.9800 .
C71 H71A 0.9800 .
C71 H71B 0.9800 .
C71 H71C 0.9800 .
O5 V1 1.950(12) .
O5 V2 1.910(11) .
N76 C78 1.52(2) .
N76 C83 1.244(18) .
N76 V1 1.993(14) .
N76 V2 2.147(16) .
C94 O10 1.259(17) .
C15 H15A 0.9800 .
C15 H15B 0.9800 .
C15 H15C 0.9800 .
C45 H45 0.9500 .
C79 H79A 0.9900 .
C79 H79B 0.9900 .
C79 C78 1.52(2) .
C79 C80 1.49(2) .
C44 H44A 0.9900 .
C44 H44B 0.9900 .
C44 C39 1.49(2) .
C42 H42A 0.9900 .
C42 H42B 0.9900 .
C16 H16A 0.9800 .
C16 H16B 0.9800 .
C16 H16C 0.9800 .
C70 H70A 0.9800 .
C70 H70B 0.9800 .
C70 H70C 0.9800 .
C77 H77 1.0000 .
C77 C82 1.54(2) .
C77 C78 1.50(2) .
C82 H82A 0.9900 .
C82 H82B 0.9900 .
C82 C81 1.59(2) .
C4 H4A 0.9900 .
C4 H4B 0.9900 .
C4 C3 1.57(2) .
C1 H1 1.0000 .
C1 C2 1.54(2) .
C39 H39 1.0000 .
C39 C40 1.57(2) .
C3 H3A 0.9900 .
C3 H3B 0.9900 .
C3 C2 1.50(2) .
C69 H69A 0.9800 .
C69 H69B 0.9800 .
C69 H69C 0.9800 .
O16 N10 1.283(17) .
C7 H7 0.9500 .
C55 H55A 0.9800 .
C55 H55B 0.9800 .
C55 H55C 0.9800 .
C32 H32A 0.9800 .
C32 H32B 0.9800 .
C32 H32C 0.9800 .
C78 H78 1.0000 .
C2 H2 1.0000 .
C90 C91 1.528(19) .
C90 C92 1.540(19) .
C90 C93 1.55(2) .
C31 H31A 0.9800 .
C31 H31B 0.9800 .
C31 H31C 0.9800 .
C95 H95 0.9500 .
C83 H83 0.9500 .
O18A Mn2A 1.751(11) .
O18A Mn2A 1.751(11) 2_565
N9 O13 1.271(17) .
N10 O15 1.202(18) .
C81 H81A 0.9900 .
C81 H81B 0.9900 .
C81 C80 1.57(3) .
O19 V1 1.68(3) .
C80 H80A 0.9900 .
C80 H80B 0.9900 .
C91 H91A 0.9800 .
C91 H91B 0.9800 .
C91 H91C 0.9800 .
C92 H92A 0.9800 .
C92 H92B 0.9800 .
C92 H92C 0.9800 .
C40 H40 1.0000 .
C93 H93A 0.9800 .
C93 H93B 0.9800 .
C93 H93C 0.9800 .
O17A Mn1A 1.796(15) .
O17A Mn1A 1.796(15) 2_665
C102 C104 1.52(2) .
C102 C103 1.53(2) .
C102 C105 1.544(19) .
O19A V2 1.55(3) .
C104 H10A 0.9800 .
C104 H10B 0.9800 .
C104 H10C 0.9800 .
C103 H10D 0.9800 .
C103 H10E 0.9800 .
C103 H10F 0.9800 .
C105 H10G 0.9800 .
C105 H10H 0.9800 .
C105 H10I 0.9800 .
O10 Cd1 2.396(10) 2_665
C54 H54A 0.9800 .
C54 H54B 0.9800 .
C54 H54C 0.9800 .
loop_
_geom_torsion_atom_site_label_1
_geom_torsion_atom_site_label_2
_geom_torsion_atom_site_label_3
_geom_torsion_atom_site_label_4
_geom_torsion
_geom_torsion_site_symmetry_1
_geom_torsion_site_symmetry_4
Cd1 N3 C20 C19 178.7(13) . .
Cd1 N3 C21 C22 176.4(13) . .
Cd1 O9 C94 C86 -175.6(10) . .
Cd1 O9 C94 O10 2.1(13) . .
Cd1 N4 C37 C38 179.6(6) 1_554 .
Cd1 O12 N9 O11 -9.3(15) . .
Cd1 O12 N9 O13 167.6(13) . .
Cd1 O11 N9 O12 9.4(15) . .
Cd1 O11 N9 O13 -167.4(14) . .
Cd1 C94 O10 Cd1 -167(3) . 2_665
Cd2 O7 C106 O8 1.6(11) . .
Cd2 O7 C106 O8 175(2) 2_565 .
Cd2 O7 C106 C100 -177.9(9) . .
Cd2 O7 C106 C100 -4(3) 2_565 .
Cd2 O8 C106 O7 -1.6(11) . .
Cd2 O8 C106 C100 177.8(10) . .
Cd2 O14 N10 O16 10.0(16) . .
Cd2 O14 N10 O15 -174(2) . .
Cd2 N7 C75 C76 -178.5(11) 1_554 .
Cd2 O16 N10 O14 -10.0(16) . .
Cd2 O16 N10 O15 174.2(18) . .
Mn1 O2 C29 C28 149.8(7) . .
Mn1 O2 C29 C24 -32.2(13) . .
Mn1 N2 C23 C24 12(2) . .
Mn1 N2 C1 C6 139.8(12) . .
Mn1 N2 C1 C2 17.7(15) . .
Mn1 N1 C7 C8 -11(2) . .
Mn1 N1 C2 C1 49.9(14) . .
Mn1 N1 C2 C3 177.2(11) . .
Mn2 O3 C63 C62 18.7(15) . .
Mn2 O3 C63 C64 -163.3(8) . .
Mn2 O4 C51 C50 155.4(12) . .
Mn2 O4 C51 C46 -23(2) . .
Mn2 N6 C45 C46 13(2) . .
Mn2 N6 C40 C41 141.8(12) . .
Mn2 N6 C40 C39 16.5(16) . .
Mn2 N5 C61 C62 -7(2) . .
Mn2 N5 C39 C44 180.0(11) . .
Mn2 N5 C39 C40 52.3(13) . .
N3 C20 C19 C18 4(3) . .
C20 N3 C21 C22 -2(3) . .
C20 C19 C18 C22 1(3) . .
C20 C19 C18 C10 178.3(16) . .
C19 C18 C22 C21 -5(3) . .
C19 C18 C10 C11 148.1(15) . .
C19 C18 C10 C9 -30(2) . .
C18 C22 C21 N3 6(3) . .
C18 C10 C11 C12 -178.6(11) . .
C18 C10 C9 C8 178.6(11) . .
C22 C18 C10 C11 -34.3(18) . .
C22 C18 C10 C9 147.1(13) . .
C21 N3 C20 C19 -3(3) . .
O9 C94 O10 Cd1 -2.0(13) . .
O9 C94 O10 Cd1 -169(2) . 2_665
C100 C101 C96 C97 0.0 . .
C100 C101 C96 C95 -176.5(11) . .
C101 C100 C99 C98 0.0 . .
C101 C100 C106 O7 -5.8(14) . .
C101 C100 C106 O8 174.7(9) . .
C101 C96 C97 C98 0.0 . .
C101 C96 C97 O5 178.6(11) . .
C101 C96 C95 N58 -178.4(14) . .
C96 C97 C98 C99 0.0 . .
C96 C97 C98 C102 178.0(12) . .
C96 C97 O5 V1 -26.1(14) . .
C96 C97 O5 V2 13.1(17) . .
C97 C96 C95 N58 5(2) . .
C97 C98 C99 C100 0.0 . .
C97 C98 C102 C104 60.2(16) . .
C97 C98 C102 C103 -61.1(16) . .
C97 C98 C102 C105 178.1(12) . .
C98 C97 O5 V1 152.5(8) . .
C98 C97 O5 V2 -168.2(9) . .
C99 C100 C101 C96 0.0 . .
C99 C100 C106 O7 176.0(9) . .
C99 C100 C106 O8 -3.4(15) . .
C99 C98 C102 C104 -121.8(12) . .
C99 C98 C102 C103 116.9(12) . .
C99 C98 C102 C105 -3.9(19) . .
O2 C29 C24 C25 -177.9(10) . .
O2 C29 C24 C23 3.8(13) . .
C85 C86 C87 C88 0.0 . .
C85 C86 C94 O9 -175.8(9) . .
C85 C86 C94 O10 6.4(15) . .
C85 C84 C83 N76 178.1(15) . .
C86 C85 C84 C89 0.0 . .
C86 C85 C84 C83 -179.3(11) . .
C86 C87 C88 C89 0.0 . .
C86 C87 C88 C90 -178.8(12) . .
C86 C94 O10 Cd1 9(4) . 2_665
C86 C94 O10 Cd1 175.7(10) . .
C87 C86 C94 O9 4.2(15) . .
C87 C86 C94 O10 -173.6(9) . .
C87 C88 C89 C84 0.0 . .
C87 C88 C89 O6 177.7(12) . .
C87 C88 C90 C91 122.5(12) . .
C87 C88 C90 C92 0.4(18) . .
C87 C88 C90 C93 -113.1(11) . .
C88 C89 C84 C85 0.0 . .
C88 C89 C84 C83 179.2(12) . .
C88 C89 O6 V1 -166.8(9) . .
C88 C89 O6 V2 152.9(9) . .
C89 C88 C90 C91 -56.3(16) . .
C89 C88 C90 C92 -178.4(11) . .
C89 C88 C90 C93 68.0(14) . .
C89 C84 C83 N76 -1(2) . .
C84 C85 C86 C87 0.0 . .
C84 C85 C86 C94 -180.0(10) . .
C84 C89 O6 V1 10.9(17) . .
C84 C89 O6 V2 -29.4(17) . .
C10 C18 C22 C21 176.7(15) . .
C10 C11 C12 C13 0.0 . .
C10 C11 C12 C14 175.1(11) . .
C11 C10 C9 C8 0.0 . .
C11 C12 C13 C8 0.0 . .
C11 C12 C13 O1 -178.4(11) . .
C11 C12 C14 C17 -122.1(11) . .
C11 C12 C14 C15 2.5(16) . .
C11 C12 C14 C16 116.7(11) . .
C12 C13 C8 C9 0.0 . .
C12 C13 C8 C7 -176.2(12) . .
C12 C13 O1 Mn1 -169.8(7) . .
C12 C13 O1 Mn1A 137.3(10) . .
C13 C12 C14 C17 53.0(14) . .
C13 C12 C14 C15 177.6(10) . .
C13 C12 C14 C16 -68.1(13) . .
C13 C8 C9 C10 0.0 . .
C13 C8 C7 N1 -2(2) . .
C13 O1 Mn1A O2 -172.0(11) . .
C13 O1 Mn1A N2 98.4(17) . .
C13 O1 Mn1A N1 50.5(13) . .
C13 O1 Mn1A O17A -64.8(17) . .
C8 C13 O1 Mn1 11.8(15) . .
C8 C13 O1 Mn1A -41.1(15) . .
C9 C10 C11 C12 0.0 . .
C9 C8 C7 N1 -178.2(12) . .
C59 C60 C56 C57 0.0 . .
C59 C60 C56 C48 -176.7(10) . .
C60 C59 N8 Cd2 -177.8(6) . .
C60 C59 N8 C58 0.0 . .
C60 C56 C57 C58 0.0 . .
C60 C56 C48 C49 28.4(17) . .
C60 C56 C48 C47 -147.0(14) . .
C56 C57 C58 N8 0.0 . .
C56 C48 C49 C50 178.7(13) . .
C56 C48 C47 C46 177.8(14) . .
C57 C56 C48 C49 -148.3(11) . .
C57 C56 C48 C47 36.2(18) . .
C57 C58 N8 Cd2 177.9(6) . .
C57 C58 N8 C59 0.0 . .
N8 C59 C60 C56 0.0 . .
O4 C51 C46 C47 179.9(16) . .
O4 C51 C46 C45 -4(3) . .
O1 C13 C8 C9 178.4(10) . .
O1 C13 C8 C7 2.3(13) . .
N2 C1 C2 N1 -42.4(16) . .
N2 C1 C2 C3 -170.7(13) . .
N5 C39 C40 N6 -42.2(16) . .
N5 C39 C40 C41 -173.1(13) . .
C38 C34 C35 C36 0.0 . .
C38 C34 C26 C27 29.5(10) . .
C38 C34 C26 C25 -153.7(6) . .
C34 C38 C37 N4 0.0 . .
C34 C35 C36 N4 0.0 . .
C34 C26 C27 C28 176.8(9) . .
C34 C26 C25 C24 -176.9(9) . .
C35 C34 C26 C27 -144.0(6) . .
C35 C34 C26 C25 32.8(9) . .
C35 C36 N4 Cd1 -179.7(6) . 1_554
C35 C36 N4 C37 0.0 . .
C36 N4 C37 C38 0.0 . .
C37 C38 C34 C35 0.0 . .
C37 C38 C34 C26 -173.6(8) . .
C48 C56 C57 C58 176.8(10) . .
C48 C49 C50 C51 6(2) . .
C48 C49 C50 C52 -174.2(14) . .
C49 C48 C47 C46 2(3) . .
C49 C50 C51 O4 177.2(14) . .
C49 C50 C51 C46 -4(2) . .
C49 C50 C52 C53 -1(2) . .
C49 C50 C52 C55 -118.6(16) . .
C49 C50 C52 C54 120.6(16) . .
C50 C51 C46 C47 1(3) . .
C50 C51 C46 C45 177.3(15) . .
C51 O4 Mn2A O3 -179.5(15) . .
C51 O4 Mn2A N6 -32.9(16) . .
C51 O4 Mn2A N5 -92.7(17) . .
C51 O4 Mn2A O18A 75.1(18) . .
C51 C50 C52 C53 178.7(16) . .
C51 C50 C52 C55 61(2) . .
C51 C50 C52 C54 -60(2) . .
C51 C46 C47 C48 0(3) . .
C51 C46 C45 N6 8(3) . .
C47 C48 C49 C50 -6(2) . .
C47 C46 C45 N6 -175.8(17) . .
C26 C34 C35 C36 173.3(9) . .
C26 C27 C28 C29 0.0 . .
C26 C27 C28 C30 -176.1(10) . .
C27 C26 C25 C24 0.0 . .
C27 C28 C29 O2 178.0(10) . .
C27 C28 C29 C24 0.0 . .
C27 C28 C30 C33 -0.1(15) . .
C27 C28 C30 C32 -120.7(10) . .
C27 C28 C30 C31 120.2(10) . .
C28 C29 C24 C25 0.0 . .
C28 C29 C24 C23 -178.3(12) . .
C29 O2 Mn1A O1 -173.0(13) . .
C29 O2 Mn1A N2 -27.3(14) . .
C29 O2 Mn1A N1 -79.0(17) . .
C29 O2 Mn1A O17A 78.0(17) . .
C29 C28 C30 C33 -176.1(10) . .
C29 C28 C30 C32 63.3(13) . .
C29 C28 C30 C31 -55.8(14) . .
C29 C24 C25 C26 0.0 . .
C29 C24 C23 N2 6(2) . .
C25 C26 C27 C28 0.0 . .
C25 C24 C23 N2 -172.7(12) . .
C14 C12 C13 C8 -175.1(11) . .
C14 C12 C13 O1 6.5(12) . .
C62 C67 C66 C65 0.0 . .
C62 C67 C66 C72 175.4(10) . .
C67 C62 C63 O3 178.0(11) . .
C67 C62 C63 C64 0.0 . .
C67 C62 C61 N5 177.3(13) . .
C67 C66 C65 C64 0.0 . .
C67 C66 C72 C76 163.0(11) . .
C67 C66 C72 C73 -20.8(17) . .
C66 C65 C64 C63 0.0 . .
C66 C65 C64 C68 174.5(11) . .
C66 C72 C73 C74 -172.4(13) . .
C65 C66 C72 C76 -21.6(16) . .
C65 C66 C72 C73 154.6(12) . .
C65 C64 C63 O3 -178.0(11) . .
C65 C64 C63 C62 0.0 . .
C65 C64 C68 C71 -3.2(15) . .
C65 C64 C68 C70 -123.3(11) . .
C65 C64 C68 C69 112.4(11) . .
C63 O3 Mn2A O4 -174.2(12) . .
C63 O3 Mn2A N6 91.3(17) . .
C63 O3 Mn2A N5 45.8(13) . .
C63 O3 Mn2A O18A -63.6(15) . .
C63 C62 C67 C66 0.0 . .
C63 C62 C61 N5 0(2) . .
C63 C64 C68 C71 171.2(10) . .
C63 C64 C68 C70 51.2(13) . .
C63 C64 C68 C69 -73.1(13) . .
C106 C100 C101 C96 -178.2(9) . .
C106 C100 C99 C98 178.2(9) . .
C5 C6 C1 N2 178.1(14) . .
C5 C6 C1 C2 -60.0(18) . .
C5 C4 C3 C2 50.1(19) . .
C61 N5 C39 C44 -11(2) . .
C61 N5 C39 C40 -138.6(14) . .
C61 C62 C67 C66 -177.5(10) . .
C61 C62 C63 O3 -4.6(13) . .
C61 C62 C63 C64 177.4(11) . .
C30 C28 C29 O2 -6.2(12) . .
C30 C28 C29 C24 175.8(11) . .
C76 C72 C73 C74 4(2) . .
C72 C66 C65 C64 -175.4(10) . .
C72 C76 C75 N7 2(2) . .
C72 C73 C74 N7 -2(2) . .
C73 C74 N7 Cd2 178.7(11) . 1_554
C73 C74 N7 C75 0(2) . .
C74 N7 C75 C76 0(2) . .
C75 C76 C72 C66 172.6(13) . .
C75 C76 C72 C73 -4(2) . .
C52 C50 C51 O4 -2(3) . .
C52 C50 C51 C46 176.5(15) . .
O6 C89 C84 C85 -177.7(12) . .
O6 C89 C84 C83 1.5(14) . .
C43 C44 C39 N5 -177.3(13) . .
C43 C44 C39 C40 -54.1(18) . .
C6 C5 C4 C3 -52.1(19) . .
C6 C1 C2 N1 -171.9(12) . .
C6 C1 C2 C3 59.8(18) . .
N58 C77 C82 C81 175.9(17) . .
N58 C77 C78 N76 -45(2) . .
N58 C77 C78 C79 -170.2(15) . .
C23 N2 C1 C6 -33(2) . .
C23 N2 C1 C2 -155.5(13) . .
C23 C24 C25 C26 178.4(11) . .
C68 C64 C63 O3 7.5(11) . .
C68 C64 C63 C62 -174.5(10) . .
O5 C97 C98 C99 -178.7(11) . .
O5 C97 C98 C102 -0.7(13) . .
C94 C86 C87 C88 180.0(10) . .
C45 N6 C40 C41 -29(2) . .
C45 N6 C40 C39 -154.7(15) . .
C45 C46 C47 C48 -176.5(16) . .
C44 C43 C42 C41 -58.7(19) . .
C44 C39 C40 N6 -173.7(14) . .
C44 C39 C40 C41 55.4(18) . .
C42 C41 C40 N6 178.5(14) . .
C42 C41 C40 C39 -56.8(18) . .
C42 C43 C44 C39 55.9(18) . .
C77 N58 C95 C96 -177.9(16) . .
C77 C82 C81 C80 57(2) . .
C82 C77 C78 N76 -173.3(13) . .
C82 C77 C78 C79 62(2) . .
C82 C81 C80 C79 -56(3) . .
C4 C5 C6 C1 58.6(19) . .
C4 C3 C2 N1 -177.7(13) . .
C4 C3 C2 C1 -54.2(18) . .
C1 N2 C23 C24 -175.6(13) . .
C39 N5 C61 C62 -174.1(13) . .
C7 C8 C9 C10 176.5(10) . .
C7 N1 C2 C1 -140.5(14) . .
C7 N1 C2 C3 -13(2) . .
C78 N76 C83 C84 -173.9(15) . .
C78 C79 C80 C81 57(3) . .
C78 C77 C82 C81 -60(2) . .
C2 N1 C7 C8 -178.4(13) . .
C90 C88 C89 C84 178.8(12) . .
C90 C88 C89 O6 -3.5(13) . .
C95 C96 C97 C98 176.3(12) . .
C95 C96 C97 O5 -5.1(13) . .
C95 N58 C77 C82 -13(3) . .
C95 N58 C77 C78 -137.3(18) . .
C83 N76 C78 C79 -23(3) . .
C83 N76 C78 C77 -145.7(17) . .
Mn2A O3 C63 C62 -31.8(16) . .
Mn2A O3 C63 C64 146.2(9) . .
Mn2A O4 C51 C50 -155.7(13) . .
Mn2A O4 C51 C46 26(3) . .
Mn2A N6 C45 C46 -25(2) . .
Mn2A N6 C40 C41 177.3(12) . .
Mn2A N6 C40 C39 52.1(15) . .
Mn2A N5 C61 C62 28(2) . .
Mn2A N5 C39 C44 146.3(12) . .
Mn2A N5 C39 C40 18.6(15) . .
C80 C79 C78 N76 -180.0(18) . .
C80 C79 C78 C77 -60(2) . .
C40 N6 C45 C46 -177.1(16) . .
C40 C41 C42 C43 59.4(19) . .
C102 C98 C99 C100 -178.0(12) . .
V1 N58 C77 C82 147.4(14) . .
V1 N58 C77 C78 23(2) . .
V1 N58 C95 C96 22(2) . .
V1 N76 C78 C79 171.4(15) . .
V1 N76 C78 C77 48.7(17) . .
V1 N76 C83 C84 -11(3) . .
V2 N58 C77 C82 178.7(14) . .
V2 N58 C77 C78 54.2(19) . .
V2 N58 C95 C96 -11(2) . .
V2 N76 C78 C79 141.0(15) . .
V2 N76 C78 C77 18.3(18) . .
V2 N76 C83 C84 23(2) . .
Mn1A O2 C29 C28 -161.5(10) . .
Mn1A O2 C29 C24 16.4(17) . .
Mn1A N2 C23 C24 -26(2) . .
Mn1A N2 C1 C6 175.1(12) . .
Mn1A N2 C1 C2 53.0(14) . .
Mn1A N1 C7 C8 23.3(19) . .
Mn1A N1 C2 C1 16.4(16) . .
Mn1A N1 C2 C3 143.6(12) . .
Mn1A O17A Mn1A O2 -36.6(6) 2_665 .
Mn1A O17A Mn1A O1 -139.5(7) 2_665 .
Mn1A O17A Mn1A N2 50.3(6) 2_665 .
Mn1A O17A Mn1A N1 126.4(9) 2_665 .
