#------------------------------------------------------------------------------
#$Date: 2017-08-10 04:18:16 +0300 (Thu, 10 Aug 2017) $
#$Revision: 199688 $
#$URL: file:///home/coder/svn-repositories/cod/cif/7/12/05/7120532.cif $
#------------------------------------------------------------------------------
#
# This file is available in the Crystallography Open Database (COD),
# http://www.crystallography.net/
#
# All data on this site have been placed in the public domain by the
# contributors.
#
data_7120532
loop_
_publ_author_name
'Zhang, Chen'
'Sikligar, Kanishka'
'Patil, Rahul S.'
'Barnes, Charles L.'
'Teat, Simon'
'Atwood, Jerry L.'
_publ_section_title
;
 Self-assembly of M7L2 Metal-Organic Nanocapsules Using Mixed Macrocycles
;
_journal_name_full               'Chem. Commun.'
_journal_paper_doi               10.1039/C7CC06099H
_journal_year                    2017
_chemical_formula_moiety         'C129 H125 Co7 N10 O31'
_chemical_formula_sum            'C129 H125 Co7 N10 O31'
_chemical_formula_weight         2723.89
_chemical_name_common            'P3R1C4, Co, py, NO3'
_chemical_name_systematic
'C-butylpyrogallol[3]resorcin[1]arene, cobalt, pyridine, nitrate'
_space_group_crystal_system      monoclinic
_space_group_IT_number           15
_space_group_name_Hall           '-C 2yc'
_space_group_name_H-M_alt        'C 1 2/c 1'
_symmetry_space_group_name_Hall  '-C 2yc'
_symmetry_space_group_name_H-M   'C 1 2/c 1'
_atom_sites_solution_hydrogens   geom
_audit_creation_method           SHELXL-2014/7
_audit_update_record
;
2017-07-27 deposited with the CCDC.
2017-08-09 downloaded from the CCDC.
;
_cell_angle_alpha                90
_cell_angle_beta                 93.26(2)
_cell_angle_gamma                90
_cell_formula_units_Z            4
_cell_length_a                   29.060(7)
_cell_length_b                   25.535(6)
_cell_length_c                   17.029(5)
_cell_measurement_reflns_used    9987
_cell_measurement_temperature    100(2)
_cell_measurement_theta_max      66.22
_cell_measurement_theta_min      2.30
_cell_volume                     12616(6)
_computing_cell_refinement       'APEX2 (Bruker AXS, 2008)'
_computing_data_collection       'APEX2 (Bruker AXS, 2008)'
_computing_data_reduction        'APEX2 (Bruker AXS, 2008)'
_computing_molecular_graphics    'X-SEED, Barbour, 2001'
_computing_publication_material  'CIFTAB (Sheldrick, 2013)'
_computing_structure_refinement  'SHELXL-2013 (Sheldrick, 2013)'
_computing_structure_solution    'SHELXS-2013 (Sheldrick, 2013)'
_diffrn_ambient_temperature      100(2)
_diffrn_measured_fraction_theta_full 0.967
_diffrn_measured_fraction_theta_max 0.967
_diffrn_measurement_device_type  'Bruker APEXII CCD area detector'
_diffrn_measurement_method       'omega scans'
_diffrn_radiation_type           CuK\a
_diffrn_radiation_wavelength     1.54184
_diffrn_reflns_av_R_equivalents  0.1606
_diffrn_reflns_av_unetI/netI     0.1371
_diffrn_reflns_Laue_measured_fraction_full 0.967
_diffrn_reflns_Laue_measured_fraction_max 0.967
_diffrn_reflns_limit_h_max       34
_diffrn_reflns_limit_h_min       -33
_diffrn_reflns_limit_k_max       30
_diffrn_reflns_limit_k_min       -28
_diffrn_reflns_limit_l_max       20
_diffrn_reflns_limit_l_min       -20
_diffrn_reflns_number            56908
_diffrn_reflns_point_group_measured_fraction_full 0.967
_diffrn_reflns_point_group_measured_fraction_max 0.967
_diffrn_reflns_theta_full        66.882
_diffrn_reflns_theta_max         66.882
_diffrn_reflns_theta_min         2.305
_diffrn_standards_decay_%        0.0
_exptl_absorpt_coefficient_mu    7.693
_exptl_absorpt_correction_T_max  0.308
_exptl_absorpt_correction_T_min  0.093
_exptl_absorpt_correction_type   multi-scan
_exptl_absorpt_process_details
;
 Data were corrected for decay and absorption using the program SADABS 
 (Sheldrick, G. M. (2003). SADABS. Version 2.10. University of
 G\"ottingen, Germany).
;
_exptl_crystal_colour            purple
_exptl_crystal_density_diffrn    1.434
_exptl_crystal_description       block
_exptl_crystal_F_000             5624
_exptl_crystal_size_max          0.500
_exptl_crystal_size_mid          0.300
_exptl_crystal_size_min          0.200
_refine_diff_density_max         1.626
_refine_diff_density_min         -0.848
_refine_diff_density_rms         0.156
_refine_ls_extinction_method     none
_refine_ls_goodness_of_fit_ref   1.464
_refine_ls_hydrogen_treatment    constr
_refine_ls_matrix_type           full
_refine_ls_number_parameters     700
_refine_ls_number_reflns         10849
_refine_ls_number_restraints     42
_refine_ls_restrained_S_all      1.471
_refine_ls_R_factor_all          0.2504
_refine_ls_R_factor_gt           0.1639
_refine_ls_shift/su_max          0.001
_refine_ls_shift/su_mean         0.000
_refine_ls_structure_factor_coef Fsqd
_refine_ls_weighting_details
'w=1/[\s^2^(Fo^2^)+(0.2000P)^2^] where P=(Fo^2^+2Fc^2^)/3'
_refine_ls_weighting_scheme      calc
_refine_ls_wR_factor_gt          0.3985
_refine_ls_wR_factor_ref         0.4444
_reflns_Friedel_coverage         0.000
_reflns_number_gt                5783
_reflns_number_total             10849
_reflns_threshold_expression     'I > 2\s(I)'
_cod_data_source_file            c7cc06099h2.cif
_cod_data_source_block           1
_cod_original_cell_volume        12616(5)
_cod_database_code               7120532
_shelx_shelxl_version_number     2014/7
_shelx_space_group_comment
;
The symmetry employed for this shelxl refinement is uniquely defined
by the following loop, which should always be used as a source of
symmetry information in preference to the above space-group names.
They are only intended as comments.
;
_shelx_estimated_absorpt_t_min   0.114
_shelx_estimated_absorpt_t_max   0.308
_shelx_res_file
;

    C:\Users\ZHANGCHE\Dropbox\RESEAR~1\X-ray\Co7L2\WORK3C~1\BACKUP~3\1.res created by SHELXL-2014/7

TITL ZC012909mmC4Co_0m_a.res in C2/c
CELL 1.54184 29.0596 25.5353 17.0286 90.000 93.264 90.000
ZERR 4.0000 0.0067 0.0058 0.0045 0.000 0.023 0.000
LATT 7
SYMM -X, Y, 0.5-Z
SFAC C H CO N O
UNIT 516 500 28 40 124
MERG 2
FMAP 2
GRID
PLAN 30
TEMP -173
SIZE 0.2 0.3 0.5
BOND $H
CONF
DFIX 1.40 0.03 N2P C6P
DFIX 1.40 0.03 C6p C7p
DFIX 1.40 0.03 C7p C8p
DFIX 1.40 0.03 C8p C9p
DFIX 1.40 0.03 C9p C10p
DFIX 1.40 0.03 C10p N2P
DANG 2.45 0.06 N2P C7p
DANG 2.45 0.06 C6p C8p
DANG 2.45 0.06 C7p C9p
DANG 2.45 0.06 C8p C10p
DANG 2.45 0.06 C9p N2P
DANG 2.45 0.06 C10p C6p
FLAT N2P C6p C7P C8P C9P C10P
DFIX 1.54 0.04 C29 C30 C30 C31 C31 C32
DANG 2.54 0.06 C7 C30 C29 C31 C30 C32
DFIX 1.54 0.04 C33 C34 C34 C35 C35 C36
DANG 2.54 0.06 C14 C34 C33 C35 C34 C36
DFIX 1.54 0.04 C37 C38 C38 C39 C39 C40
DANG 2.54 0.06 C21 C38 C37 C39 C38 C40
DFIX 1.54 0.04 C41 C42 C42 C43 C43 C44
DANG 2.54 0.06 C28 C42 C41 C43 C42 C44
DFIX 1.40 0.03 C19p C20p
DFIX 1.40 0.03 C20p C21p
DANG 2.45 0.06 C19p C21p
FLAT C19p C20P C21P
ABIN
L.S. 15
ACTA
WGHT    0.200000
FVAR       0.07780
CO2   3    0.413011    0.587107    0.100504    11.00000    0.04590    0.04478 =
         0.09302   -0.01849    0.06099   -0.02042
CO1   3    0.500000    0.532584    0.250000    10.50000    0.05208    0.02647 =
         0.12893    0.00000    0.07983    0.00000
CO3   3    0.373494    0.719149    0.031802    11.00000    0.05258    0.06040 =
         0.06186   -0.00901    0.04417   -0.01186
CO4   3    0.391922    0.861454    0.062958    11.00000    0.08292    0.05213 =
         0.07046    0.00899    0.05804    0.00080
O5    5    0.585922    0.657167    0.456681    11.00000    0.04121    0.04737 =
         0.06581    0.01065    0.04705    0.01059
O6    5    0.524703    0.578863    0.450062    11.00000    0.05146
O9    5    0.360354    0.612490    0.167512    11.00000    0.04478    0.04637 =
         0.08756   -0.01554    0.05660   -0.02198
O3    5    0.549116    0.834916    0.479056    11.00000    0.04162    0.04819 =
         0.06701   -0.00876    0.03844    0.01115
O4    5    0.570014    0.747350    0.526992    11.00000    0.03364    0.07076 =
         0.04477    0.00815    0.03248    0.01481
O7    5    0.468668    0.543884    0.356547    11.00000    0.06067    0.03479 =
         0.11662    0.01256    0.07380    0.01192
O12   5    0.384873    0.865977    0.188512    11.00000    0.07397    0.03608 =
         0.06411    0.01466    0.04462   -0.00045
O10   5    0.333475    0.696673    0.124484    11.00000    0.04699    0.05794 =
         0.07256   -0.01238    0.05035   -0.00989
O11   5    0.371129    0.786691    0.086728    11.00000    0.06749    0.06727 =
         0.05254   -0.00362    0.04786   -0.00939
O8    5    0.440016    0.562427    0.205798    11.00000    0.06230    0.03769 =
         0.08932   -0.01861    0.06596   -0.01653
O1    5    0.439450    0.909290    0.292794    11.00000    0.12019    0.05632 =
         0.05426    0.01419    0.02435   -0.01426
N3P   4    0.366870    0.555084    0.016757    11.00000    0.06225
O2N   5    0.320809    0.889256    0.039338    11.00000    0.08332    0.12776 =
         0.07749    0.01890    0.05675    0.03135
O3N   5    0.355831    0.854839   -0.054661    11.00000    0.07802    0.09595 =
         0.08495   -0.00394    0.04868    0.00245
C10   1    0.533270    0.713404    0.517577    11.00000    0.03414    0.05307 =
         0.05266    0.01314    0.03658    0.00181
C26   1    0.365485    0.820590    0.215864    11.00000    0.04212    0.03866 =
         0.04993    0.00235    0.03647    0.00498
N4P   4    0.500000    0.452416    0.250000    10.50000    0.08942    0.04616 =
         0.06832    0.00000    0.07046    0.00000
C18   1    0.415603    0.580789    0.268007    11.00000    0.05763
C16   1    0.408774    0.598977    0.403780    11.00000    0.04968
C2    1    0.413089    0.851871    0.390012    11.00000    0.06297    0.02784 =
         0.04548   -0.00646    0.01876    0.02301
C3    1    0.448072    0.878425    0.357746    11.00000    0.06305    0.03748 =
         0.05330    0.00455    0.02890   -0.00150
N1P   4    0.410626    0.939236    0.048569    11.00000    0.09391    0.06131 =
         0.06320    0.00978    0.04843    0.00513
C25   1    0.358720    0.780473    0.161884    11.00000    0.04844
C11   1    0.543877    0.665570    0.486688    11.00000    0.04523    0.04203 =
         0.04961    0.00972    0.03242    0.01238
C22   1    0.336460    0.765090    0.313521    11.00000    0.05333    0.05122 =
         0.06561    0.00762    0.04745    0.03065
AFIX  43
H22   2    0.328312    0.760006    0.366223    11.00000   -1.20000
AFIX   0
C17   1    0.431258    0.574965    0.344040    11.00000    0.05339
C15P  1    0.382151    0.534944   -0.049937    11.00000    0.05812    0.03014 =
         0.06901    0.00244    0.05111    0.01259
AFIX  43
H15P  2    0.414460    0.531437   -0.054195    11.00000   -1.20000
AFIX   0
C23   1    0.330123    0.724129    0.261255    11.00000    0.03756    0.04477 =
         0.06073    0.00191    0.03906    0.00637
C9    1    0.489344    0.725566    0.537854    11.00000    0.07183    0.04040 =
         0.03682    0.00818    0.03630    0.00699
C20   1    0.353023    0.634012    0.306069    11.00000    0.05007
C1    1    0.423395    0.821245    0.455833    11.00000    0.07085    0.03605 =
         0.04711    0.00275    0.05305    0.01211
AFIX  43
H1    2    0.399139    0.803155    0.479333    11.00000   -1.20000
AFIX   0
N2P   4    0.328764    0.709275   -0.057066    11.00000    0.03063    0.09421 =
         0.07721   -0.00018    0.03972   -0.01081
C19   1    0.375890    0.609379    0.247604    11.00000    0.04432    0.04765 =
         0.07372    0.00706    0.04684   -0.01839
C6    1    0.469515    0.815967    0.489646    11.00000    0.05035    0.04053 =
         0.04395   -0.00072    0.02921    0.01689
C7    1    0.478894    0.780498    0.562051    11.00000    0.05621    0.04960 =
         0.05244   -0.00292    0.04416    0.01493
AFIX  13
H7    2    0.507579    0.794170    0.590131    11.00000   -1.20000
AFIX   0
C12   1    0.510310    0.626732    0.480322    11.00000    0.04564
C18P  1    0.522671    0.424938    0.195621    11.00000    0.09596    0.05197 =
         0.05059    0.01050    0.03901    0.02467
AFIX  43
H18P  2    0.538889    0.443467    0.157488    11.00000   -1.20000
AFIX   0
C14   1    0.429823    0.594903    0.488952    11.00000    0.05862    0.03412 =
         0.08997    0.01873    0.06686    0.01011
AFIX  13
H14   2    0.446253    0.560525    0.493282    11.00000   -1.20000
AFIX   0
C27   1    0.354521    0.814409    0.292577    11.00000    0.05310    0.03907 =
         0.05757    0.01089    0.03556    0.03054
C21   1    0.311041    0.671274    0.285127    11.00000    0.04243    0.06746 =
         0.06948    0.01564    0.04199   -0.00329
AFIX  13
H21   2    0.295236    0.656400    0.236410    11.00000   -1.20000
AFIX   0
C15   1    0.370252    0.629191    0.382695    11.00000    0.03004    0.04584 =
         0.09091   -0.00001    0.04815   -0.00923
AFIX  43
H15   2    0.355219    0.647231    0.422762    11.00000   -1.20000
AFIX   0
C13   1    0.464805    0.635708    0.500940    11.00000    0.05160    0.04151 =
         0.06275    0.01194    0.04958    0.01449
C5    1    0.504731    0.840926    0.454158    11.00000    0.04841    0.03877 =
         0.05867   -0.00841    0.03596    0.00838
C24   1    0.340765    0.733072    0.183011    11.00000    0.04010    0.04958 =
         0.07110   -0.00553    0.04597   -0.00291
C8    1    0.456547    0.686101    0.527275    11.00000    0.05646    0.06380 =
         0.04359    0.01030    0.04423    0.01372
AFIX  43
H8    2    0.425829    0.694371    0.539108    11.00000   -1.20000
AFIX   0
C28   1    0.363901    0.856839    0.355839    11.00000    0.07885    0.03444 =
         0.05429    0.00125    0.02672    0.02659
AFIX  13
H28   2    0.362452    0.891046    0.327215    11.00000   -1.20000
AFIX   0
N1N   4    0.320232    0.870897   -0.030165    11.00000    0.07355    0.11007 =
         0.10203    0.01772    0.05919    0.02261
C29   1    0.440293    0.783436    0.621869    11.00000    0.04461    0.08026 =
         0.04885    0.00260    0.03057    0.03666
AFIX  23
H29A  2    0.410477    0.773654    0.594802    11.00000   -1.20000
H29B  2    0.447061    0.757733    0.664496    11.00000   -1.20000
AFIX   0
C1P   1    0.429966    0.954023   -0.016904    11.00000    0.09129    0.06168 =
         0.05677    0.01662    0.04371    0.00275
AFIX  43
H1P   2    0.433041    0.928696   -0.057132    11.00000   -1.20000
AFIX   0
C14P  1    0.353334    0.519212   -0.112139    11.00000    0.08311    0.07203 =
         0.05915   -0.00452    0.04369    0.01478
AFIX  43
H14P  2    0.365094    0.501049   -0.155370    11.00000   -1.20000
AFIX   0
O5N   5    0.500000    0.971210    0.250000    10.50000    0.16578    0.13814 =
         0.18378    0.00000    0.10364    0.00000
C4    1    0.493401    0.872778    0.386327    11.00000    0.08697    0.03477 =
         0.06667   -0.01667    0.05392   -0.01826
AFIX  43
H4    2    0.517259    0.890186    0.360739    11.00000   -1.20000
AFIX   0
C37   1    0.275268    0.672852    0.345138    11.00000    0.05746    0.06671 =
         0.08791    0.00292    0.05029    0.01719
AFIX  23
H37A  2    0.262832    0.637011    0.350454    11.00000   -1.20000
H37B  2    0.290813    0.682338    0.396409    11.00000   -1.20000
AFIX   0
O1N   5    0.284844    0.876471   -0.074908    11.00000    0.09149    0.17411 =
         0.11322    0.00599    0.00039    0.01044
C41   1    0.327030    0.859728    0.415738    11.00000    0.07666    0.06554 =
         0.06313   -0.00482    0.03802    0.03756
AFIX  23
H41A  2    0.322760    0.824403    0.438148    11.00000   -1.20000
H41B  2    0.337957    0.883141    0.459234    11.00000   -1.20000
AFIX   0
C2P   1    0.445567    1.003394   -0.029388    11.00000    0.11693    0.06652 =
         0.07434    0.02294    0.04605    0.00917
AFIX  43
H2P   2    0.461970    1.011145   -0.074659    11.00000   -1.20000
AFIX   0
C17P  1    0.522735    0.371689    0.194401    11.00000    0.12895    0.03448 =
         0.04670    0.00249    0.01955    0.03250
AFIX  43
H17P  2    0.538469    0.353633    0.155177    11.00000   -1.20000
AFIX   0
C33   1    0.391845    0.593595    0.548188    11.00000    0.06951    0.07826 =
         0.11531    0.04334    0.06077    0.03233
AFIX  23
H33A  2    0.380968    0.629808    0.556494    11.00000   -1.20000
H33B  2    0.365454    0.573155    0.525159    11.00000   -1.20000
AFIX   0
O4N   5    0.532098    1.044920    0.214277    11.00000    0.27181    0.12278 =
         0.13260    0.00660    0.08487   -0.07417
C16P  1    0.500000    0.343636    0.250000    10.50000    0.18567    0.03904 =
         0.05545    0.00000    0.01763    0.00000
AFIX  43
H16P  2    0.500001    0.306432    0.250000    10.50000   -1.20000
AFIX   0
N2N   4    0.500000    1.021853    0.250000    10.50000    0.16578    0.05455 =
         0.10761    0.00000    0.04703    0.00000
C30   1    0.436083    0.836594    0.656994    11.00000    0.15468    0.08868 =
         0.09178   -0.01067    0.06202    0.05121
AFIX  23
H30A  2    0.425923    0.861510    0.614966    11.00000   -1.20000
H30B  2    0.466837    0.847994    0.678481    11.00000   -1.20000
AFIX   0
C3P   1    0.437192    1.042267    0.024913    11.00000    0.09104    0.05723 =
         0.06923    0.01472    0.01868   -0.00741
AFIX  43
H3P   2    0.443299    1.078090    0.014629    11.00000   -1.20000
AFIX   0
C13P  1    0.307001    0.530308   -0.110585    11.00000    0.09003    0.09930 =
         0.09550   -0.00983    0.06407    0.01772
AFIX  43
H13P  2    0.286271    0.524789   -0.154985    11.00000   -1.20000
AFIX   0
C34   1    0.405398    0.572362    0.619729    11.00000    0.21168    0.10095 =
         0.15343    0.07345    0.15933    0.04196
AFIX  23
H34A  2    0.432716    0.591881    0.641279    11.00000   -1.20000
H34B  2    0.415161    0.535749    0.611243    11.00000   -1.20000
AFIX   0
C5P   1    0.408542    0.976451    0.105160    11.00000    0.17411    0.05554 =
         0.09505    0.03689    0.07490    0.02960
AFIX  43
H5P   2    0.398653    0.966229    0.155126    11.00000   -1.20000
AFIX   0
C11P  1    0.321424    0.561714    0.021491    11.00000    0.03038    0.17859 =
         0.15595   -0.10568    0.02915   -0.05566
AFIX  43
H11P  2    0.309320    0.574697    0.068357    11.00000   -1.20000
AFIX   0
C12P  1    0.292822    0.549526   -0.042043    11.00000    0.07403    0.16470 =
         0.18435   -0.07328    0.08648   -0.00964
AFIX  43
H12P  2    0.260703    0.554902   -0.037899    11.00000   -1.20000
AFIX   0
C4P   1    0.419539    1.026344    0.094656    11.00000    0.20736    0.06640 =
         0.06249    0.00651    0.05630    0.01902
AFIX  43
H4P   2    0.415258    1.051136    0.135191    11.00000   -1.20000
AFIX   0
C7P   1    0.251012    0.687505   -0.105233    11.00000    0.24419    0.30445 =
         0.16062    0.14918   -0.08963   -0.17719
AFIX  43
H7P   2    0.220974    0.677380   -0.091942    11.00000   -1.20000
AFIX   0
C35   1    0.368334    0.572334    0.682917    11.00000   10.25000
AFIX  23
H35A  2    0.383523    0.565510    0.735437    11.00000   -1.20000
H35B  2    0.353542    0.607223    0.684266    11.00000   -1.20000
AFIX   0
C8P   1    0.261552    0.692929   -0.178505    11.00000    0.05973    0.20806 =
         0.16665   -0.05656   -0.01902    0.00387
AFIX  43
H8P   2    0.238587    0.690514   -0.220339    11.00000   -1.20000
AFIX   0
C31   1    0.402301    0.839047    0.722349    11.00000    0.15079    0.15248 =
         0.12828   -0.02248    0.07526    0.03063
AFIX  23
H31A  2    0.392882    0.875923    0.729472    11.00000   -1.20000
H31B  2    0.374356    0.818802    0.705795    11.00000   -1.20000
AFIX   0
C42   1    0.283161    0.878523    0.383563    11.00000   10.25000
AFIX  23
H42A  2    0.271372    0.854713    0.341166    11.00000   -1.20000
H42B  2    0.287055    0.913720    0.360486    11.00000   -1.20000
AFIX   0
C32   1    0.419457    0.820346    0.791640    11.00000   10.25000
AFIX  33
H32A  2    0.396062    0.823106    0.830673    11.00000   -1.50000
H32B  2    0.428143    0.783547    0.785566    11.00000   -1.50000
H32C  2    0.446691    0.840733    0.809270    11.00000   -1.50000
AFIX   0
C6P   1    0.286120    0.697338   -0.047392    11.00000    0.11853    0.20042 =
         0.15338    0.05366    0.03853   -0.01532
AFIX  43
H6P   2    0.277623    0.694964    0.005542    11.00000   -1.20000
AFIX   0
C38   1    0.236333    0.708519    0.330416    11.00000    0.11799    0.25611 =
         0.20284    0.06904    0.13480    0.04382
AFIX  23
H38A  2    0.220118    0.698522    0.279932    11.00000   -1.20000
H38B  2    0.248628    0.744324    0.323972    11.00000   -1.20000
AFIX   0
C36   1    0.331549    0.530628    0.664615    11.00000   10.25000
AFIX  33
H36A  2    0.308830    0.531450    0.704977    11.00000   -1.50000
H36B  2    0.316141    0.537681    0.613007    11.00000   -1.50000
H36C  2    0.346091    0.496012    0.664124    11.00000   -1.50000
AFIX   0
C9P   1    0.308264    0.702512   -0.193502    11.00000   10.25000
AFIX  43
H9P   2    0.316943    0.704551   -0.246364    11.00000   -1.20000
AFIX   0
C39   1    0.200061    0.710203    0.395427    11.00000   10.25000
AFIX  23
H39A  2    0.170388    0.695956    0.373369    11.00000   -1.20000
H39B  2    0.210843    0.687537    0.439917    11.00000   -1.20000
AFIX   0
C10P  1    0.342196    0.709100   -0.131605    11.00000    0.15793    0.37534 =
         0.13722   -0.01787   -0.09930   -0.04547
AFIX  43
H10P  2    0.373729    0.713308   -0.142191    11.00000   -1.20000
AFIX   0
C43   1    0.246281    0.881567    0.451629    11.00000   10.25000
AFIX  23
H43A  2    0.217535    0.899995    0.434079    11.00000   -1.20000
H43B  2    0.239030    0.846764    0.473369    11.00000   -1.20000
AFIX   0
C44   1    0.279216    0.916340    0.511477    11.00000   10.25000
AFIX  33
H44A  2    0.263201    0.923394    0.559475    11.00000   -1.50000
H44B  2    0.307761    0.897091    0.524911    11.00000   -1.50000
H44C  2    0.286580    0.949542    0.486196    11.00000   -1.50000
AFIX   0
C40   1    0.192230    0.766197    0.426280    11.00000   10.25000
AFIX  33
H40A  2    0.169440    0.765243    0.466519    11.00000   -1.50000
H40B  2    0.221370    0.780227    0.449224    11.00000   -1.50000
H40C  2    0.180912    0.788647    0.382672    11.00000   -1.50000
AFIX   0
C19P  1    0.515542    0.724230    0.172606    11.00000    0.08715    0.20133 =
         0.12987   -0.09216    0.06376   -0.04117
C20P  1    0.544939    0.726801    0.231679    11.00000    0.05907    0.29336 =
         0.12319    0.02431    0.05238    0.00720
C21P  1    0.528826    0.727291    0.311051    11.00000   10.25000
HKLF 4

REM  ZC012909mmC4Co_0m_a.res in C2/c
REM R1 =  0.1639 for    5783 Fo > 4sig(Fo)  and  0.2504 for all   10849 data
REM    700 parameters refined using     42 restraints

END

WGHT      0.2000      0.0000

REM Highest difference peak  1.626,  deepest hole -0.848,  1-sigma level  0.156
Q1    1   0.5000  0.9183  0.2500  10.50000  0.05    1.63
Q2    1   0.3281  0.9073  0.4621  11.00000  0.05    1.49
Q3    1   0.3525  0.6119  0.7014  11.00000  0.05    1.16
Q4    1   0.3618  0.6184  0.7186  11.00000  0.05    1.16
Q5    1   0.2504  0.6167  0.3555  11.00000  0.05    1.13
Q6    1   0.5350  0.5862  0.4815  11.00000  0.05    1.11
Q7    1   0.5110  0.5717  0.4191  11.00000  0.05    1.06
Q8    1   0.4428  0.5889  0.0994  11.00000  0.05    0.98
Q9    1   0.3815  0.5470  0.0465  11.00000  0.05    0.93
Q10   1   0.4745  0.5583  0.2042  11.00000  0.05    0.89
Q11   1   0.5265  0.5303  0.2429  11.00000  0.05    0.87
Q12   1   0.5247  0.6940  0.2867  11.00000  0.05    0.82
Q13   1   0.2876  0.9405  0.3544  11.00000  0.05    0.82
Q14   1   0.3362  0.6392  0.2840  11.00000  0.05    0.81
Q15   1   0.4201  0.5748  0.3153  11.00000  0.05    0.81
Q16   1   0.3843  0.5782  0.1030  11.00000  0.05    0.78
Q17   1   0.4621  0.7716  0.6976  11.00000  0.05    0.76
Q18   1   0.4046  0.5819  0.2398  11.00000  0.05    0.76
Q19   1   0.4172  0.7694  0.7607  11.00000  0.05    0.75
Q20   1   0.4035  0.7210  0.0119  11.00000  0.05    0.73
Q21   1   0.4197  0.6014  0.4358  11.00000  0.05    0.72
Q22   1   0.2997  0.9463  0.5798  11.00000  0.05    0.71
Q23   1   0.3627  0.7534  0.0069  11.00000  0.05    0.69
Q24   1   0.3985  0.5993  0.3813  11.00000  0.05    0.68
Q25   1   0.5201  0.7508  0.2004  11.00000  0.05    0.68
Q26   1   0.2867  0.6529 -0.1985  11.00000  0.05    0.66
Q27   1   0.5976  0.7373  0.5217  11.00000  0.05    0.66
Q28   1   0.5364  0.7001  0.2019  11.00000  0.05    0.65
Q29   1   0.3460  0.7202  0.0393  11.00000  0.05    0.65
Q30   1   0.3318  0.5697  0.6406  11.00000  0.05    0.65
;
_shelx_res_checksum              31718
_shelx_fab_file
;
    2    0    0   -196.13      0.00
    4    0    0     31.87      0.00
    6    0    0     23.93      0.00
    8    0    0    -21.64      0.00
   10    0    0     16.46      0.00
   12    0    0     -5.05      0.00
   14    0    0     -1.31      0.00
   16    0    0      3.98      0.00
   18    0    0     -5.77      0.00
   20    0    0      1.84      0.00
   22    0    0     -0.62      0.00
   24    0    0      1.95      0.00
   26    0    0      0.49      0.00
   28    0    0     -3.94      0.00
   30    0    0      5.39      0.00
   32    0    0     -3.87      0.00
   34    0    0      4.07      0.00
    1    1    0    -84.04      0.00
    3    1    0    163.92      0.00
    5    1    0   -108.13      0.00
    7    1    0     30.96      0.00
    9    1    0     -2.04      0.00
   11    1    0     -5.21      0.00
   13    1    0      6.05      0.00
   15    1    0     -0.47      0.00
   17    1    0     -0.49      0.00
   19    1    0      2.39      0.00
   21    1    0     -6.22      0.00
   23    1    0      2.39      0.00
   25    1    0     -1.45      0.00
   27    1    0      4.20      0.00
   29    1    0      1.78      0.00
   31    1    0     -5.09      0.00
   33    1    0      1.08      0.00
    0    2    0    218.45      0.00
    2    2    0   -151.97      0.00
    4    2    0     29.34      0.00
    6    2    0     29.23      0.00
    8    2    0    -19.74      0.00
   10    2    0      7.30      0.00
   12    2    0     -2.15      0.00
   14    2    0     -4.02      0.00
   16    2    0      3.09      0.00
   18    2    0     -4.26      0.00
   20    2    0      5.63      0.00
   22    2    0      0.75      0.00
   24    2    0     -0.92      0.00
   26    2    0     -0.61      0.00
   28    2    0     -4.21      0.00
   30    2    0      0.27      0.00
   32    2    0      5.05      0.00
   34    2    0      0.89      0.00
    1    3    0    -61.92      0.00
    3    3    0    104.26      0.00
    5    3    0    -51.95      0.00
    7    3    0     13.26      0.00
    9    3    0     -1.02      0.00
   11    3    0     -7.59      0.00
   13    3    0      6.33      0.00
   15    3    0     -2.79      0.00
   17    3    0     -0.57      0.00
   19    3    0      5.23      0.00
   21    3    0     -4.42      0.00
   23    3    0      2.53      0.00
   25    3    0     -1.78      0.00
   27    3    0     -1.26      0.00
   29    3    0      3.86      0.00
   31    3    0     -4.31      0.00
   33    3    0      1.34      0.00
    0    4    0    102.60      0.00
    2    4    0    -60.12      0.00
    4    4    0     -3.60      0.00
    6    4    0     18.20      0.00
    8    4    0     -8.79      0.00
   10    4    0      5.27      0.00
   12    4    0      0.71      0.00
   14    4    0     -6.21      0.00
   16    4    0      5.50      0.00
   18    4    0     -5.54      0.00
   20    4    0      4.46      0.00
   22    4    0     -0.13      0.00
   24    4    0     -0.63      0.00
   26    4    0     -1.33      0.00
   28    4    0      2.92      0.00
   30    4    0     -6.40      0.00
   32    4    0      7.87      0.00
   34    4    0     -4.07      0.00
    1    5    0    -18.80      0.00
    3    5    0     39.88      0.00
    5    5    0    -26.24      0.00
    7    5    0      2.46      0.00
    9    5    0      3.88      0.00
   11    5    0     -6.05      0.00
   13    5    0      7.77      0.00
   15    5    0     -2.19      0.00
   17    5    0      1.26      0.00
   19    5    0     -0.61      0.00
   21    5    0     -5.00      0.00
   23    5    0      3.40      0.00
   25    5    0     -0.88      0.00
   27    5    0      2.71      0.00
   29    5    0     -2.45      0.00
   31    5    0      6.39      0.00
   33    5    0     -9.90      0.00
    0    6    0     30.52      0.00
    2    6    0    -11.19      0.00
    4    6    0    -11.19      0.00
    6    6    0     10.26      0.00
    8    6    0     -8.38      0.00
   10    6    0      6.59      0.00
   12    6    0      0.84      0.00
   14    6    0     -4.06      0.00
   16    6    0      5.02      0.00
   18    6    0     -5.77      0.00
   20    6    0      3.76      0.00
   22    6    0     -2.73      0.00
   24    6    0      3.41      0.00
   26    6    0     -6.40      0.00
   28    6    0     10.08      0.00
   30    6    0     -6.79      0.00
   32    6    0     -1.40      0.00
    1    7    0    -13.16      0.00
    3    7    0     21.21      0.00
    5    7    0    -12.26      0.00
    7    7    0      9.46      0.00
    9    7    0     -4.64      0.00
   11    7    0     -4.20      0.00
   13    7    0      5.40      0.00
   15    7    0     -3.86      0.00
   17    7    0      4.00      0.00
   19    7    0     -1.64      0.00
   21    7    0     -1.66      0.00
   23    7    0      2.15      0.00
   25    7    0     -1.26      0.00
   27    7    0      6.17      0.00
   29    7    0    -18.43      0.00
   31    7    0     25.05      0.00
   33    7    0    -17.75      0.00
    0    8    0     10.11      0.00
    2    8    0     -8.71      0.00
    4    8    0      1.44      0.00
    6    8    0      4.97      0.00
    8    8    0     -4.27      0.00
   10    8    0      3.66      0.00
   12    8    0     -0.33      0.00
   14    8    0     -3.88      0.00
   16    8    0      1.10      0.00
   18    8    0     -1.56      0.00
   20    8    0      5.43      0.00
   22    8    0     -2.85      0.00
   24    8    0      2.58      0.00
   26    8    0     -8.72      0.00
   28    8    0     12.59      0.00
   30    8    0     -7.09      0.00
   32    8    0     -9.58      0.00
    1    9    0     -4.89      0.00
    3    9    0      9.77      0.00
    5    9    0    -10.05      0.00
    7    9    0      9.53      0.00
    9    9    0     -4.46      0.00
   11    9    0      0.16      0.00
   13    9    0     -0.84      0.00
   15    9    0     -0.42      0.00
   17    9    0      3.19      0.00
   19    9    0     -2.10      0.00
   21    9    0     -0.58      0.00
   23    9    0      0.30      0.00
   25    9    0      1.89      0.00
   27    9    0      2.68      0.00
   29    9    0    -16.93      0.00
   31    9    0     27.29      0.00
   33    9    0    -22.27      0.00
    0   10    0      7.79      0.00
    2   10    0     -4.40      0.00
    4   10    0      3.21      0.00
    6   10    0     -5.95      0.00
    8   10    0      4.39      0.00
   10   10    0     -4.16      0.00
   12   10    0      5.41      0.00
   14   10    0     -1.57      0.00
   16   10    0     -1.08      0.00
   18   10    0     -1.44      0.00
   20   10    0      2.89      0.00
   22   10    0      0.34      0.00
   24   10    0     -2.78      0.00
   26   10    0     -3.94      0.00
   28   10    0     12.65      0.00
   30   10    0     -7.90      0.00
   32   10    0     -5.97      0.00
    1   11    0      0.51      0.00
    3   11    0     -1.90      0.00
    5   11    0      3.86      0.00
    7   11    0     -2.52      0.00
    9   11    0     -1.60      0.00
   11   11    0      1.89      0.00
   13   11    0     -2.24      0.00
   15   11    0      4.19      0.00
   17   11    0     -0.80      0.00
   19   11    0     -1.89      0.00
   21   11    0     -0.80      0.00
   23   11    0     -0.18      0.00
   25   11    0      6.07      0.00
   27   11    0     -8.15      0.00
   29   11    0     -0.76      0.00
   31   11    0     14.54      0.00
    0   12    0     -5.03      0.00
    2   12    0      4.38      0.00
    4   12    0      0.09      0.00
    6   12    0     -6.04      0.00
    8   12    0      7.01      0.00
   10   12    0     -6.44      0.00
   12   12    0      6.60      0.00
   14   12    0     -3.13      0.00
   16   12    0     -0.60      0.00
   18   12    0     -0.30      0.00
   20   12    0      1.43      0.00
   22   12    0      0.75      0.00
   24   12    0     -3.13      0.00
   26   12    0      0.99      0.00
   28   12    0      6.26      0.00
   30   12    0    -10.90      0.00
    1   13    0      3.14      0.00
    3   13    0     -7.26      0.00
    5   13    0      6.07      0.00
    7   13    0     -3.41      0.00
    9   13    0      3.44      0.00
   11   13    0     -1.18      0.00
   13   13    0     -3.40      0.00
   15   13    0      3.31      0.00
   17   13    0      0.28      0.00
   19   13    0     -1.14      0.00
   21   13    0     -0.87      0.00
   23   13    0     -0.67      0.00
   25   13    0      7.69      0.00
   27   13    0    -11.93      0.00
   29   13    0      8.58      0.00
   31   13    0     -1.44      0.00
    0   14    0     -6.19      0.00
    2   14    0      5.03      0.00
    4   14    0     -2.73      0.00
    6   14    0      0.11      0.00
    8   14    0      1.81      0.00
   10   14    0     -1.40      0.00
   12   14    0      1.40      0.00
   14   14    0     -1.93      0.00
   16   14    0      0.51      0.00
   18   14    0     -0.33      0.00
   20   14    0      2.28      0.00
   22   14    0     -2.08      0.00
   24   14    0     -0.74      0.00
   26   14    0      1.51      0.00
   28   14    0      4.30      0.00
   30   14    0    -10.98      0.00
    1   15    0     -1.04      0.00
    3   15    0      0.62      0.00
    5   15    0      0.20      0.00
    7   15    0      1.57      0.00
    9   15    0     -1.14      0.00
   11   15    0     -0.43      0.00
   13   15    0     -0.03      0.00
   15   15    0     -0.77      0.00
   17   15    0      1.66      0.00
   19   15    0     -0.84      0.00
   21   15    0      1.79      0.00
   23   15    0     -2.84      0.00
   25   15    0      3.54      0.00
   27   15    0     -8.24      0.00
   29   15    0     11.06      0.00
    0   16    0     -2.68      0.00
    2   16    0      0.44      0.00
    4   16    0      1.20      0.00
    6   16    0      2.00      0.00
    8   16    0     -3.94      0.00
   10   16    0      0.98      0.00
   12   16    0      0.69      0.00
   14   16    0      0.96      0.00
   16   16    0     -0.81      0.00
   18   16    0     -1.93      0.00
   20   16    0      3.05      0.00
   22   16    0     -1.18      0.00
   24   16    0     -0.04      0.00
   26   16    0     -1.24      0.00
   28   16    0      3.22      0.00
    1   17    0      0.30      0.00
    3   17    0      3.24      0.00
    5   17    0     -6.71      0.00
    7   17    0      3.42      0.00
    9   17    0     -1.71      0.00
   11   17    0      2.79      0.00
   13   17    0     -0.07      0.00
   15   17    0     -2.90      0.00
   17   17    0      2.68      0.00
   19   17    0     -2.15      0.00
   21   17    0      2.00      0.00
   23   17    0     -1.99      0.00
   25   17    0      3.39      0.00
   27   17    0     -5.99      0.00
    0   18    0      2.41      0.00
    2   18    0     -1.37      0.00
    4   18    0      0.00      0.00
    6   18    0      0.37      0.00
    8   18    0      0.44      0.00
   10   18    0     -1.79      0.00
   12   18    0      0.12      0.00
   14   18    0      1.26      0.00
   16   18    0      2.90      0.00
   18   18    0     -4.10      0.00
   20   18    0     -0.93      0.00
   22   18    0      1.45      0.00
   24   18    0      0.97      0.00
   26   18    0      0.50      0.00
    1   19    0      0.33      0.00
    3   19    0      1.13      0.00
    5   19    0     -3.91      0.00
    7   19    0      3.41      0.00
    9   19    0     -0.78      0.00
   11   19    0      0.34      0.00
   13   19    0      0.11      0.00
   15   19    0     -2.67      0.00
   17   19    0      2.94      0.00
   19   19    0     -0.51      0.00
   21   19    0      0.36      0.00
   23   19    0     -2.28      0.00
   25   19    0      2.34      0.00
    0   20    0     -2.81      0.00
    2   20    0     -1.61      0.00
    4   20    0      3.59      0.00
    6   20    0      1.11      0.00
    8   20    0     -0.88      0.00
   10   20    0     -1.17      0.00
   12   20    0      0.29      0.00
   14   20    0     -2.60      0.00
   16   20    0      5.25      0.00
   18   20    0     -3.41      0.00
   20   20    0      1.05      0.00
   22   20    0      0.42      0.00
   24   20    0     -1.70      0.00
    1   21    0      1.48      0.00
    3   21    0     -0.60      0.00
    5   21    0     -2.99      0.00
    7   21    0      2.32      0.00
    9   21    0     -0.09      0.00
   11   21    0      0.02      0.00
   13   21    0      2.90      0.00
   15   21    0     -5.80      0.00
   17   21    0      0.81      0.00
   19   21    0      3.66      0.00
   21   21    0     -0.31      0.00
   23   21    0     -0.92      0.00
    0   22    0     -2.92      0.00
    2   22    0      0.79      0.00
    4   22    0      2.43      0.00
    6   22    0     -1.03      0.00
    8   22    0     -3.78      0.00
   10   22    0      4.61      0.00
   12   22    0     -1.48      0.00
   14   22    0     -2.02      0.00
   16   22    0      5.53      0.00
   18   22    0     -5.47      0.00
   20   22    0      1.30      0.00
   22   22    0      0.50      0.00
    1   23    0      3.87      0.00
    3   23    0     -4.35      0.00
    5   23    0     -1.96      0.00
    7   23    0      4.17      0.00
    9   23    0     -2.16      0.00
   11   23    0     -1.68      0.00
   13   23    0      4.74      0.00
   15   23    0     -2.40      0.00
   17   23    0     -1.40      0.00
   19   23    0      1.97      0.00
   21   23    0     -2.35      0.00
    0   24    0     -7.57      0.00
    2   24    0      1.95      0.00
    4   24    0      3.81      0.00
    6   24    0     -0.47      0.00
    8   24    0     -3.08      0.00
   10   24    0      3.34      0.00
   12   24    0     -4.14      0.00
   14   24    0      1.72      0.00
   16   24    0      3.47      0.00
   18   24    0     -3.08      0.00
   20   24    0     -0.98      0.00
    1   25    0      3.34      0.00
    3   25    0     -5.77      0.00
    5   25    0      1.33      0.00
    7   25    0      2.55      0.00
    9   25    0     -1.48      0.00
   11   25    0      0.33      0.00
   13   25    0     -0.02      0.00
   15   25    0     -1.19      0.00
   17   25    0     -0.78      0.00
    0   26    0     -5.19      0.00
    2   26    0      1.55      0.00
    4   26    0      3.62      0.00
    6   26    0     -3.57      0.00
    8   26    0      0.51      0.00
   10   26    0      1.45      0.00
   12   26    0     -1.94      0.00
   14   26    0      1.99      0.00
   16   26    0     -2.22      0.00
    1   27    0      3.64      0.00
    3   27    0     -4.73      0.00
    5   27    0      0.36      0.00
    7   27    0     -0.23      0.00
    9   27    0      0.54      0.00
   11   27    0      2.36      0.00
   13   27    0     -2.49      0.00
    0   28    0     -0.55      0.00
    2   28    0     -2.40      0.00
    4   28    0      5.37      0.00
    6   28    0     -3.54      0.00
    8   28    0      2.29      0.00
   10   28    0     -3.03      0.00
   12   28    0      0.10      0.00
    1   29    0      1.68      0.00
    3   29    0     -2.47      0.00
    5   29    0      0.27      0.00
    7   29    0      0.45      0.00
    9   29    0      0.25      0.00
    0   30    0      0.82      0.00
    2   30    0     -3.38      0.00
  -33    1    1      0.81      0.00
  -31    1    1     -5.59      0.00
  -29    1    1      6.85      0.00
  -27    1    1     -2.19      0.00
  -25    1    1      0.03      0.00
  -23    1    1      2.81      0.00
  -21    1    1     -3.13      0.00
  -19    1    1     -1.64      0.00
  -17    1    1      0.56      0.00
  -15    1    1      1.26      0.00
  -13    1    1     -0.29      0.00
  -11    1    1      2.73      0.00
   -9    1    1     -1.78      0.00
   -7    1    1      3.60      0.00
   -5    1    1     -4.26      0.00
   -3    1    1    -14.60      0.00
   -1    1    1     16.18      0.00
    1    1    1     14.58      0.00
    3    1    1    -19.17      0.00
    5    1    1     -0.71      0.00
    7    1    1      1.53      0.00
    9    1    1      2.02      0.00
   11    1    1      0.66      0.00
   13    1    1      0.27      0.00
   15    1    1      1.54      0.00
   17    1    1     -2.05      0.00
   19    1    1      0.30      0.00
   21    1    1     -3.55      0.00
   23    1    1      3.63      0.00
   25    1    1     -0.92      0.00
   27    1    1      0.31      0.00
   29    1    1      2.79      0.00
   31    1    1     -3.19      0.00
   33    1    1     -0.16      0.00
  -34    2    1    -11.24      0.00
  -32    2    1      7.18      0.00
  -30    2    1     -4.54      0.00
  -28    2    1     -1.18      0.00
  -26    2    1      6.41      0.00
  -24    2    1     -0.50      0.00
  -22    2    1     -3.57      0.00
  -20    2    1      0.20      0.00
  -18    2    1     -1.82      0.00
  -16    2    1      3.13      0.00
  -14    2    1     -1.31      0.00
  -12    2    1     -0.40      0.00
  -10    2    1      6.92      0.00
   -8    2    1     -3.80      0.00
   -6    2    1     -6.96      0.00
   -4    2    1     -9.09      0.00
   -2    2    1     40.59      0.00
    0    2    1    -50.32      0.00
    2    2    1     38.68      0.00
    4    2    1    -17.95      0.00
    6    2    1      3.30      0.00
    8    2    1     -4.44      0.00
   10    2    1      5.14      0.00
   12    2    1      0.08      0.00
   14    2    1     -2.49      0.00
   16    2    1      3.92      0.00
   18    2    1     -2.22      0.00
   20    2    1     -0.92      0.00
   22    2    1      0.37      0.00
   24    2    1     -2.93      0.00
   26    2    1      4.41      0.00
   28    2    1      0.80      0.00
   30    2    1     -2.71      0.00
   32    2    1      4.88      0.00
   34    2    1    -11.85      0.00
  -33    3    1      1.00      0.00
  -31    3    1     -1.14      0.00
  -29    3    1      4.62      0.00
  -27    3    1     -3.41      0.00
  -25    3    1     -4.62      0.00
  -23    3    1      4.41      0.00
  -21    3    1      1.16      0.00
  -19    3    1     -0.95      0.00
  -17    3    1      0.20      0.00
  -15    3    1     -0.09      0.00
  -13    3    1     -0.25      0.00
  -11    3    1      1.28      0.00
   -9    3    1    -12.25      0.00
   -7    3    1     17.63      0.00
   -5    3    1      4.55      0.00
   -3    3    1    -24.19      0.00
   -1    3    1      9.71      0.00
    1    3    1     16.08      0.00
    3    3    1    -22.46      0.00
    5    3    1      9.03      0.00
    7    3    1      4.60      0.00
    9    3    1     -4.87      0.00
   11    3    1      0.36      0.00
   13    3    1     -0.05      0.00
   15    3    1      1.73      0.00
   17    3    1     -3.62      0.00
   19    3    1      3.49      0.00
   21    3    1     -3.31      0.00
   23    3    1      5.52      0.00
   25    3    1     -3.43      0.00
   27    3    1      0.27      0.00
   29    3    1     -3.44      0.00
   31    3    1      3.82      0.00
   33    3    1     -0.89      0.00
  -34    4    1      3.38      0.00
  -32    4    1      0.26      0.00
  -30    4    1     -4.32      0.00
  -28    4    1      1.10      0.00
  -26    4    1     -0.22      0.00
  -24    4    1      3.28      0.00
  -22    4    1     -7.12      0.00
  -20    4    1      6.53      0.00
  -18    4    1     -0.10      0.00
  -16    4    1     -0.40      0.00
  -14    4    1     -2.52      0.00
  -12    4    1     -0.40      0.00
  -10    4    1      5.09      0.00
   -8    4    1     -9.70      0.00
   -6    4    1      3.69      0.00
   -4    4    1      1.41      0.00
   -2    4    1     33.15      0.00
    0    4    1    -66.00      0.00
    2    4    1     38.11      0.00
    4    4    1     -5.65      0.00
    6    4    1     11.33      0.00
    8    4    1    -13.39      0.00
   10    4    1      4.26      0.00
   12    4    1      0.40      0.00
   14    4    1     -4.36      0.00
   16    4    1      1.58      0.00
   18    4    1      2.22      0.00
   20    4    1      1.79      0.00
   22    4    1     -1.91      0.00
   24    4    1     -0.43      0.00
   26    4    1     -2.01      0.00
   28    4    1      3.71      0.00
   30    4    1     -3.29      0.00
   32    4    1      1.47      0.00
   34    4    1     -0.89      0.00
  -33    5    1    -11.49      0.00
  -31    5    1     15.83      0.00
  -29    5    1     -9.31      0.00
  -27    5    1      4.12      0.00
  -25    5    1     -6.53      0.00
  -23    5    1      2.60      0.00
  -21    5    1      5.39      0.00
  -19    5    1     -5.29      0.00
  -17    5    1      2.99      0.00
  -15    5    1     -1.10      0.00
  -13    5    1     -1.83      0.00
  -11    5    1      2.15      0.00
   -9    5    1     -9.70      0.00
   -7    5    1     21.10      0.00
   -5    5    1    -10.22      0.00
   -3    5    1    -11.35      0.00
   -1    5    1      7.53      0.00
    1    5    1     11.65      0.00
    3    5    1    -11.67      0.00
    5    5    1     -5.14      0.00
    7    5    1     11.60      0.00
    9    5    1     -4.38      0.00
   11    5    1      0.55      0.00
   13    5    1     -2.31      0.00
   15    5    1      3.01      0.00
   17    5    1     -2.26      0.00
   19    5    1     -0.64      0.00
   21    5    1      1.31      0.00
   23    5    1      2.99      0.00
   25    5    1     -4.32      0.00
   27    5    1      6.18      0.00
   29    5    1    -14.81      0.00
   31    5    1     17.89      0.00
   33    5    1    -12.06      0.00
  -32    6    1    -12.38      0.00
  -30    6    1     -1.36      0.00
  -28    6    1      6.36      0.00
  -26    6    1     -2.79      0.00
  -24    6    1      7.36      0.00
  -22    6    1    -10.84      0.00
  -20    6    1      5.27      0.00
  -18    6    1     -2.25      0.00
  -16    6    1      0.67      0.00
  -14    6    1      0.19      0.00
  -12    6    1      0.63      0.00
  -10    6    1      6.52      0.00
   -8    6    1     -8.57      0.00
   -6    6    1     -3.37      0.00
   -4    6    1      2.02      0.00
   -2    6    1     13.96      0.00
    0    6    1    -18.62      0.00
    2    6    1     12.06      0.00
    4    6    1     -5.50      0.00
    6    6    1      4.85      0.00
    8    6    1     -8.45      0.00
   10    6    1      5.29      0.00
   12    6    1      0.75      0.00
   14    6    1     -0.21      0.00
   16    6    1     -1.79      0.00
   18    6    1      1.61      0.00
   20    6    1      1.87      0.00
   22    6    1     -6.01      0.00
   24    6    1      4.50      0.00
   26    6    1     -5.44      0.00
   28    6    1      9.05      0.00
   30    6    1     -0.58      0.00
   32    6    1    -10.83      0.00
  -33    7    1    -17.57      0.00
  -31    7    1     20.32      0.00
  -29    7    1     -8.81      0.00
  -27    7    1      2.00      0.00
  -25    7    1     -3.40      0.00
  -23    7    1      3.10      0.00
  -21    7    1      3.07      0.00
  -19    7    1     -7.98      0.00
  -17    7    1      4.24      0.00
  -15    7    1     -0.09      0.00
  -13    7    1     -0.20      0.00
  -11    7    1      2.64      0.00
   -9    7    1     -6.72      0.00
   -7    7    1     14.76      0.00
   -5    7    1    -17.35      0.00
   -3    7    1      1.26      0.00
   -1    7    1      6.42      0.00
    1    7    1      4.59      0.00
    3    7    1      0.49      0.00
    5    7    1    -14.14      0.00
    7    7    1      9.69      0.00
    9    7    1     -2.94      0.00
   11    7    1      2.57      0.00
   13    7    1     -2.39      0.00
   15    7    1      4.10      0.00
   17    7    1     -0.33      0.00
   19    7    1     -5.77      0.00
   21    7    1      1.71      0.00
   23    7    1      3.84      0.00
   25    7    1     -4.25      0.00
   27    7    1      6.81      0.00
   29    7    1    -13.44      0.00
   31    7    1     18.88      0.00
   33    7    1    -15.33      0.00
  -32    8    1     -3.34      0.00
  -30    8    1     -5.60      0.00
  -28    8    1      2.47      0.00
  -26    8    1      3.20      0.00
  -24    8    1      1.13      0.00
  -22    8    1     -7.27      0.00
  -20    8    1      6.18      0.00
  -18    8    1     -3.70      0.00
  -16    8    1      2.51      0.00
  -14    8    1     -0.66      0.00
  -12    8    1      0.42      0.00
  -10    8    1      1.04      0.00
   -8    8    1     -4.12      0.00
   -6    8    1     -1.63      0.00
   -4    8    1     11.24      0.00
   -2    8    1     -7.83      0.00
    0    8    1      0.04      0.00
    2    8    1     -3.23      0.00
    4    8    1      5.70      0.00
    6    8    1      1.40      0.00
    8    8    1     -5.18      0.00
   10    8    1      1.48      0.00
   12    8    1      0.83      0.00
   14    8    1      0.55      0.00
   16    8    1     -2.53      0.00
   18    8    1      1.07      0.00
   20    8    1      5.02      0.00
   22    8    1     -7.89      0.00
   24    8    1      3.85      0.00
   26    8    1     -1.29      0.00
   28    8    1      2.47      0.00
   30    8    1     -0.08      0.00
   32    8    1     -6.32      0.00
  -33    9    1     -8.24      0.00
  -31    9    1      2.76      0.00
  -29    9    1      7.69      0.00
  -27    9    1    -11.20      0.00
  -25    9    1      2.49      0.00
  -23    9    1      2.30      0.00
  -21    9    1      0.56      0.00
  -19    9    1     -0.50      0.00
  -17    9    1      0.97      0.00
  -15    9    1     -1.67      0.00
  -13    9    1     -1.00      0.00
  -11    9    1      1.01      0.00
   -9    9    1     -3.57      0.00
   -7    9    1      9.89      0.00
   -5    9    1     -7.51      0.00
   -3    9    1      1.29      0.00
   -1    9    1      1.07      0.00
    1    9    1     -3.70      0.00
    3    9    1      5.16      0.00
    5    9    1     -5.97      0.00
    7    9    1      6.00      0.00
    9    9    1     -1.51      0.00
   11    9    1      0.19      0.00
   13    9    1     -3.70      0.00
   15    9    1      3.10      0.00
   17    9    1      0.07      0.00
   19    9    1     -1.35      0.00
   21    9    1     -1.48      0.00
   23    9    1      6.24      0.00
   25    9    1     -3.53      0.00
   27    9    1     -1.64      0.00
   29    9    1     -0.60      0.00
   31    9    1      2.83      0.00
  -32   10    1     11.29      0.00
  -30   10    1    -13.50      0.00
  -28   10    1      1.74      0.00
  -26   10    1      8.65      0.00
  -24   10    1     -5.46      0.00
  -22   10    1     -2.30      0.00
  -20   10    1      3.60      0.00
  -18   10    1     -2.12      0.00
  -16   10    1      5.02      0.00
  -14   10    1     -5.87      0.00
  -12   10    1      0.75      0.00
  -10   10    1      1.36      0.00
   -8   10    1      0.37      0.00
   -6   10    1     -3.35      0.00
   -4   10    1      8.52      0.00
   -2   10    1     -8.46      0.00
    0   10    1      4.43      0.00
    2   10    1     -5.00      0.00
    4   10    1      3.27      0.00
    6   10    1      2.23      0.00
    8   10    1     -3.23      0.00
   10   10    1      2.22      0.00
   12   10    1     -0.13      0.00
   14   10    1     -2.74      0.00
   16   10    1      0.97      0.00
   18   10    1     -0.63      0.00
   20   10    1      5.60      0.00
   22   10    1     -6.05      0.00
   24   10    1      0.33      0.00
   26   10    1      3.69      0.00
   28   10    1     -1.33      0.00
   30   10    1     -4.13      0.00
   32   10    1      4.53      0.00
  -31   11    1     -9.86      0.00
  -29   11    1     21.96      0.00
  -27   11    1    -18.42      0.00
  -25   11    1      6.04      0.00
  -23   11    1     -1.26      0.00
  -21   11    1      2.05      0.00
  -19   11    1      1.02      0.00
  -17   11    1     -4.41      0.00
  -15   11    1      1.95      0.00
  -13   11    1      1.73      0.00
  -11   11    1     -1.14      0.00
   -9   11    1     -1.91      0.00
   -7   11    1      4.93      0.00
   -5   11    1     -4.87      0.00
   -3   11    1     -0.09      0.00
   -1   11    1      3.35      0.00
    1   11    1     -2.30      0.00
    3   11    1      3.88      0.00
    5   11    1     -6.88      0.00
    7   11    1      5.06      0.00
    9   11    1     -0.50      0.00
   11   11    1     -2.41      0.00
   13   11    1      1.00      0.00
   15   11    1      3.48      0.00
   17   11    1     -4.65      0.00
   19   11    1      2.27      0.00
   21   11    1     -2.14      0.00
   23   11    1      3.84      0.00
   25   11    1     -2.03      0.00
   27   11    1     -5.01      0.00
   29   11    1     11.34      0.00
   31   11    1     -9.93      0.00
  -30   12    1    -15.04      0.00
  -28   12    1      4.77      0.00
  -26   12    1      3.17      0.00
  -24   12    1     -2.39      0.00
  -22   12    1     -0.47      0.00
  -20   12    1     -0.41      0.00
  -18   12    1     -1.24      0.00
  -16   12    1      4.53      0.00
  -14   12    1     -4.71      0.00
  -12   12    1      3.80      0.00
  -10   12    1      0.22      0.00
   -8   12    1     -3.85      0.00
   -6   12    1     -0.92      0.00
   -4   12    1      6.13      0.00
   -2   12    1     -4.06      0.00
    0   12    1      1.53      0.00
    2   12    1     -2.65      0.00
    4   12    1      2.27      0.00
    6   12    1      4.33      0.00
    8   12    1    -10.40      0.00
   10   12    1      6.50      0.00
   12   12    1      1.28      0.00
   14   12    1     -4.27      0.00
   16   12    1      3.75      0.00
   18   12    1     -2.46      0.00
   20   12    1      3.19      0.00
   22   12    1     -4.27      0.00
   24   12    1      1.80      0.00
   26   12    1     -0.53      0.00
   28   12    1      2.86      0.00
   30   12    1     -6.11      0.00
  -31   13    1     -5.91      0.00
  -29   13    1     14.88      0.00
  -27   13    1    -14.42      0.00
  -25   13    1      6.36      0.00
  -23   13    1     -3.10      0.00
  -21   13    1      4.98      0.00
  -19   13    1     -2.46      0.00
  -17   13    1     -2.77      0.00
  -15   13    1      1.60      0.00
  -13   13    1      2.43      0.00
  -11   13    1     -1.76      0.00
   -9   13    1     -1.14      0.00
   -7   13    1      4.00      0.00
   -5   13    1     -4.95      0.00
   -3   13    1      1.15      0.00
   -1   13    1      1.22      0.00
    1   13    1     -1.03      0.00
    3   13    1      6.32      0.00
    5   13    1    -11.41      0.00
    7   13    1      7.80      0.00
    9   13    1     -1.32      0.00
   11   13    1     -3.09      0.00
   13   13    1      3.77      0.00
   15   13    1      0.59      0.00
   17   13    1     -3.33      0.00
   19   13    1      0.89      0.00
   21   13    1      0.79      0.00
   23   13    1      0.16      0.00
   25   13    1      0.03      0.00
   27   13    1     -2.96      0.00
   29   13    1      5.65      0.00
   31   13    1     -4.71      0.00
  -30   14    1    -12.80      0.00
  -28   14    1      4.50      0.00
  -26   14    1      1.03      0.00
  -24   14    1      2.87      0.00
  -22   14    1     -3.40      0.00
  -20   14    1     -1.29      0.00
  -18   14    1      1.17      0.00
  -16   14    1      2.72      0.00
  -14   14    1     -3.70      0.00
  -12   14    1      1.14      0.00
  -10   14    1      1.74      0.00
   -8   14    1     -1.71      0.00
   -6   14    1     -0.74      0.00
   -4   14    1      1.80      0.00
   -2   14    1     -1.37      0.00
    0   14    1      2.71      0.00
    2   14    1     -3.86      0.00
    4   14    1      0.39      0.00
    6   14    1      5.37      0.00
    8   14    1     -8.74      0.00
   10   14    1      8.03      0.00
   12   14    1     -2.78      0.00
   14   14    1     -3.44      0.00
   16   14    1      5.30      0.00
   18   14    1     -3.15      0.00
   20   14    1      1.75      0.00
   22   14    1     -4.30      0.00
   24   14    1      7.41      0.00
   26   14    1     -6.25      0.00
   28   14    1      4.43      0.00
   30   14    1     -5.82      0.00
  -29   15    1      4.34      0.00
  -27   15    1     -3.45      0.00
  -25   15    1      1.43      0.00
  -23   15    1     -2.18      0.00
  -21   15    1      4.09      0.00
  -19   15    1     -3.85      0.00
  -17   15    1      3.07      0.00
  -15   15    1     -1.55      0.00
  -13   15    1     -0.45      0.00
  -11   15    1     -0.96      0.00
   -9   15    1      0.88      0.00
   -7   15    1      4.51      0.00
   -5   15    1     -5.30      0.00
   -3   15    1     -0.20      0.00
   -1   15    1      1.72      0.00
    1   15    1     -0.39      0.00
    3   15    1      4.48      0.00
    5   15    1    -10.74      0.00
    7   15    1      9.80      0.00
    9   15    1     -2.59      0.00
   11   15    1     -2.62      0.00
   13   15    1      3.67      0.00
   15   15    1     -2.81      0.00
   17   15    1      1.98      0.00
   19   15    1     -2.76      0.00
   21   15    1      3.04      0.00
   23   15    1     -1.68      0.00
   25   15    1     -0.22      0.00
   27   15    1      3.91      0.00
   29   15    1     -5.60      0.00
  -28   16    1     -0.23      0.00
  -26   16    1      2.80      0.00
  -24   16    1     -1.28      0.00
  -22   16    1     -1.63      0.00
  -20   16    1      0.35      0.00
  -18   16    1      1.56      0.00
  -16   16    1     -0.13      0.00
  -14   16    1     -0.31      0.00
  -12   16    1      0.24      0.00
  -10   16    1     -1.33      0.00
   -8   16    1     -0.54      0.00
   -6   16    1      0.46      0.00
   -4   16    1      4.35      0.00
   -2   16    1     -3.12      0.00
    0   16    1     -0.59      0.00
    2   16    1     -3.32      0.00
    4   16    1      4.10      0.00
    6   16    1      2.81      0.00
    8   16    1     -5.57      0.00
   10   16    1      4.27      0.00
   12   16    1     -2.90      0.00
   14   16    1     -1.02      0.00
   16   16    1      3.27      0.00
   18   16    1     -2.05      0.00
   20   16    1      2.89      0.00
   22   16    1     -4.55      0.00
   24   16    1      4.64      0.00
   26   16    1     -4.93      0.00
   28   16    1      3.50      0.00
  -27   17    1      1.30      0.00
  -25   17    1     -4.74      0.00
  -23   17    1      0.42      0.00
  -21   17    1      3.71      0.00
  -19   17    1     -0.53      0.00
  -17   17    1     -0.81      0.00
  -15   17    1     -1.01      0.00
  -13   17    1     -0.12      0.00
  -11   17    1      1.76      0.00
   -9   17    1     -1.62      0.00
   -7   17    1      1.44      0.00
   -5   17    1     -0.71      0.00
   -3   17    1     -0.21      0.00
   -1   17    1      0.18      0.00
    1   17    1     -1.24      0.00
    3   17    1      3.64      0.00
    5   17    1     -4.50      0.00
    7   17    1      3.77      0.00
    9   17    1     -2.80      0.00
   11   17    1      0.83      0.00
   13   17    1      2.31      0.00
   15   17    1     -3.95      0.00
   17   17    1      2.12      0.00
   19   17    1     -0.39      0.00
   21   17    1      2.12      0.00
   23   17    1     -2.22      0.00
   25   17    1     -2.38      0.00
   27   17    1      6.34      0.00
  -26   18    1      5.05      0.00
  -24   18    1     -2.11      0.00
  -22   18    1      3.20      0.00
  -20   18    1     -4.91      0.00
  -18   18    1      2.91      0.00
  -16   18    1     -0.99      0.00
  -14   18    1     -0.23      0.00
  -12   18    1      2.24      0.00
  -10   18    1     -1.14      0.00
   -8   18    1     -0.86      0.00
   -6   18    1     -1.33      0.00
   -4   18    1      3.24      0.00
   -2   18    1     -2.13      0.00
    0   18    1      1.57      0.00
    2   18    1     -2.04      0.00
    4   18    1      2.30      0.00
    6   18    1     -1.15      0.00
    8   18    1     -1.71      0.00
   10   18    1      2.87      0.00
   12   18    1     -1.00      0.00
   14   18    1     -0.86      0.00
   16   18    1      1.11      0.00
   18   18    1     -0.39      0.00
   20   18    1     -0.41      0.00
   22   18    1      0.80      0.00
   24   18    1      0.02      0.00
   26   18    1     -1.37      0.00
  -25   19    1     -2.33      0.00
  -23   19    1      0.53      0.00
  -21   19    1      0.79      0.00
  -19   19    1      1.67      0.00
  -17   19    1     -6.31      0.00
  -15   19    1      5.66      0.00
  -13   19    1     -2.49      0.00
  -11   19    1      1.30      0.00
   -9   19    1      0.74      0.00
   -7   19    1     -0.09      0.00
   -5   19    1     -2.77      0.00
   -3   19    1     -0.48      0.00
   -1   19    1      3.09      0.00
    1   19    1      1.12      0.00
    3   19    1     -1.55      0.00
    5   19    1     -1.96      0.00
    7   19    1      1.47      0.00
    9   19    1     -0.35      0.00
   11   19    1     -0.33      0.00
   13   19    1      1.33      0.00
   15   19    1      1.66      0.00
   17   19    1     -3.96      0.00
   19   19    1      1.34      0.00
   21   19    1     -0.45      0.00
   23   19    1      1.19      0.00
   25   19    1     -0.34      0.00
  -24   20    1     -0.27      0.00
  -22   20    1      3.79      0.00
  -20   20    1     -9.69      0.00
  -18   20    1      6.04      0.00
  -16   20    1      1.24      0.00
  -14   20    1     -1.62      0.00
  -12   20    1      0.14      0.00
  -10   20    1     -0.71      0.00
   -8   20    1     -0.83      0.00
   -6   20    1      2.29      0.00
   -4   20    1     -0.18      0.00
   -2   20    1     -1.35      0.00
    0   20    1      0.84      0.00
    2   20    1     -1.15      0.00
    4   20    1      0.86      0.00
    6   20    1      1.06      0.00
    8   20    1     -1.76      0.00
   10   20    1      1.53      0.00
   12   20    1     -2.09      0.00
   14   20    1      1.24      0.00
   16   20    1      0.85      0.00
   18   20    1      0.81      0.00
   20   20    1     -5.14      0.00
   22   20    1      5.26      0.00
   24   20    1     -2.22      0.00
  -23   21    1     -3.03      0.00
  -21   21    1      1.50      0.00
  -19   21    1      5.74      0.00
  -17   21    1     -7.80      0.00
  -15   21    1      5.06      0.00
  -13   21    1     -2.02      0.00
  -11   21    1     -1.28      0.00
   -9   21    1      1.94      0.00
   -7   21    1     -0.49      0.00
   -5   21    1      0.26      0.00
   -3   21    1      0.81      0.00
   -1   21    1     -1.52      0.00
    1   21    1      0.11      0.00
    3   21    1     -0.84      0.00
    5   21    1      2.11      0.00
    7   21    1     -0.57      0.00
    9   21    1      0.42      0.00
   11   21    1     -1.64      0.00
   13   21    1      0.73      0.00
   15   21    1      1.09      0.00
   17   21    1     -3.71      0.00
   19   21    1      5.70      0.00
   21   21    1     -3.15      0.00
   23   21    1     -0.79      0.00
  -22   22    1      3.09      0.00
  -20   22    1     -5.57      0.00
  -18   22    1      5.28      0.00
  -16   22    1     -0.73      0.00
  -14   22    1     -2.27      0.00
  -12   22    1      0.10      0.00
  -10   22    1      2.34      0.00
   -8   22    1     -4.01      0.00
   -6   22    1      5.03      0.00
   -4   22    1     -2.64      0.00
   -2   22    1      0.36      0.00
    0   22    1     -1.17      0.00
    2   22    1      1.56      0.00
    4   22    1     -1.39      0.00
    6   22    1      1.91      0.00
    8   22    1     -2.81      0.00
   10   22    1      5.04      0.00
   12   22    1     -5.06      0.00
   14   22    1      0.92      0.00
   16   22    1      0.06      0.00
   18   22    1      3.06      0.00
   20   22    1     -3.97      0.00
   22   22    1      3.63      0.00
  -21   23    1      0.19      0.00
  -19   23    1      4.37      0.00
  -17   23    1     -4.82      0.00
  -15   23    1     -0.36      0.00
  -13   23    1      2.81      0.00
  -11   23    1     -2.68      0.00
   -9   23    1      5.17      0.00
   -7   23    1     -4.47      0.00
   -5   23    1     -1.04      0.00
   -3   23    1      2.30      0.00
   -1   23    1     -0.29      0.00
    1   23    1      0.84      0.00
    3   23    1     -1.10      0.00
    5   23    1      1.17      0.00
    7   23    1     -3.19      0.00
    9   23    1      2.74      0.00
   11   23    1     -1.03      0.00
   13   23    1      3.41      0.00
   15   23    1     -4.55      0.00
   17   23    1     -0.65      0.00
   19   23    1      4.95      0.00
   21   23    1     -2.79      0.00
  -20   24    1     -4.55      0.00
  -18   24    1      0.19      0.00
  -16   24    1      1.24      0.00
  -14   24    1      1.07      0.00
  -12   24    1     -1.15      0.00
  -10   24    1      1.82      0.00
   -8   24    1     -4.90      0.00
   -6   24    1      6.18      0.00
   -4   24    1     -4.57      0.00
   -2   24    1      1.36      0.00
    0   24    1      0.36      0.00
    2   24    1      1.95      0.00
    4   24    1     -4.20      0.00
    6   24    1      3.31      0.00
    8   24    1     -2.22      0.00
   10   24    1      3.00      0.00
   12   24    1     -5.12      0.00
   14   24    1      4.66      0.00
   16   24    1      0.65      0.00
   18   24    1     -2.48      0.00
   20   24    1     -2.79      0.00
  -17   25    1     -0.41      0.00
  -15   25    1     -2.10      0.00
  -13   25    1      4.87      0.00
  -11   25    1     -6.73      0.00
   -9   25    1      6.51      0.00
   -7   25    1     -4.30      0.00
   -5   25    1      0.51      0.00
   -3   25    1      2.32      0.00
   -1   25    1     -1.17      0.00
    1   25    1     -1.43      0.00
    3   25    1      0.24      0.00
    5   25    1      3.58      0.00
    7   25    1     -4.19      0.00
    9   25    1      1.75      0.00
   11   25    1     -2.57      0.00
   13   25    1      6.46      0.00
   15   25    1     -5.95      0.00
   17   25    1      0.67      0.00
  -16   26    1      1.69      0.00
  -14   26    1     -0.05      0.00
  -12   26    1     -0.76      0.00
  -10   26    1      0.28      0.00
   -8   26    1     -3.38      0.00
   -6   26    1      6.11      0.00
   -4   26    1     -2.79      0.00
   -2   26    1     -0.25      0.00
    0   26    1     -0.84      0.00
    2   26    1      1.91      0.00
    4   26    1     -2.82      0.00
    6   26    1      2.56      0.00
    8   26    1      0.45      0.00
   10   26    1     -0.06      0.00
   12   26    1     -3.62      0.00
   14   26    1      1.70      0.00
   16   26    1      3.19      0.00
  -13   27    1      3.48      0.00
  -11   27    1     -4.03      0.00
   -9   27    1      6.11      0.00
   -7   27    1     -4.09      0.00
   -5   27    1      0.00      0.00
   -3   27    1      0.70      0.00
   -1   27    1      0.26      0.00
    1   27    1     -0.17      0.00
    3   27    1     -0.69      0.00
    5   27    1      2.62      0.00
    7   27    1     -4.15      0.00
    9   27    1      2.72      0.00
   11   27    1     -1.16      0.00
   13   27    1      3.37      0.00
  -12   28    1      0.98      0.00
  -10   28    1      0.62      0.00
   -8   28    1     -2.07      0.00
   -6   28    1      2.19      0.00
   -4   28    1     -2.03      0.00
   -2   28    1      1.68      0.00
    0   28    1     -1.57      0.00
    2   28    1      2.51      0.00
    4   28    1     -2.13      0.00
    6   28    1     -0.58      0.00
    8   28    1      1.96      0.00
   10   28    1     -0.32      0.00
   12   28    1     -0.69      0.00
   -7   29    1     -1.13      0.00
   -5   29    1      0.17      0.00
   -3   29    1     -0.75      0.00
   -1   29    1      0.66      0.00
    1   29    1      1.12      0.00
    3   29    1     -2.23      0.00
    5   29    1      2.12      0.00
    7   29    1     -1.45      0.00
    0   30    1     -3.97      0.00
  -34    0    2     21.20      0.00
  -32    0    2    -18.91      0.00
  -30    0    2      9.54      0.00
  -28    0    2     -6.82      0.00
  -26    0    2      1.28      0.00
  -24    0    2      3.14      0.00
  -22    0    2     -1.77      0.00
  -20    0    2      0.11      0.00
  -18    0    2      4.44      0.00
  -16    0    2     -7.18      0.00
  -14    0    2      1.48      0.00
  -12    0    2      7.76      0.00
  -10    0    2    -16.47      0.00
   -8    0    2     22.74      0.00
   -6    0    2    -20.70      0.00
   -4    0    2    -23.56      0.00
   -2    0    2    120.69      0.00
    0    0    2   -166.74      0.00
    2    0    2     98.92      0.00
    4    0    2    -29.46      0.00
    6    0    2     22.33      0.00
    8    0    2    -14.03      0.00
   10    0    2     -3.46      0.00
   12    0    2      5.93      0.00
   14    0    2     -8.38      0.00
   16    0    2      6.38      0.00
   18    0    2      3.25      0.00
   20    0    2     -7.07      0.00
   22    0    2      9.02      0.00
   24    0    2     -6.59      0.00
   26    0    2     -2.61      0.00
   28    0    2      7.28      0.00
   30    0    2    -11.27      0.00
   32    0    2     16.56      0.00
   34    0    2    -12.79      0.00
  -33    1    2     -0.56      0.00
  -31    1    2     11.17      0.00
  -29    1    2     -8.49      0.00
  -27    1    2      5.58      0.00
  -25    1    2     -6.63      0.00
  -23    1    2     -1.33      0.00
  -21    1    2      7.92      0.00
  -19    1    2     -3.76      0.00
  -17    1    2      1.15      0.00
  -15    1    2      3.27      0.00
  -13    1    2    -10.09      0.00
  -11    1    2      7.91      0.00
   -9    1    2     -6.56      0.00
   -7    1    2     -9.25      0.00
   -5    1    2     63.44      0.00
   -3    1    2    -87.35      0.00
   -1    1    2     19.68      0.00
    1    1    2     60.94      0.00
    3    1    2    -71.25      0.00
    5    1    2     44.10      0.00
    7    1    2    -29.31      0.00
    9    1    2     22.55      0.00
   11    1    2    -13.98      0.00
   13    1    2      8.80      0.00
   15    1    2     -3.76      0.00
   17    1    2     -3.76      0.00
   19    1    2      4.48      0.00
   21    1    2      0.98      0.00
   23    1    2     -4.94      0.00
   25    1    2      8.03      0.00
   27    1    2     -6.46      0.00
   29    1    2     -0.79      0.00
   31    1    2      5.22      0.00
   33    1    2    -10.39      0.00
  -34    2    2     21.63      0.00
  -32    2    2    -24.17      0.00
  -30    2    2     11.46      0.00
  -28    2    2     -4.02      0.00
  -26    2    2      2.61      0.00
  -24    2    2      4.52      0.00
  -22    2    2     -3.17      0.00
  -20    2    2     -5.53      0.00
  -18    2    2      4.41      0.00
  -16    2    2     -3.58      0.00
  -14    2    2      2.32      0.00
  -12    2    2      6.02      0.00
  -10    2    2     -6.31      0.00
   -8    2    2     13.42      0.00
   -6    2    2    -23.25      0.00
   -4    2    2    -24.75      0.00
   -2    2    2    102.27      0.00
    0    2    2   -110.07      0.00
    2    2    2     58.30      0.00
    4    2    2    -20.95      0.00
    6    2    2     10.12      0.00
    8    2    2     -4.93      0.00
   10    2    2     -0.31      0.00
   12    2    2      2.93      0.00
   14    2    2     -4.52      0.00
   16    2    2      5.11      0.00
   18    2    2      1.09      0.00
   20    2    2     -8.07      0.00
   22    2    2      7.73      0.00
   24    2    2     -4.91      0.00
   26    2    2     -1.28      0.00
   28    2    2      8.46      0.00
   30    2    2     -7.90      0.00
   32    2    2      7.65      0.00
   34    2    2     -8.82      0.00
  -33    3    2     -6.32      0.00
  -31    3    2     16.59      0.00
  -29    3    2    -14.22      0.00
  -27    3    2     10.19      0.00
  -25    3    2     -3.81      0.00
  -23    3    2     -1.61      0.00
  -21    3    2      1.96      0.00
  -19    3    2     -2.70      0.00
  -17    3    2      0.71      0.00
  -15    3    2      5.09      0.00
  -13    3    2     -8.30      0.00
  -11    3    2      7.48      0.00
   -9    3    2     -2.95      0.00
   -7    3    2     -4.18      0.00
   -5    3    2     22.04      0.00
   -3    3    2    -38.33      0.00
   -1    3    2      4.06      0.00
    1    3    2     53.98      0.00
    3    3    2    -50.26      0.00
    5    3    2     12.24      0.00
    7    3    2     -7.37      0.00
    9    3    2     11.55      0.00
   11    3    2     -5.88      0.00
   13    3    2      5.49      0.00
   15    3    2     -1.52      0.00
   17    3    2     -3.87      0.00
   19    3    2      1.68      0.00
   21    3    2      0.52      0.00
   23    3    2     -4.23      0.00
   25    3    2      6.97      0.00
   27    3    2     -2.72      0.00
   29    3    2     -0.30      0.00
   31    3    2      3.21      0.00
   33    3    2     -9.61      0.00
  -34    4    2     20.75      0.00
  -32    4    2    -20.33      0.00
  -30    4    2     10.04      0.00
  -28    4    2     -3.38      0.00
  -26    4    2      1.10      0.00
  -24    4    2      0.31      0.00
  -22    4    2      2.83      0.00
  -20    4    2     -6.24      0.00
  -18    4    2      4.18      0.00
  -16    4    2     -3.49      0.00
  -14    4    2      3.91      0.00
  -12    4    2      0.77      0.00
  -10    4    2     -2.68      0.00
   -8    4    2      1.16      0.00
   -6    4    2     -2.77      0.00
   -4    4    2    -10.36      0.00
   -2    4    2     39.29      0.00
    0    4    2    -38.61      0.00
    2    4    2      1.57      0.00
    4    4    2     18.44      0.00
    6    4    2     -7.72      0.00
    8    4    2     -0.06      0.00
   10    4    2     -1.03      0.00
   12    4    2     -0.13      0.00
   14    4    2     -0.75      0.00
   16    4    2      2.16      0.00
   18    4    2      2.04      0.00
   20    4    2     -6.01      0.00
   22    4    2      5.53      0.00
   24    4    2     -2.79      0.00
   26    4    2     -0.77      0.00
   28    4    2      2.62      0.00
   30    4    2     -2.99      0.00
   32    4    2      3.51      0.00
  -33    5    2     -4.29      0.00
  -31    5    2     11.73      0.00
  -29    5    2    -10.53      0.00
  -27    5    2      4.04      0.00
  -25    5    2     -2.06      0.00
  -23    5    2     -1.84      0.00
  -21    5    2      2.00      0.00
  -19    5    2      5.78      0.00
  -17    5    2     -5.31      0.00
  -15    5    2      3.30      0.00
  -13    5    2     -7.64      0.00
  -11    5    2      4.77      0.00
   -9    5    2     -4.16      0.00
   -7    5    2      5.29      0.00
   -5    5    2      7.88      0.00
   -3    5    2     -4.90      0.00
   -1    5    2    -23.91      0.00
    1    5    2     32.38      0.00
    3    5    2    -16.26      0.00
    5    5    2      4.49      0.00
    7    5    2      0.22      0.00
    9    5    2     -1.12      0.00
   11    5    2      0.03      0.00
   13    5    2      0.98      0.00
   15    5    2     -1.93      0.00
   17    5    2     -1.58      0.00
   19    5    2      4.00      0.00
   21    5    2      0.28      0.00
   23    5    2     -3.49      0.00
   25    5    2      5.54      0.00
   27    5    2     -6.96      0.00
   29    5    2      4.13      0.00
   31    5    2     -2.83      0.00
   33    5    2      1.54      0.00
  -32    6    2     -4.97      0.00
  -30    6    2      3.60      0.00
  -28    6    2     -3.91      0.00
  -26    6    2      4.23      0.00
  -24    6    2     -6.45      0.00
  -22    6    2      8.70      0.00
  -20    6    2     -6.55      0.00
  -18    6    2      3.96      0.00
  -16    6    2     -2.82      0.00
  -14    6    2      2.13      0.00
  -12    6    2     -1.32      0.00
  -10    6    2     -1.13      0.00
   -8    6    2      0.80      0.00
   -6    6    2      1.46      0.00
   -4    6    2     -2.52      0.00
   -2    6    2      7.54      0.00
    0    6    2     -3.14      0.00
    2    6    2    -17.88      0.00
    4    6    2     24.39      0.00
    6    6    2    -11.73      0.00
    8    6    2      6.23      0.00
   10    6    2     -3.34      0.00
   12    6    2     -2.61      0.00
   14    6    2      1.26      0.00
   16    6    2      0.60      0.00
   18    6    2      1.72      0.00
   20    6    2     -2.95      0.00
   22    6    2      4.02      0.00
   24    6    2     -3.12      0.00
   26    6    2      1.29      0.00
   28    6    2     -1.04      0.00
   30    6    2     -3.30      0.00
   32    6    2      7.55      0.00
  -33    7    2      1.49      0.00
  -31    7    2     -5.54      0.00
  -29    7    2      5.68      0.00
  -27    7    2     -2.23      0.00
  -25    7    2      0.72      0.00
  -23    7    2     -0.36      0.00
  -21    7    2     -3.39      0.00
  -19    7    2      7.67      0.00
  -17    7    2     -7.45      0.00
  -15    7    2      4.90      0.00
  -13    7    2     -5.49      0.00
  -11    7    2      5.82      0.00
   -9    7    2     -0.15      0.00
   -7    7    2     -3.91      0.00
   -5    7    2      2.16      0.00
   -3    7    2     -0.28      0.00
   -1    7    2     -7.48      0.00
    1    7    2     18.57      0.00
    3    7    2    -15.10      0.00
    5    7    2      4.78      0.00
    7    7    2     -3.10      0.00
    9    7    2      1.53      0.00
   11    7    2      1.04      0.00
   13    7    2      1.96      0.00
   15    7    2     -2.33      0.00
   17    7    2     -1.83      0.00
   19    7    2      2.55      0.00
   21    7    2      0.43      0.00
   23    7    2     -3.40      0.00
   25    7    2      4.56      0.00
   27    7    2     -7.41      0.00
   29    7    2     13.88      0.00
   31    7    2    -14.36      0.00
   33    7    2      6.60      0.00
  -32    8    2      6.90      0.00
  -30    8    2      3.74      0.00
  -28    8    2     -8.08      0.00
  -26    8    2      7.59      0.00
  -24    8    2     -5.43      0.00
  -22    8    2      6.93      0.00
  -20    8    2     -7.87      0.00
  -18    8    2      0.39      0.00
  -16    8    2      2.47      0.00
  -14    8    2      2.31      0.00
  -12    8    2     -0.92      0.00
  -10    8    2     -0.82      0.00
   -8    8    2      0.07      0.00
   -6    8    2     -1.54      0.00
   -4    8    2     -4.18      0.00
   -2    8    2      8.88      0.00
    0    8    2     -0.38      0.00
    2    8    2     -5.80      0.00
    4    8    2      5.44      0.00
    6    8    2     -6.62      0.00
    8    8    2      4.26      0.00
   10    8    2      1.26      0.00
   12    8    2     -5.03      0.00
   14    8    2      4.88      0.00
   16    8    2      0.13      0.00
   18    8    2     -1.31      0.00
   20    8    2     -2.10      0.00
   22    8    2      1.23      0.00
   24    8    2      0.17      0.00
   26    8    2      0.69      0.00
   28    8    2      0.51      0.00
   30    8    2     -4.30      0.00
   32    8    2     10.86      0.00
  -33    9    2     13.39      0.00
  -31    9    2    -15.97      0.00
  -29    9    2      8.63      0.00
  -27    9    2      0.46      0.00
  -25    9    2     -3.70      0.00
  -23    9    2      3.66      0.00
  -21    9    2     -4.97      0.00
  -19    9    2      6.37      0.00
  -17    9    2     -5.80      0.00
  -15    9    2      2.80      0.00
  -13    9    2     -0.03      0.00
  -11    9    2      0.10      0.00
   -9    9    2      0.69      0.00
   -7    9    2     -3.91      0.00
   -5    9    2      5.58      0.00
   -3    9    2     -2.99      0.00
   -1    9    2     -4.34      0.00
    1    9    2      9.85      0.00
    3    9    2     -7.81      0.00
    5    9    2      5.52      0.00
    7    9    2     -4.23      0.00
    9    9    2     -1.22      0.00
   11    9    2      2.25      0.00
   13    9    2      3.69      0.00
   15    9    2     -4.82      0.00
   17    9    2      1.16      0.00
   19    9    2     -0.09      0.00
   21    9    2      1.58      0.00
   23    9    2     -2.75      0.00
   25    9    2      1.95      0.00
   27    9    2     -3.24      0.00
   29    9    2      9.44      0.00
   31    9    2    -12.17      0.00
  -32   10    2      2.05      0.00
  -30   10    2      8.05      0.00
  -28   10    2    -12.14      0.00
  -26   10    2      6.46      0.00
  -24   10    2     -0.24      0.00
  -22   10    2      0.01      0.00
  -20   10    2     -0.85      0.00
  -18   10    2     -0.45      0.00
  -16   10    2      2.00      0.00
  -14   10    2     -0.78      0.00
  -12   10    2     -2.89      0.00
  -10   10    2      4.20      0.00
   -8   10    2     -4.19      0.00
   -6   10    2      5.60      0.00
   -4   10    2     -5.60      0.00
   -2   10    2      5.18      0.00
    0   10    2     -3.83      0.00
    2   10    2     -0.70      0.00
    4   10    2      2.02      0.00
    6   10    2     -0.04      0.00
    8   10    2     -1.27      0.00
   10   10    2      7.06      0.00
   12   10    2    -11.57      0.00
   14   10    2      5.49      0.00
   16   10    2      1.14      0.00
   18   10    2     -0.85      0.00
   20   10    2     -0.07      0.00
   22   10    2     -2.66      0.00
   24   10    2      6.63      0.00
   26   10    2     -4.98      0.00
   28   10    2     -0.15      0.00
   30   10    2     -2.33      0.00
   32   10    2      8.68      0.00
  -31   11    2    -12.91      0.00
  -29   11    2      0.09      0.00
  -27   11    2     10.48      0.00
  -25   11    2    -10.50      0.00
  -23   11    2      5.64      0.00
  -21   11    2     -3.91      0.00
  -19   11    2      4.11      0.00
  -17   11    2      0.27      0.00
  -15   11    2     -3.30      0.00
  -13   11    2      0.88      0.00
  -11   11    2     -1.99      0.00
   -9   11    2      3.16      0.00
   -7   11    2      1.71      0.00
   -5   11    2     -4.13      0.00
   -3   11    2      4.33      0.00
   -1   11    2     -6.52      0.00
    1   11    2      5.43      0.00
    3   11    2     -1.84      0.00
    5   11    2     -1.55      0.00
    7   11    2      5.81      0.00
    9   11    2     -7.24      0.00
   11   11    2      3.59      0.00
   13   11    2      2.58      0.00
   15   11    2     -5.95      0.00
   17   11    2      3.37      0.00
   19   11    2     -1.66      0.00
   21   11    2      3.42      0.00
   23   11    2     -2.02      0.00
   25   11    2     -2.40      0.00
   27   11    2      5.78      0.00
   29   11    2     -4.33      0.00
   31   11    2     -1.97      0.00
  -30   12    2     12.69      0.00
  -28   12    2     -9.08      0.00
  -26   12    2      1.96      0.00
  -24   12    2      1.36      0.00
  -22   12    2     -2.60      0.00
  -20   12    2      3.32      0.00
  -18   12    2     -1.73      0.00
  -16   12    2     -0.86      0.00
  -14   12    2      2.65      0.00
  -12   12    2     -3.88      0.00
  -10   12    2      5.42      0.00
   -8   12    2     -7.31      0.00
   -6   12    2      6.56      0.00
   -4   12    2     -2.78      0.00
   -2   12    2     -0.41      0.00
    0   12    2      3.60      0.00
    2   12    2     -6.37      0.00
    4   12    2      4.67      0.00
    6   12    2     -1.47      0.00
    8   12    2     -0.71      0.00
   10   12    2      5.54      0.00
   12   12    2     -8.69      0.00
   14   12    2      4.36      0.00
   16   12    2      0.84      0.00
   18   12    2     -1.80      0.00
   20   12    2      2.43      0.00
   22   12    2     -4.56      0.00
   24   12    2      6.60      0.00
   26   12    2     -6.22      0.00
   28   12    2      1.83      0.00
   30   12    2      2.34      0.00
  -31   13    2     -0.39      0.00
  -29   13    2     -6.17      0.00
  -27   13    2     10.66      0.00
  -25   13    2    -11.38      0.00
  -23   13    2      7.29      0.00
  -21   13    2     -2.36      0.00
  -19   13    2     -0.99      0.00
  -17   13    2      2.45      0.00
  -15   13    2     -2.14      0.00
  -13   13    2      1.80      0.00
  -11   13    2     -0.65      0.00
   -9   13    2     -1.84      0.00
   -7   13    2      3.62      0.00
   -5   13    2     -5.17      0.00
   -3   13    2      7.00      0.00
   -1   13    2     -6.42      0.00
    1   13    2      1.93      0.00
    3   13    2      2.44      0.00
    5   13    2     -2.50      0.00
    7   13    2      3.35      0.00
    9   13    2     -7.30      0.00
   11   13    2      5.28      0.00
   13   13    2      1.82      0.00
   15   13    2     -3.95      0.00
   17   13    2      2.34      0.00
   19   13    2     -1.75      0.00
   21   13    2      2.02      0.00
   23   13    2     -1.13      0.00
   25   13    2     -4.14      0.00
   27   13    2     10.10      0.00
   29   13    2     -9.84      0.00
  -30   14    2      8.85      0.00
  -28   14    2     -6.52      0.00
  -26   14    2      1.16      0.00
  -24   14    2      1.04      0.00
  -22   14    2     -0.98      0.00
  -20   14    2      2.24      0.00
  -18   14    2     -2.25      0.00
  -16   14    2     -2.75      0.00
  -14   14    2      5.57      0.00
  -12   14    2     -1.75      0.00
  -10   14    2      0.88      0.00
   -8   14    2     -3.85      0.00
   -6   14    2      2.00      0.00
   -4   14    2      2.24      0.00
   -2   14    2     -4.30      0.00
    0   14    2      4.86      0.00
    2   14    2     -3.65      0.00
    4   14    2      3.20      0.00
    6   14    2     -4.52      0.00
    8   14    2      3.36      0.00
   10   14    2     -0.13      0.00
   12   14    2     -1.22      0.00
   14   14    2      0.24      0.00
   16   14    2      0.94      0.00
   18   14    2     -1.36      0.00
   20   14    2      2.31      0.00
   22   14    2     -2.92      0.00
   24   14    2      2.84      0.00
   26   14    2     -3.71      0.00
   28   14    2      0.77      0.00
   30   14    2      5.94      0.00
  -29   15    2     -8.47      0.00
  -27   15    2      8.84      0.00
  -25   15    2     -5.55      0.00
  -23   15    2      5.90      0.00
  -21   15    2     -4.56      0.00
  -19   15    2     -0.91      0.00
  -17   15    2      2.86      0.00
  -15   15    2     -0.66      0.00
  -13   15    2     -1.81      0.00
  -11   15    2      2.39      0.00
   -9   15    2     -0.04      0.00
   -7   15    2      0.04      0.00
   -5   15    2     -3.09      0.00
   -3   15    2      1.22      0.00
   -1   15    2      2.58      0.00
    1   15    2     -0.80      0.00
    3   15    2     -1.91      0.00
    5   15    2      1.84      0.00
    7   15    2     -1.40      0.00
    9   15    2      0.34      0.00
   11   15    2      0.38      0.00
   13   15    2      0.25      0.00
   15   15    2     -0.11      0.00
   17   15    2      0.86      0.00
   19   15    2     -2.44      0.00
   21   15    2      0.09      0.00
   23   15    2      2.90      0.00
   25   15    2     -2.66      0.00
   27   15    2      4.91      0.00
   29   15    2     -8.73      0.00
  -28   16    2     -2.82      0.00
  -26   16    2      2.22      0.00
  -24   16    2      0.51      0.00
  -22   16    2     -3.30      0.00
  -20   16    2      2.10      0.00
  -18   16    2     -0.22      0.00
  -16   16    2      0.27      0.00
  -14   16    2      0.59      0.00
  -12   16    2     -2.38      0.00
  -10   16    2      0.94      0.00
   -8   16    2      2.17      0.00
   -6   16    2     -1.85      0.00
   -4   16    2      0.53      0.00
   -2   16    2     -2.01      0.00
    0   16    2      2.81      0.00
    2   16    2     -0.44      0.00
    4   16    2     -0.96      0.00
    6   16    2     -1.24      0.00
    8   16    2      2.99      0.00
   10   16    2     -1.63      0.00
   12   16    2      0.05      0.00
   14   16    2      0.88      0.00
   16   16    2     -1.18      0.00
   18   16    2     -0.67      0.00
   20   16    2      1.92      0.00
   22   16    2     -0.65      0.00
   24   16    2      0.03      0.00
   26   16    2     -0.12      0.00
   28   16    2     -0.99      0.00
  -27   17    2      7.59      0.00
  -25   17    2     -7.05      0.00
  -23   17    2      4.48      0.00
  -21   17    2     -2.63      0.00
  -19   17    2      1.79      0.00
  -17   17    2     -0.16      0.00
  -15   17    2     -0.05      0.00
  -13   17    2     -0.89      0.00
  -11   17    2      0.38      0.00
   -9   17    2     -0.35      0.00
   -7   17    2     -0.26      0.00
   -5   17    2      2.45      0.00
   -3   17    2     -1.79      0.00
   -1   17    2      0.68      0.00
    1   17    2     -1.62      0.00
    3   17    2     -0.92      0.00
    5   17    2      3.97      0.00
    7   17    2     -2.09      0.00
    9   17    2      1.14      0.00
   11   17    2     -2.44      0.00
   13   17    2      1.04      0.00
   15   17    2      0.27      0.00
   17   17    2      1.05      0.00
   19   17    2     -0.59      0.00
   21   17    2     -2.91      0.00
   23   17    2      4.32      0.00
   25   17    2     -2.18      0.00
   27   17    2      2.18      0.00
  -26   18    2     -2.59      0.00
  -24   18    2      2.28      0.00
  -22   18    2     -4.16      0.00
  -20   18    2      5.62      0.00
  -18   18    2     -1.68      0.00
  -16   18    2     -0.16      0.00
  -14   18    2     -0.25      0.00
  -12   18    2     -1.74      0.00
  -10   18    2      1.30      0.00
   -8   18    2      0.26      0.00
   -6   18    2      1.03      0.00
   -4   18    2     -0.10      0.00
   -2   18    2     -1.54      0.00
    0   18    2     -0.67      0.00
    2   18    2      1.07      0.00
    4   18    2      1.38      0.00
    6   18    2     -0.62      0.00
    8   18    2     -2.75      0.00
   10   18    2      4.78      0.00
   12   18    2     -3.91      0.00
   14   18    2      1.95      0.00
   16   18    2     -2.70      0.00
   18   18    2      2.47      0.00
   20   18    2      2.22      0.00
   22   18    2     -2.55      0.00
   24   18    2     -2.94      0.00
   26   18    2      3.45      0.00
  -25   19    2     -4.96      0.00
  -23   19    2      4.74      0.00
  -21   19    2     -0.56      0.00
  -19   19    2     -0.50      0.00
  -17   19    2     -2.28      0.00
  -15   19    2      0.23      0.00
  -13   19    2      2.37      0.00
  -11   19    2      1.51      0.00
   -9   19    2     -2.84      0.00
   -7   19    2     -1.76      0.00
   -5   19    2      2.32      0.00
   -3   19    2      0.89      0.00
   -1   19    2     -1.33      0.00
    1   19    2      0.85      0.00
    3   19    2     -0.94      0.00
    5   19    2     -0.17      0.00
    7   19    2      0.90      0.00
    9   19    2      0.08      0.00
   11   19    2     -1.01      0.00
   13   19    2      0.99      0.00
   15   19    2     -1.05      0.00
   17   19    2      0.42      0.00
   19   19    2      2.65      0.00
   21   19    2     -5.95      0.00
   23   19    2      6.30      0.00
   25   19    2     -3.69      0.00
  -24   20    2      5.64      0.00
  -22   20    2     -5.73      0.00
  -20   20    2      2.12      0.00
  -18   20    2      0.16      0.00
  -16   20    2     -0.90      0.00
  -14   20    2      1.99      0.00
  -12   20    2     -2.96      0.00
  -10   20    2      2.41      0.00
   -8   20    2      0.95      0.00
   -6   20    2     -1.80      0.00
   -4   20    2     -2.30      0.00
   -2   20    2      1.95      0.00
    0   20    2      2.29      0.00
    2   20    2     -1.10      0.00
    4   20    2     -0.77      0.00
    6   20    2     -0.25      0.00
    8   20    2     -2.04      0.00
   10   20    2      4.64      0.00
   12   20    2     -3.61      0.00
   14   20    2      2.95      0.00
   16   20    2     -1.61      0.00
   18   20    2     -1.42      0.00
   20   20    2      1.30      0.00
   22   20    2      1.79      0.00
   24   20    2     -3.91      0.00
  -23   21    2      0.79      0.00
  -21   21    2      0.07      0.00
  -19   21    2     -3.50      0.00
  -17   21    2      1.08      0.00
  -15   21    2      2.52      0.00
  -13   21    2     -0.63      0.00
  -11   21    2      0.13      0.00
   -9   21    2     -1.50      0.00
   -7   21    2     -0.68      0.00
   -5   21    2      1.37      0.00
   -3   21    2      1.50      0.00
   -1   21    2     -1.50      0.00
    1   21    2     -0.45      0.00
    3   21    2     -0.37      0.00
    5   21    2      1.47      0.00
    7   21    2      0.36      0.00
    9   21    2     -1.91      0.00
   11   21    2     -0.60      0.00
   13   21    2      2.74      0.00
   15   21    2      0.82      0.00
   17   21    2     -4.43      0.00
   19   21    2      4.00      0.00
   21   21    2     -5.58      0.00
   23   21    2      7.48      0.00
  -22   22    2     -3.36      0.00
  -20   22    2      0.98      0.00
  -18   22    2      4.40      0.00
  -16   22    2     -3.45      0.00
  -14   22    2      0.88      0.00
  -12   22    2     -1.87      0.00
  -10   22    2     -0.33      0.00
   -8   22    2      2.73      0.00
   -6   22    2      0.31      0.00
   -4   22    2     -0.96      0.00
   -2   22    2     -2.24      0.00
    0   22    2      2.11      0.00
    2   22    2      0.01      0.00
    4   22    2     -0.44      0.00
    6   22    2     -0.48      0.00
    8   22    2      1.92      0.00
   10   22    2     -1.67      0.00
   12   22    2      0.54      0.00
   14   22    2     -1.68      0.00
   16   22    2      2.77      0.00
   18   22    2     -1.29      0.00
   20   22    2     -0.70      0.00
   22   22    2      2.34      0.00
  -21   23    2      3.67      0.00
  -19   23    2     -2.03      0.00
  -17   23    2     -0.51      0.00
  -15   23    2      0.87      0.00
  -13   23    2     -0.01      0.00
  -11   23    2     -1.20      0.00
   -9   23    2      1.86      0.00
   -7   23    2     -1.75      0.00
   -5   23    2      0.33      0.00
   -3   23    2      2.51      0.00
   -1   23    2     -1.88      0.00
    1   23    2     -2.35      0.00
    3   23    2      1.94      0.00
    5   23    2      1.87      0.00
    7   23    2     -1.79      0.00
    9   23    2     -0.01      0.00
   11   23    2      0.70      0.00
   13   23    2     -1.51      0.00
   15   23    2      1.43      0.00
   17   23    2     -2.25      0.00
   19   23    2      5.22      0.00
   21   23    2     -5.34      0.00
  -20   24    2      0.22      0.00
  -18   24    2      2.41      0.00
  -16   24    2     -1.84      0.00
  -14   24    2     -3.17      0.00
  -12   24    2      3.82      0.00
  -10   24    2      0.14      0.00
   -8   24    2     -1.14      0.00
   -6   24    2      0.84      0.00
   -4   24    2     -0.84      0.00
   -2   24    2     -2.99      0.00
    0   24    2      5.23      0.00
    2   24    2     -0.54      0.00
    4   24    2     -1.51      0.00
    6   24    2     -3.74      0.00
    8   24    2      6.25      0.00
   10   24    2     -3.03      0.00
   12   24    2      2.37      0.00
   14   24    2     -4.91      0.00
   16   24    2      3.65      0.00
   18   24    2      0.02      0.00
   20   24    2     -0.13      0.00
  -17   25    2     -1.56      0.00
  -15   25    2      1.54      0.00
  -13   25    2      3.54      0.00
  -11   25    2     -5.17      0.00
   -9   25    2      3.57      0.00
   -7   25    2     -1.76      0.00
   -5   25    2     -2.27      0.00
   -3   25    2      4.14      0.00
   -1   25    2     -0.30      0.00
    1   25    2     -2.58      0.00
    3   25    2      0.71      0.00
    5   25    2      1.38      0.00
    7   25    2      0.37      0.00
    9   25    2     -3.71      0.00
   11   25    2      3.15      0.00
   13   25    2     -0.58      0.00
   15   25    2      1.57      0.00
   17   25    2     -2.43      0.00
  -16   26    2      5.83      0.00
  -14   26    2     -6.27      0.00
  -12   26    2      2.92      0.00
  -10   26    2      0.20      0.00
   -8   26    2     -2.64      0.00
   -6   26    2      3.38      0.00
   -4   26    2     -0.78      0.00
   -2   26    2     -2.10      0.00
    0   26    2      1.58      0.00
    2   26    2      0.32      0.00
    4   26    2      0.89      0.00
    6   26    2     -4.03      0.00
    8   26    2      4.02      0.00
   10   26    2     -1.83      0.00
   12   26    2      1.21      0.00
   14   26    2     -0.74      0.00
   16   26    2      0.39      0.00
  -13   27    2      4.54      0.00
  -11   27    2     -5.57      0.00
   -9   27    2      1.61      0.00
   -7   27    2      1.11      0.00
   -5   27    2     -1.12      0.00
   -3   27    2      1.52      0.00
   -1   27    2     -0.01      0.00
    1   27    2     -1.96      0.00
    3   27    2     -0.88      0.00
    5   27    2      2.47      0.00
    7   27    2      2.81      0.00
    9   27    2     -6.19      0.00
   11   27    2      3.04      0.00
   13   27    2     -0.57      0.00
  -12   28    2      2.00      0.00
  -10   28    2      2.38      0.00
   -8   28    2     -2.00      0.00
   -6   28    2      1.27      0.00
   -4   28    2     -1.27      0.00
   -2   28    2      0.69      0.00
    0   28    2     -2.52      0.00
    2   28    2      4.93      0.00
    4   28    2     -1.95      0.00
    6   28    2     -2.78      0.00
    8   28    2      1.60      0.00
   10   28    2      2.69      0.00
   -7   29    2      1.01      0.00
   -5   29    2     -1.16      0.00
   -3   29    2     -0.33      0.00
   -1   29    2      2.55      0.00
    1   29    2     -1.23      0.00
    3   29    2     -2.14      0.00
    5   29    2      2.19      0.00
    7   29    2      1.51      0.00
  -33    1    3     -5.19      0.00
  -31    1    3      8.80      0.00
  -29    1    3     -6.35      0.00
  -27    1    3     -1.46      0.00
  -25    1    3      1.64      0.00
  -23    1    3     -0.76      0.00
  -21    1    3      1.92      0.00
  -19    1    3      2.81      0.00
  -17    1    3     -4.05      0.00
  -15    1    3      0.92      0.00
  -13    1    3     -1.05      0.00
  -11    1    3     -1.30      0.00
   -9    1    3      1.76      0.00
   -7    1    3     -1.10      0.00
   -5    1    3      6.22      0.00
   -3    1    3     -0.93      0.00
   -1    1    3     -6.80      0.00
    1    1    3     -3.82      0.00
    3    1    3      7.35      0.00
    5    1    3      3.63      0.00
    7    1    3     -3.04      0.00
    9    1    3     -2.10      0.00
   11    1    3      1.72      0.00
   13    1    3     -2.24      0.00
   15    1    3      0.35      0.00
   17    1    3      0.78      0.00
   19    1    3      0.68      0.00
   21    1    3      1.40      0.00
   23    1    3     -2.09      0.00
   25    1    3      1.93      0.00
   27    1    3     -3.22      0.00
   29    1    3     -0.89      0.00
   31    1    3      4.16      0.00
   33    1    3     -1.47      0.00
  -34    2    3      5.01      0.00
  -32    2    3      2.18      0.00
  -30    2    3     -9.38      0.00
  -28    2    3     12.30      0.00
  -26    2    3     -7.76      0.00
  -24    2    3     -3.58      0.00
  -22    2    3      7.20      0.00
  -20    2    3     -1.69      0.00
  -18    2    3      0.95      0.00
  -16    2    3     -1.11      0.00
  -14    2    3     -0.88      0.00
  -12    2    3      1.11      0.00
  -10    2    3     -5.58      0.00
   -8    2    3      3.77      0.00
   -6    2    3      6.73      0.00
   -4    2    3      1.56      0.00
   -2    2    3    -17.65      0.00
    0    2    3     13.57      0.00
    2    2    3     -8.39      0.00
    4    2    3     12.49      0.00
    6    2    3    -10.82      0.00
    8    2    3      7.36      0.00
   10    2    3     -5.44      0.00
   12    2    3      0.89      0.00
   14    2    3      2.13      0.00
   16    2    3     -3.20      0.00
   18    2    3      3.03      0.00
   20    2    3     -1.61      0.00
   22    2    3      1.05      0.00
   24    2    3      1.33      0.00
   26    2    3     -3.79      0.00
   28    2    3      3.90      0.00
   30    2    3     -4.75      0.00
   32    2    3      0.80      0.00
  -33    3    3    -12.69      0.00
  -31    3    3     11.91      0.00
  -29    3    3     -4.59      0.00
  -27    3    3     -6.44      0.00
  -25    3    3     11.35      0.00
  -23    3    3     -3.66      0.00
  -21    3    3     -4.92      0.00
  -19    3    3      6.34      0.00
  -17    3    3     -6.63      0.00
  -15    3    3      5.10      0.00
  -13    3    3     -2.63      0.00
  -11    3    3      1.68      0.00
   -9    3    3      7.95      0.00
   -7    3    3    -16.15      0.00
   -5    3    3      4.07      0.00
   -3    3    3      4.68      0.00
   -1    3    3      5.54      0.00
    1    3    3     -7.16      0.00
    3    3    3     -3.85      0.00
    5    3    3      6.78      0.00
    7    3    3     -3.37      0.00
    9    3    3      0.35      0.00
   11    3    3      3.11      0.00
   13    3    3     -3.74      0.00
   15    3    3      1.44      0.00
   17    3    3     -0.04      0.00
   19    3    3     -0.42      0.00
   21    3    3      2.26      0.00
   23    3    3     -4.59      0.00
   25    3    3      4.41      0.00
   27    3    3     -3.94      0.00
   29    3    3      3.24      0.00
   31    3    3      2.16      0.00
   33    3    3     -5.23      0.00
  -34    4    3     -9.18      0.00
  -32    4    3     14.45      0.00
  -30    4    3    -18.85      0.00
  -28    4    3     18.42      0.00
  -26    4    3     -3.90      0.00
  -24    4    3     -8.38      0.00
  -22    4    3     10.20      0.00
  -20    4    3     -9.38      0.00
  -18    4    3      2.52      0.00
  -16    4    3      4.15      0.00
  -14    4    3     -2.86      0.00
  -12    4    3      2.83      0.00
  -10    4    3     -3.91      0.00
   -8    4    3      2.66      0.00
   -6    4    3      0.21      0.00
   -4    4    3     -4.21      0.00
   -2    4    3     -4.31      0.00
    0    4    3     16.54      0.00
    2    4    3     -8.07      0.00
    4    4    3      1.21      0.00
    6    4    3    -12.07      0.00
    8    4    3     14.44      0.00
   10    4    3     -6.68      0.00
   12    4    3      0.70      0.00
   14    4    3      4.99      0.00
   16    4    3     -3.82      0.00
   18    4    3      0.09      0.00
   20    4    3     -1.89      0.00
   22    4    3      0.97      0.00
   24    4    3      0.76      0.00
   26    4    3     -1.22      0.00
   28    4    3      6.40      0.00
   30    4    3     -7.30      0.00
   32    4    3      0.86      0.00
  -33    5    3     -4.39      0.00
  -31    5    3     -1.76      0.00
  -29    5    3      8.68      0.00
  -27    5    3    -17.01      0.00
  -25    5    3     17.57      0.00
  -23    5    3     -4.71      0.00
  -21    5    3     -7.27      0.00
  -19    5    3      9.67      0.00
  -17    5    3    -10.53      0.00
  -15    5    3      8.43      0.00
  -13    5    3     -1.99      0.00
  -11    5    3     -1.63      0.00
   -9    5    3      8.41      0.00
   -7    5    3    -16.36      0.00
   -5    5    3      9.79      0.00
   -3    5    3     -0.55      0.00
   -1    5    3      3.42      0.00
    1    5    3     -2.61      0.00
    3    5    3     -8.05      0.00
    5    5    3     14.06      0.00
    7    5    3    -10.43      0.00
    9    5    3      2.33      0.00
   11    5    3      3.38      0.00
   13    5    3     -3.07      0.00
   15    5    3      0.46      0.00
   17    5    3      0.48      0.00
   19    5    3      0.17      0.00
   21    5    3      0.14      0.00
   23    5    3     -2.46      0.00
   25    5    3      4.62      0.00
   27    5    3     -6.74      0.00
   29    5    3      7.25      0.00
   31    5    3     -3.06      0.00
   33    5    3      0.68      0.00
  -32    6    3     22.97      0.00
  -30    6    3    -20.65      0.00
  -28    6    3     14.85      0.00
  -26    6    3     -3.82      0.00
  -24    6    3     -9.99      0.00
  -22    6    3     12.85      0.00
  -20    6    3     -6.73      0.00
  -18    6    3      3.74      0.00
  -16    6    3      1.02      0.00
  -14    6    3     -5.76      0.00
  -12    6    3      3.55      0.00
  -10    6    3     -4.40      0.00
   -8    6    3      2.15      0.00
   -6    6    3     10.38      0.00
   -4    6    3     -9.36      0.00
   -2    6    3     -1.78      0.00
    0    6    3     -2.87      0.00
    2    6    3      8.79      0.00
    4    6    3     -1.27      0.00
    6    6    3     -5.69      0.00
    8    6    3      7.17      0.00
   10    6    3     -4.52      0.00
   12    6    3     -1.12      0.00
   14    6    3      2.34      0.00
   16    6    3      0.06      0.00
   18    6    3     -0.40      0.00
   20    6    3     -1.11      0.00
   22    6    3      1.71      0.00
   24    6    3      0.01      0.00
   26    6    3     -0.73      0.00
   28    6    3      1.78      0.00
   30    6    3     -6.94      0.00
   32    6    3      7.81      0.00
  -33    7    3      5.20      0.00
  -31    7    3    -10.67      0.00
  -29    7    3     10.95      0.00
  -27    7    3    -14.35      0.00
  -25    7    3     13.08      0.00
  -23    7    3     -5.13      0.00
  -21    7    3     -2.00      0.00
  -19    7    3      8.66      0.00
  -17    7    3    -11.17      0.00
  -15    7    3      7.41      0.00
  -13    7    3     -2.78      0.00
  -11    7    3     -3.03      0.00
   -9    7    3      8.25      0.00
   -7    7    3    -10.01      0.00
   -5    7    3      8.13      0.00
   -3    7    3      0.03      0.00
   -1    7    3     -4.46      0.00
    1    7    3      0.91      0.00
    3    7    3     -6.42      0.00
    5    7    3     14.91      0.00
    7    7    3     -9.45      0.00
    9    7    3      1.46      0.00
   11    7    3      1.16      0.00
   13    7    3     -1.53      0.00
   15    7    3     -1.18      0.00
   17    7    3      0.28      0.00
   19    7    3      2.87      0.00
   21    7    3      0.00      0.00
   23    7    3     -3.00      0.00
   25    7    3      4.59      0.00
   27    7    3     -7.50      0.00
   29    7    3      6.42      0.00
   31    7    3     -4.16      0.00
   33    7    3      4.25      0.00
  -32    8    3      9.84      0.00
  -30    8    3     -7.58      0.00
  -28    8    3     10.41      0.00
  -26    8    3     -7.33      0.00
  -24    8    3     -2.12      0.00
  -22    8    3      5.43      0.00
  -20    8    3     -4.07      0.00
  -18    8    3      5.14      0.00
  -16    8    3     -2.58      0.00
  -14    8    3     -4.04      0.00
  -12    8    3      4.76      0.00
  -10    8    3     -0.34      0.00
   -8    8    3     -3.67      0.00
   -6    8    3      8.37      0.00
   -4    8    3    -11.00      0.00
   -2    8    3      7.65      0.00
    0    8    3     -4.45      0.00
    2    8    3      6.36      0.00
    4    8    3     -6.80      0.00
    6    8    3      1.51      0.00
    8    8    3      2.71      0.00
   10    8    3     -1.23      0.00
   12    8    3     -1.35      0.00
   14    8    3      0.69      0.00
   16    8    3      1.50      0.00
   18    8    3     -1.48      0.00
   20    8    3     -1.21      0.00
   22    8    3      3.22      0.00
   24    8    3     -2.39      0.00
   26    8    3     -0.66      0.00
   28    8    3      4.39      0.00
   30    8    3     -6.11      0.00
   32    8    3      5.20      0.00
  -31    9    3     -2.08      0.00
  -29    9    3     -1.70      0.00
  -27    9    3     -1.13      0.00
  -25    9    3      4.75      0.00
  -23    9    3     -1.35      0.00
  -21    9    3     -1.53      0.00
  -19    9    3     -0.40      0.00
  -17    9    3     -3.84      0.00
  -15    9    3      8.67      0.00
  -13    9    3     -2.61      0.00
  -11    9    3     -3.23      0.00
   -9    9    3      4.33      0.00
   -7    9    3     -4.86      0.00
   -5    9    3     -1.26      0.00
   -3    9    3      7.11      0.00
   -1    9    3     -4.05      0.00
    1    9    3      2.56      0.00
    3    9    3     -5.17      0.00
    5    9    3      5.94      0.00
    7    9    3     -4.28      0.00
    9    9    3     -0.49      0.00
   11    9    3      2.45      0.00
   13    9    3      1.36      0.00
   15    9    3     -2.08      0.00
   17    9    3     -0.63      0.00
   19    9    3      0.94      0.00
   21    9    3      1.52      0.00
   23    9    3     -5.50      0.00
   25    9    3      6.62      0.00
   27    9    3     -4.55      0.00
   29    9    3      3.03      0.00
   31    9    3     -0.01      0.00
  -32   10    3     -5.81      0.00
  -30   10    3      4.65      0.00
  -28   10    3      3.74      0.00
  -26   10    3     -7.04      0.00
  -24   10    3      3.06      0.00
  -22   10    3     -0.64      0.00
  -20   10    3      0.00      0.00
  -18   10    3      2.20      0.00
  -16   10    3     -4.35      0.00
  -14   10    3      2.41      0.00
  -12   10    3      1.77      0.00
  -10   10    3      0.06      0.00
   -8   10    3     -6.04      0.00
   -6   10    3      7.91      0.00
   -4   10    3     -5.92      0.00
   -2   10    3      2.06      0.00
    0   10    3     -0.23      0.00
    2   10    3      3.64      0.00
    4   10    3     -3.66      0.00
    6   10    3     -1.69      0.00
    8   10    3      3.02      0.00
   10   10    3     -0.68      0.00
   12   10    3     -1.11      0.00
   14   10    3      1.20      0.00
   16   10    3      1.23      0.00
   18   10    3     -1.07      0.00
   20   10    3     -2.70      0.00
   22   10    3      4.15      0.00
   24   10    3     -2.81      0.00
   26   10    3     -0.94      0.00
   28   10    3      4.79      0.00
   30   10    3     -3.44      0.00
   32   10    3      0.91      0.00
  -31   11    3      3.96      0.00
  -29   11    3    -11.90      0.00
  -27   11    3      7.34      0.00
  -25   11    3     -0.34      0.00
  -23   11    3      3.00      0.00
  -21   11    3     -4.73      0.00
  -19   11    3     -0.70      0.00
  -17   11    3      2.07      0.00
  -15   11    3      2.21      0.00
  -13   11    3     -2.92      0.00
  -11   11    3     -0.37      0.00
   -9   11    3      1.28      0.00
   -7   11    3      2.25      0.00
   -5   11    3     -6.07      0.00
   -3   11    3      6.08      0.00
   -1   11    3     -3.13      0.00
    1   11    3      1.20      0.00
    3   11    3     -2.65      0.00
    5   11    3      4.36      0.00
    7   11    3     -2.24      0.00
    9   11    3     -1.48      0.00
   11   11    3      2.54      0.00
   13   11    3     -0.41      0.00
   15   11    3     -2.52      0.00
   17   11    3      3.30      0.00
   19   11    3     -1.98      0.00
   21   11    3      1.25      0.00
   23   11    3     -3.40      0.00
   25   11    3      7.21      0.00
   27   11    3     -6.38      0.00
   29   11    3     -0.43      0.00
   31   11    3      4.88      0.00
  -30   12    3      7.76      0.00
  -28   12    3      1.13      0.00
  -26   12    3     -1.29      0.00
  -24   12    3     -2.15      0.00
  -22   12    3     -1.30      0.00
  -20   12    3      5.40      0.00
  -18   12    3     -0.75      0.00
  -16   12    3     -3.61      0.00
  -14   12    3      1.63      0.00
  -12   12    3     -2.59      0.00
  -10   12    3      5.56      0.00
   -8   12    3     -4.36      0.00
   -6   12    3      2.76      0.00
   -4   12    3     -0.67      0.00
   -2   12    3     -2.64      0.00
    0   12    3      2.00      0.00
    2   12    3      0.91      0.00
    4   12    3     -0.55      0.00
    6   12    3     -3.72      0.00
    8   12    3      7.10      0.00
   10   12    3     -3.69      0.00
   12   12    3     -2.05      0.00
   14   12    3      2.96      0.00
   16   12    3     -1.24      0.00
   18   12    3     -0.26      0.00
   20   12    3     -0.59      0.00
   22   12    3      4.57      0.00
   24   12    3     -5.62      0.00
   26   12    3      2.03      0.00
   28   12    3      1.42      0.00
   30   12    3     -2.04      0.00
  -31   13    3      4.44      0.00
  -29   13    3     -8.72      0.00
  -27   13    3      5.58      0.00
  -25   13    3     -2.80      0.00
  -23   13    3      5.35      0.00
  -21   13    3     -6.95      0.00
  -19   13    3      3.08      0.00
  -17   13    3      1.97      0.00
  -15   13    3     -1.91      0.00
  -13   13    3     -0.84      0.00
  -11   13    3      0.99      0.00
   -9   13    3     -2.01      0.00
   -7   13    3      5.75      0.00
   -5   13    3     -7.11      0.00
   -3   13    3      4.63      0.00
   -1   13    3     -0.32      0.00
    1   13    3     -1.28      0.00
    3   13    3     -3.26      0.00
    5   13    3      6.64      0.00
    7   13    3     -3.06      0.00
    9   13    3     -1.38      0.00
   11   13    3      2.08      0.00
   13   13    3      0.13      0.00
   15   13    3     -3.07      0.00
   17   13    3      3.10      0.00
   19   13    3     -0.29      0.00
   21   13    3     -1.99      0.00
   23   13    3      0.74      0.00
   25   13    3      4.43      0.00
   27   13    3     -6.68      0.00
   29   13    3      2.27      0.00
  -30   14    3      7.60      0.00
  -28   14    3      0.50      0.00
  -26   14    3     -3.67      0.00
  -24   14    3     -1.76      0.00
  -22   14    3      0.61      0.00
  -20   14    3      6.55      0.00
  -18   14    3     -6.62      0.00
  -16   14    3      1.54      0.00
  -14   14    3      2.37      0.00
  -12   14    3     -4.37      0.00
  -10   14    3      4.40      0.00
   -8   14    3     -4.63      0.00
   -6   14    3      3.26      0.00
   -4   14    3      2.95      0.00
   -2   14    3     -6.09      0.00
    0   14    3      1.20      0.00
    2   14    3      1.89      0.00
    4   14    3      1.88      0.00
    6   14    3     -5.03      0.00
    8   14    3      3.82      0.00
   10   14    3     -1.13      0.00
   12   14    3     -1.55      0.00
   14   14    3      3.00      0.00
   16   14    3     -2.16      0.00
   18   14    3      0.42      0.00
   20   14    3      0.31      0.00
   22   14    3      3.03      0.00
   24   14    3     -8.67      0.00
   26   14    3      7.44      0.00
   28   14    3     -0.24      0.00
  -29   15    3     -8.63      0.00
  -27   15    3      3.54      0.00
  -25   15    3     -1.28      0.00
  -23   15    3      5.42      0.00
  -21   15    3     -5.77      0.00
  -19   15    3      2.14      0.00
  -17   15    3     -1.03      0.00
  -15   15    3     -1.02      0.00
  -13   15    3      3.86      0.00
  -11   15    3      0.10      0.00
   -9   15    3     -5.74      0.00
   -7   15    3      5.41      0.00
   -5   15    3     -4.46      0.00
   -3   15    3      4.36      0.00
   -1   15    3     -1.61      0.00
    1   15    3      0.15      0.00
    3   15    3     -1.97      0.00
    5   15    3      3.02      0.00
    7   15    3     -1.70      0.00
    9   15    3     -0.15      0.00
   11   15    3      0.38      0.00
   13   15    3      0.61      0.00
   15   15    3     -1.34      0.00
   17   15    3      0.69      0.00
   19   15    3      3.07      0.00
   21   15    3     -7.10      0.00
   23   15    3      5.71      0.00
   25   15    3      0.37      0.00
   27   15    3     -6.22      0.00
   29   15    3      6.78      0.00
  -28   16    3      5.12      0.00
  -26   16    3     -6.83      0.00
  -24   16    3      6.41      0.00
  -22   16    3     -6.68      0.00
  -20   16    3      7.07      0.00
  -18   16    3     -7.61      0.00
  -16   16    3      5.55      0.00
  -14   16    3     -0.86      0.00
  -12   16    3     -3.12      0.00
  -10   16    3      4.90      0.00
   -8   16    3     -2.63      0.00
   -6   16    3     -0.76      0.00
   -4   16    3      0.63      0.00
   -2   16    3     -1.18      0.00
    0   16    3      2.99      0.00
    2   16    3     -1.28      0.00
    4   16    3      0.27      0.00
    6   16    3     -1.95      0.00
    8   16    3      0.42      0.00
   10   16    3      2.77      0.00
   12   16    3     -3.11      0.00
   14   16    3      1.95      0.00
   16   16    3     -0.37      0.00
   18   16    3     -1.19      0.00
   20   16    3      0.81      0.00
   22   16    3      2.43      0.00
   24   16    3     -6.65      0.00
   26   16    3      6.66      0.00
   28   16    3     -1.42      0.00
  -27   17    3      5.86      0.00
  -25   17    3     -0.40      0.00
  -23   17    3      2.30      0.00
  -21   17    3     -5.07      0.00
  -19   17    3      0.82      0.00
  -17   17    3      2.78      0.00
  -15   17    3     -2.87      0.00
  -13   17    3      2.47      0.00
  -11   17    3     -0.25      0.00
   -9   17    3     -1.54      0.00
   -7   17    3      1.47      0.00
   -5   17    3     -2.80      0.00
   -3   17    3      3.16      0.00
   -1   17    3     -0.78      0.00
    1   17    3      0.58      0.00
    3   17    3     -1.82      0.00
    5   17    3     -0.18      0.00
    7   17    3      2.99      0.00
    9   17    3     -2.40      0.00
   11   17    3     -0.95      0.00
   13   17    3      2.99      0.00
   15   17    3     -0.35      0.00
   17   17    3     -3.08      0.00
   19   17    3      3.02      0.00
   21   17    3     -4.97      0.00
   23   17    3      8.73      0.00
   25   17    3     -4.48      0.00
   27   17    3     -4.01      0.00
  -26   18    3     -9.75      0.00
  -24   18    3      7.23      0.00
  -22   18    3    -10.43      0.00
  -20   18    3     12.06      0.00
  -18   18    3     -7.27      0.00
  -16   18    3      4.87      0.00
  -14   18    3     -3.19      0.00
  -12   18    3     -1.95      0.00
  -10   18    3      1.63      0.00
   -8   18    3      2.69      0.00
   -6   18    3     -1.17      0.00
   -4   18    3     -1.19      0.00
   -2   18    3     -0.37      0.00
    0   18    3      0.99      0.00
    2   18    3     -0.81      0.00
    4   18    3      1.37      0.00
    6   18    3     -0.31      0.00
    8   18    3     -1.99      0.00
   10   18    3      3.02      0.00
   12   18    3     -1.71      0.00
   14   18    3     -0.39      0.00
   16   18    3      1.20      0.00
   18   18    3     -1.89      0.00
   20   18    3      3.24      0.00
   22   18    3     -2.75      0.00
   24   18    3     -0.82      0.00
   26   18    3      4.12      0.00
  -25   19    3     -2.56      0.00
  -23   19    3      4.49      0.00
  -21   19    3     -1.60      0.00
  -19   19    3     -1.67      0.00
  -17   19    3      3.61      0.00
  -15   19    3     -4.13      0.00
  -13   19    3      3.27      0.00
  -11   19    3     -2.25      0.00
   -9   19    3      0.62      0.00
   -7   19    3     -1.20      0.00
   -5   19    3      3.75      0.00
   -3   19    3     -1.18      0.00
   -1   19    3     -2.42      0.00
    1   19    3     -0.35      0.00
    3   19    3      2.82      0.00
    5   19    3     -2.00      0.00
    7   19    3      2.69      0.00
    9   19    3     -2.03      0.00
   11   19    3     -0.66      0.00
   13   19    3      0.60      0.00
   15   19    3     -0.16      0.00
   17   19    3      1.39      0.00
   19   19    3     -0.37      0.00
   21   19    3     -2.99      0.00
   23   19    3      5.57      0.00
   25   19    3     -5.30      0.00
  -24   20    3      3.47      0.00
  -22   20    3     -7.30      0.00
  -20   20    3     12.08      0.00
  -18   20    3     -7.79      0.00
  -16   20    3      0.75      0.00
  -14   20    3     -1.38      0.00
  -12   20    3      3.74      0.00
  -10   20    3     -2.58      0.00
   -8   20    3      2.24      0.00
   -6   20    3     -1.97      0.00
   -4   20    3     -0.01      0.00
   -2   20    3     -0.41      0.00
    0   20    3      2.08      0.00
    2   20    3     -0.68      0.00
    4   20    3     -0.58      0.00
    6   20    3     -0.89      0.00
    8   20    3      1.08      0.00
   10   20    3      0.35      0.00
   12   20    3      1.36      0.00
   14   20    3     -4.55      0.00
   16   20    3      2.86      0.00
   18   20    3     -0.29      0.00
   20   20    3      4.78      0.00
   22   20    3     -8.82      0.00
   24   20    3      3.70      0.00
  -23   21    3      5.57      0.00
  -21   21    3     -3.30      0.00
  -19   21    3     -5.29      0.00
  -17   21    3      5.04      0.00
  -15   21    3     -0.46      0.00
  -13   21    3      1.34      0.00
  -11   21    3     -2.31      0.00
   -9   21    3      2.68      0.00
   -7   21    3     -4.63      0.00
   -5   21    3      2.94      0.00
   -3   21    3     -0.07      0.00
   -1   21    3      1.42      0.00
    1   21    3     -3.17      0.00
    3   21    3      3.08      0.00
    5   21    3     -2.81      0.00
    7   21    3      1.93      0.00
    9   21    3     -0.49      0.00
   11   21    3     -0.32      0.00
   13   21    3     -0.81      0.00
   15   21    3      2.22      0.00
   17   21    3      0.83      0.00
   19   21    3     -5.29      0.00
   21   21    3      3.01      0.00
   23   21    3      3.62      0.00
  -22   22    3     -6.11      0.00
  -20   22    3      6.98      0.00
  -18   22    3     -2.96      0.00
  -16   22    3      0.63      0.00
  -14   22    3     -1.86      0.00
  -12   22    3      4.34      0.00
  -10   22    3     -4.48      0.00
   -8   22    3      2.75      0.00
   -6   22    3     -1.41      0.00
   -4   22    3      0.29      0.00
   -2   22    3     -0.98      0.00
    0   22    3      3.10      0.00
    2   22    3     -2.58      0.00
    4   22    3      0.79      0.00
    6   22    3     -0.38      0.00
    8   22    3      0.91      0.00
   10   22    3     -4.82      0.00
   12   22    3      8.78      0.00
   14   22    3     -4.17      0.00
   16   22    3     -2.01      0.00
   18   22    3     -1.33      0.00
   20   22    3      6.90      0.00
   22   22    3     -6.43      0.00
  -21   23    3     -0.61      0.00
  -19   23    3     -4.85      0.00
  -17   23    3      4.64      0.00
  -15   23    3      1.90      0.00
  -13   23    3     -3.29      0.00
  -11   23    3     -1.48      0.00
   -9   23    3      2.38      0.00
   -7   23    3     -1.15      0.00
   -5   23    3      1.95      0.00
   -3   23    3     -0.51      0.00
   -1   23    3     -0.61      0.00
    1   23    3     -2.43      0.00
    3   23    3      3.45      0.00
    5   23    3     -1.49      0.00
    7   23    3      1.03      0.00
    9   23    3     -0.34      0.00
   11   23    3      0.28      0.00
   13   23    3     -4.36      0.00
   15   23    3      6.22      0.00
   17   23    3      0.27      0.00
   19   23    3     -6.92      0.00
   21   23    3      4.20      0.00
  -20   24    3      6.74      0.00
  -18   24    3     -1.25      0.00
  -16   24    3     -1.53      0.00
  -14   24    3     -3.08      0.00
  -12   24    3      4.96      0.00
  -10   24    3     -3.41      0.00
   -8   24    3      2.74      0.00
   -6   24    3     -0.65      0.00
   -4   24    3     -0.96      0.00
   -2   24    3     -0.58      0.00
    0   24    3      1.56      0.00
    2   24    3     -1.34      0.00
    4   24    3      1.87      0.00
    6   24    3     -1.93      0.00
    8   24    3      2.17      0.00
   10   24    3     -4.64      0.00
   12   24    3      6.66      0.00
   14   24    3     -3.37      0.00
   16   24    3     -3.16      0.00
   18   24    3      3.35      0.00
  -17   25    3      1.31      0.00
  -15   25    3      0.96      0.00
  -13   25    3     -1.82      0.00
  -11   25    3      2.32      0.00
   -9   25    3     -0.73      0.00
   -7   25    3     -0.98      0.00
   -5   25    3      0.40      0.00
   -3   25    3      0.29      0.00
   -1   25    3     -0.65      0.00
    1   25    3      1.68      0.00
    3   25    3     -1.02      0.00
    5   25    3     -1.88      0.00
    7   25    3      2.25      0.00
    9   25    3      0.68      0.00
   11   25    3      1.28      0.00
   13   25    3     -8.55      0.00
   15   25    3      7.36      0.00
   17   25    3      3.07      0.00
  -16   26    3      1.27      0.00
  -14   26    3     -2.41      0.00
  -12   26    3      3.32      0.00
  -10   26    3     -2.16      0.00
   -8   26    3      1.45      0.00
   -6   26    3     -0.66      0.00
   -4   26    3     -1.93      0.00
   -2   26    3      2.57      0.00
    0   26    3     -0.70      0.00
    2   26    3     -0.54      0.00
    4   26    3      1.83      0.00
    6   26    3     -2.02      0.00
    8   26    3      0.29      0.00
   10   26    3     -1.61      0.00
   12   26    3      3.45      0.00
   14   26    3      1.54      0.00
   16   26    3     -6.69      0.00
  -13   27    3     -0.58      0.00
  -11   27    3     -0.10      0.00
   -9   27    3     -1.06      0.00
   -7   27    3     -0.06      0.00
   -5   27    3      0.92      0.00
   -3   27    3      1.39      0.00
   -1   27    3     -2.35      0.00
    1   27    3      1.57      0.00
    3   27    3     -1.61      0.00
    5   27    3      0.19      0.00
    7   27    3      1.87      0.00
    9   27    3     -1.94      0.00
   11   27    3      2.68      0.00
   13   27    3     -4.37      0.00
  -10   28    3     -1.44      0.00
   -8   28    3      0.96      0.00
   -6   28    3      1.78      0.00
   -4   28    3     -2.14      0.00
   -2   28    3      0.91      0.00
    0   28    3     -0.86      0.00
    2   28    3     -0.13      0.00
    4   28    3      1.49      0.00
    6   28    3     -0.34      0.00
    8   28    3     -1.27      0.00
   10   28    3      0.57      0.00
   -7   29    3     -1.73      0.00
   -5   29    3     -0.05      0.00
   -3   29    3      1.82      0.00
   -1   29    3     -1.29      0.00
    1   29    3      0.54      0.00
    3   29    3     -0.60      0.00
    5   29    3     -0.29      0.00
    7   29    3      1.31      0.00
  -32    0    4     16.50      0.00
  -30    0    4    -16.44      0.00
  -28    0    4     14.85      0.00
  -26    0    4      0.52      0.00
  -24    0    4     -8.63      0.00
  -22    0    4      4.09      0.00
  -20    0    4     -2.90      0.00
  -18    0    4     -4.07      0.00
  -16    0    4     14.02      0.00
  -14    0    4     -8.13      0.00
  -12    0    4     -3.04      0.00
  -10    0    4      8.86      0.00
   -8    0    4    -13.50      0.00
   -6    0    4     14.22      0.00
   -4    0    4     -8.91      0.00
   -2    0    4     -5.73      0.00
    0    0    4     24.26      0.00
    2    0    4    -30.54      0.00
    4    0    4     29.42      0.00
    6    0    4    -25.23      0.00
    8    0    4     10.04      0.00
   10    0    4      2.90      0.00
   12    0    4     -5.46      0.00
   14    0    4      5.85      0.00
   16    0    4     -1.02      0.00
   18    0    4     -4.37      0.00
   20    0    4      3.64      0.00
   22    0    4     -3.38      0.00
   24    0    4      0.30      0.00
   26    0    4      2.88      0.00
   28    0    4      2.13      0.00
   30    0    4     -1.41      0.00
   32    0    4     -6.43      0.00
  -33    1    4      5.14      0.00
  -31    1    4     -7.06      0.00
  -29    1    4      9.40      0.00
  -27    1    4    -14.73      0.00
  -25    1    4     12.70      0.00
  -23    1    4     -0.82      0.00
  -21    1    4     -7.49      0.00
  -19    1    4      8.26      0.00
  -17    1    4     -5.99      0.00
  -15    1    4     -2.67      0.00
  -13    1    4      9.91      0.00
  -11    1    4     -6.78      0.00
   -9    1    4      7.44      0.00
   -7    1    4     -8.01      0.00
   -5    1    4     -9.21      0.00
   -3    1    4     20.98      0.00
   -1    1    4    -12.26      0.00
    1    1    4      9.38      0.00
    3    1    4    -10.29      0.00
    5    1    4     -3.96      0.00
    7    1    4     15.78      0.00
    9    1    4    -12.05      0.00
   11    1    4      5.62      0.00
   13    1    4     -1.57      0.00
   15    1    4     -1.41      0.00
   17    1    4      0.95      0.00
   19    1    4      1.73      0.00
   21    1    4     -4.00      0.00
   23    1    4      5.17      0.00
   25    1    4     -3.86      0.00
   27    1    4      0.46      0.00
   29    1    4      0.37      0.00
   31    1    4      1.37      0.00
   33    1    4      0.92      0.00
  -34    2    4    -18.24      0.00
  -32    2    4     17.00      0.00
  -30    2    4    -13.68      0.00
  -28    2    4     10.21      0.00
  -26    2    4     -2.03      0.00
  -24    2    4     -7.85      0.00
  -22    2    4      7.07      0.00
  -20    2    4      1.27      0.00
  -18    2    4     -6.40      0.00
  -16    2    4     10.37      0.00
  -14    2    4     -7.70      0.00
  -12    2    4     -2.46      0.00
  -10    2    4      3.14      0.00
   -8    2    4     -4.86      0.00
   -6    2    4     16.63      0.00
   -4    2    4     -8.35      0.00
   -2    2    4    -11.79      0.00
    0    2    4     10.44      0.00
    2    2    4     -9.12      0.00
    4    2    4     20.40      0.00
    6    2    4    -16.43      0.00
    8    2    4      1.30      0.00
   10    2    4      4.95      0.00
   12    2    4     -5.68      0.00
   14    2    4      4.24      0.00
   16    2    4     -0.48      0.00
   18    2    4     -2.39      0.00
   20    2    4      3.59      0.00
   22    2    4     -2.97      0.00
   24    2    4      1.29      0.00
   26    2    4      0.39      0.00
   28    2    4     -0.34      0.00
   30    2    4     -1.63      0.00
   32    2    4      0.14      0.00
  -33    3    4     13.65      0.00
  -31    3    4    -15.61      0.00
  -29    3    4     14.03      0.00
  -27    3    4    -16.36      0.00
  -25    3    4     10.14      0.00
  -23    3    4     -1.34      0.00
  -21    3    4     -0.70      0.00
  -19    3    4      5.85      0.00
  -17    3    4     -6.72      0.00
  -15    3    4     -4.08      0.00
  -13    3    4     10.12      0.00
  -11    3    4     -8.28      0.00
   -9    3    4      6.44      0.00
   -7    3    4     -5.03      0.00
   -5    3    4      3.82      0.00
   -3    3    4      1.30      0.00
   -1    3    4     -5.43      0.00
    1    3    4      0.95      0.00
    3    3    4      1.05      0.00
    5    3    4     -0.29      0.00
    7    3    4      4.99      0.00
    9    3    4     -5.39      0.00
   11    3    4      1.71      0.00
   13    3    4     -1.04      0.00
   15    3    4     -1.71      0.00
   17    3    4      2.69      0.00
   19    3    4      0.25      0.00
   21    3    4     -1.52      0.00
   23    3    4      3.94      0.00
   25    3    4     -3.25      0.00
   27    3    4     -2.08      0.00
   29    3    4      0.67      0.00
   31    3    4      1.73      0.00
   33    3    4      2.06      0.00
  -32    4    4      8.24      0.00
  -30    4    4     -1.97      0.00
  -28    4    4      2.10      0.00
  -26    4    4     -0.19      0.00
  -24    4    4     -3.25      0.00
  -22    4    4      1.76      0.00
  -20    4    4      1.77      0.00
  -18    4    4     -5.22      0.00
  -16    4    4      9.92      0.00
  -14    4    4     -9.43      0.00
  -12    4    4      2.45      0.00
  -10    4    4      1.25      0.00
   -8    4    4     -1.66      0.00
   -6    4    4      4.30      0.00
   -4    4    4     -4.56      0.00
   -2    4    4      1.71      0.00
    0    4    4     -2.43      0.00
    2    4    4      4.52      0.00
    4    4    4     -3.87      0.00
    6    4    4      4.42      0.00
    8    4    4     -6.74      0.00
   10    4    4      6.54      0.00
   12    4    4     -4.73      0.00
   14    4    4      3.67      0.00
   16    4    4     -2.02      0.00
   18    4    4     -0.93      0.00
   20    4    4      3.90      0.00
   22    4    4     -4.51      0.00
   24    4    4      1.51      0.00
   26    4    4      0.47      0.00
   28    4    4      1.75      0.00
   30    4    4     -2.91      0.00
   32    4    4      1.60      0.00
  -33    5    4     20.50      0.00
  -31    5    4    -19.44      0.00
  -29    5    4     12.12      0.00
  -27    5    4     -7.49      0.00
  -25    5    4      7.35      0.00
  -23    5    4     -2.94      0.00
  -21    5    4     -2.40      0.00
  -19    5    4      1.39      0.00
  -17    5    4     -0.84      0.00
  -15    5    4     -2.18      0.00
  -13    5    4     10.08      0.00
  -11    5    4     -9.80      0.00
   -9    5    4      7.91      0.00
   -7    5    4    -10.11      0.00
   -5    5    4      2.32      0.00
   -3    5    4      2.35      0.00
   -1    5    4      6.87      0.00
    1    5    4     -7.07      0.00
    3    5    4      0.75      0.00
    5    5    4     -3.73      0.00
    7    5    4      4.94      0.00
    9    5    4     -1.47      0.00
   11    5    4      0.52      0.00
   13    5    4      0.10      0.00
   15    5    4     -0.14      0.00
   17    5    4      0.71      0.00
   19    5    4     -2.58      0.00
   21    5    4      1.37      0.00
   23    5    4      1.23      0.00
   25    5    4     -2.86      0.00
   27    5    4      2.75      0.00
   29    5    4      0.11      0.00
   31    5    4     -0.23      0.00
   33    5    4     -2.32      0.00
  -32    6    4     -7.07      0.00
  -30    6    4     11.86      0.00
  -28    6    4     -6.74      0.00
  -26    6    4      1.52      0.00
  -24    6    4      1.66      0.00
  -22    6    4     -2.87      0.00
  -20    6    4      0.84      0.00
  -18    6    4     -3.44      0.00
  -16    6    4      9.60      0.00
  -14    6    4     -9.36      0.00
  -12    6    4      4.37      0.00
  -10    6    4      0.90      0.00
   -8    6    4     -4.20      0.00
   -6    6    4      4.24      0.00
   -4    6    4     -4.44      0.00
   -2    6    4      2.65      0.00
    0    6    4      0.48      0.00
    2    6    4      3.22      0.00
    4    6    4     -7.84      0.00
    6    6    4      7.02      0.00
    8    6    4     -6.68      0.00
   10    6    4      5.06      0.00
   12    6    4     -1.55      0.00
   14    6    4      1.45      0.00
   16    6    4     -1.29      0.00
   18    6    4     -0.50      0.00
   20    6    4      2.24      0.00
   22    6    4     -4.70      0.00
   24    6    4      3.59      0.00
   26    6    4     -0.12      0.00
   28    6    4     -0.07      0.00
   30    6    4      0.25      0.00
   32    6    4     -0.28      0.00
  -33    7    4     18.85      0.00
  -31    7    4    -12.31      0.00
  -29    7    4      1.86      0.00
  -27    7    4      1.01      0.00
  -25    7    4      1.31      0.00
  -23    7    4     -2.16      0.00
  -21    7    4      1.42      0.00
  -19    7    4      0.27      0.00
  -17    7    4     -1.07      0.00
  -15    7    4     -2.55      0.00
  -13    7    4      9.09      0.00
  -11    7    4    -12.53      0.00
   -9    7    4      8.48      0.00
   -7    7    4     -0.73      0.00
   -5    7    4     -3.16      0.00
   -3    7    4      4.10      0.00
   -1    7    4     -3.58      0.00
    1    7    4     -1.99      0.00
    3    7    4      7.88      0.00
    5    7    4     -7.78      0.00
    7    7    4      4.91      0.00
    9    7    4     -2.24      0.00
   11    7    4      1.18      0.00
   13    7    4     -2.71      0.00
   15    7    4      2.83      0.00
   17    7    4      0.20      0.00
   19    7    4     -2.61      0.00
   21    7    4      1.32      0.00
   23    7    4      2.34      0.00
   25    7    4     -3.43      0.00
   27    7    4      2.35      0.00
   29    7    4     -3.04      0.00
   31    7    4      2.75      0.00
  -32    8    4    -14.87      0.00
  -30    8    4     13.50      0.00
  -28    8    4     -6.40      0.00
  -26    8    4      0.44      0.00
  -24    8    4      0.03      0.00
  -22    8    4      0.31      0.00
  -20    8    4      1.43      0.00
  -18    8    4     -0.64      0.00
  -16    8    4      2.41      0.00
  -14    8    4     -7.39      0.00
  -12    8    4      3.65      0.00
  -10    8    4      3.83      0.00
   -8    8    4     -6.06      0.00
   -6    8    4      6.63      0.00
   -4    8    4     -1.86      0.00
   -2    8    4     -5.80      0.00
    0    8    4      5.74      0.00
    2    8    4     -3.47      0.00
    4    8    4      2.33      0.00
    6    8    4      1.04      0.00
    8    8    4     -0.78      0.00
   10    8    4     -2.42      0.00
   12    8    4      3.65      0.00
   14    8    4     -4.07      0.00
   16    8    4      1.82      0.00
   18    8    4      0.58      0.00
   20    8    4      1.11      0.00
   22    8    4     -2.39      0.00
   24    8    4      1.53      0.00
   26    8    4      0.75      0.00
   28    8    4     -3.79      0.00
   30    8    4      3.08      0.00
   32    8    4     -1.04      0.00
  -31    9    4     -0.34      0.00
  -29    9    4     -1.72      0.00
  -27    9    4      0.59      0.00
  -25    9    4      1.45      0.00
  -23    9    4     -3.55      0.00
  -21    9    4      3.24      0.00
  -19    9    4      0.54      0.00
  -17    9    4     -1.38      0.00
  -15    9    4     -2.33      0.00
  -13    9    4      5.30      0.00
  -11    9    4     -6.24      0.00
   -9    9    4      3.77      0.00
   -7    9    4      2.53      0.00
   -5    9    4     -7.30      0.00
   -3    9    4      7.25      0.00
   -1    9    4     -2.55      0.00
    1    9    4     -3.52      0.00
    3    9    4      5.27      0.00
    5    9    4     -3.64      0.00
    7    9    4      1.58      0.00
    9    9    4      1.18      0.00
   11    9    4     -1.33      0.00
   13    9    4     -1.57      0.00
   15    9    4      3.03      0.00
   17    9    4     -3.11      0.00
   19    9    4      1.98      0.00
   21    9    4      0.02      0.00
   23    9    4      0.66      0.00
   25    9    4     -2.01      0.00
   27    9    4      0.90      0.00
   29    9    4      0.32      0.00
   31    9    4     -0.70      0.00
  -32   10    4     -5.58      0.00
  -30   10    4      5.12      0.00
  -28   10    4     -1.98      0.00
  -26   10    4     -0.28      0.00
  -24   10    4     -1.50      0.00
  -22   10    4      4.63      0.00
  -20   10    4     -4.94      0.00
  -18   10    4      1.33      0.00
  -16   10    4      1.90      0.00
  -14   10    4     -1.10      0.00
  -12   10    4     -0.59      0.00
  -10   10    4      2.30      0.00
   -8   10    4     -4.22      0.00
   -6   10    4      1.38      0.00
   -4   10    4      4.23      0.00
   -2   10    4     -5.88      0.00
    0   10    4      4.71      0.00
    2   10    4     -2.99      0.00
    4   10    4      0.82      0.00
    6   10    4      0.31      0.00
    8   10    4      1.22      0.00
   10   10    4     -6.06      0.00
   12   10    4      9.41      0.00
   14   10    4     -6.49      0.00
   16   10    4      1.52      0.00
   18   10    4      1.39      0.00
   20   10    4     -2.43      0.00
   22   10    4      2.30      0.00
   24   10    4     -3.36      0.00
   26   10    4      3.90      0.00
   28   10    4     -1.51      0.00
   30   10    4      0.36      0.00
  -31   11    4      3.17      0.00
  -29   11    4     -0.50      0.00
  -27   11    4     -3.49      0.00
  -25   11    4      4.88      0.00
  -23   11    4     -3.78      0.00
  -21   11    4      1.43      0.00
  -19   11    4      0.84      0.00
  -17   11    4     -2.71      0.00
  -15   11    4      1.32      0.00
  -13   11    4      3.05      0.00
  -11   11    4     -2.19      0.00
   -9   11    4     -2.79      0.00
   -7   11    4      3.98      0.00
   -5   11    4     -2.80      0.00
   -3   11    4      0.41      0.00
   -1   11    4      3.26      0.00
    1   11    4     -4.18      0.00
    3   11    4      3.36      0.00
    5   11    4     -1.03      0.00
    7   11    4     -4.66      0.00
    9   11    4      7.50      0.00
   11   11    4     -4.58      0.00
   13   11    4      0.10      0.00
   15   11    4      3.91      0.00
   17   11    4     -5.11      0.00
   19   11    4      3.25      0.00
   21   11    4     -1.00      0.00
   23   11    4     -1.27      0.00
   25   11    4      2.98      0.00
   27   11    4     -4.42      0.00
   29   11    4      5.39      0.00
   31   11    4     -3.09      0.00
  -30   12    4     -1.36      0.00
  -28   12    4     -1.16      0.00
  -26   12    4      2.90      0.00
  -24   12    4     -1.64      0.00
  -22   12    4      3.72      0.00
  -20   12    4     -6.31      0.00
  -18   12    4      1.33      0.00
  -16   12    4      3.72      0.00
  -14   12    4     -1.58      0.00
  -12   12    4     -1.64      0.00
  -10   12    4      1.94      0.00
   -8   12    4     -0.20      0.00
   -6   12    4     -2.21      0.00
   -4   12    4      2.94      0.00
   -2   12    4     -2.33      0.00
    0   12    4      0.92      0.00
    2   12    4      1.92      0.00
    4   12    4     -4.04      0.00
    6   12    4      3.89      0.00
    8   12    4     -1.27      0.00
   10   12    4     -2.95      0.00
   12   12    4      4.63      0.00
   14   12    4     -2.85      0.00
   16   12    4     -0.18      0.00
   18   12    4      5.15      0.00
   20   12    4     -9.00      0.00
   22   12    4      7.13      0.00
   24   12    4     -3.36      0.00
   26   12    4      1.27      0.00
   28   12    4      1.51      0.00
   30   12    4     -4.00      0.00
  -29   13    4      3.23      0.00
  -27   13    4      0.75      0.00
  -25   13    4      0.65      0.00
  -23   13    4     -3.12      0.00
  -21   13    4     -0.78      0.00
  -19   13    4      6.33      0.00
  -17   13    4     -4.75      0.00
  -15   13    4     -1.34      0.00
  -13   13    4      2.02      0.00
  -11   13    4      1.14      0.00
   -9   13    4     -0.81      0.00
   -7   13    4      0.06      0.00
   -5   13    4     -0.93      0.00
   -3   13    4     -0.92      0.00
   -1   13    4      3.39      0.00
    1   13    4     -2.42      0.00
    3   13    4      0.91      0.00
    5   13    4     -0.92      0.00
    7   13    4     -0.90      0.00
    9   13    4      4.24      0.00
   11   13    4     -3.58      0.00
   13   13    4     -0.63      0.00
   15   13    4      4.06      0.00
   17   13    4     -5.81      0.00
   19   13    4      3.29      0.00
   21   13    4      2.54      0.00
   23   13    4     -4.74      0.00
   25   13    4      4.76      0.00
   27   13    4     -6.14      0.00
   29   13    4      4.74      0.00
  -30   14    4      4.40      0.00
  -28   14    4     -5.45      0.00
  -26   14    4      3.35      0.00
  -24   14    4     -1.21      0.00
  -22   14    4      1.34      0.00
  -20   14    4     -2.05      0.00
  -18   14    4     -0.16      0.00
  -16   14    4      5.05      0.00
  -14   14    4     -5.14      0.00
  -12   14    4     -1.02      0.00
  -10   14    4      2.73      0.00
   -8   14    4      1.02      0.00
   -6   14    4     -0.98      0.00
   -4   14    4     -1.64      0.00
   -2   14    4      2.13      0.00
    0   14    4     -1.42      0.00
    2   14    4      0.05      0.00
    4   14    4     -0.32      0.00
    6   14    4      3.11      0.00
    8   14    4     -3.83      0.00
   10   14    4      1.73      0.00
   12   14    4     -0.26      0.00
   14   14    4      1.04      0.00
   16   14    4     -4.17      0.00
   18   14    4      8.02      0.00
   20   14    4     -9.61      0.00
   22   14    4      6.44      0.00
   24   14    4     -0.56      0.00
   26   14    4     -2.54      0.00
   28   14    4      4.09      0.00
  -29   15    4      4.79      0.00
  -27   15    4      0.67      0.00
  -25   15    4     -5.64      0.00
  -23   15    4      2.74      0.00
  -21   15    4     -0.34      0.00
  -19   15    4      4.94      0.00
  -17   15    4     -5.63      0.00
  -15   15    4      0.09      0.00
  -13   15    4      3.08      0.00
  -11   15    4     -2.25      0.00
   -9   15    4     -0.38      0.00
   -7   15    4      0.42      0.00
   -5   15    4      2.55      0.00
   -3   15    4     -0.73      0.00
   -1   15    4     -4.03      0.00
    1   15    4      2.90      0.00
    3   15    4      1.15      0.00
    5   15    4     -2.56      0.00
    7   15    4      2.40      0.00
    9   15    4     -1.85      0.00
   11   15    4      1.64      0.00
   13   15    4     -2.19      0.00
   15   15    4      3.07      0.00
   17   15    4     -4.00      0.00
   19   15    4      1.80      0.00
   21   15    4      4.48      0.00
   23   15    4     -7.71      0.00
   25   15    4      4.78      0.00
   27   15    4     -1.82      0.00
  -28   16    4     -9.23      0.00
  -26   16    4      4.11      0.00
  -24   16    4      0.22      0.00
  -22   16    4      1.66      0.00
  -20   16    4     -1.66      0.00
  -18   16    4     -1.58      0.00
  -16   16    4      2.46      0.00
  -14   16    4     -1.19      0.00
  -12   16    4      0.86      0.00
  -10   16    4     -0.89      0.00
   -8   16    4     -0.17      0.00
   -6   16    4      1.43      0.00
   -4   16    4     -1.98      0.00
   -2   16    4      1.89      0.00
    0   16    4     -0.89      0.00
    2   16    4     -0.98      0.00
    4   16    4      2.36      0.00
    6   16    4     -1.75      0.00
    8   16    4      0.00      0.00
   10   16    4      0.82      0.00
   12   16    4     -0.42      0.00
   14   16    4     -0.72      0.00
   16   16    4     -0.25      0.00
   18   16    4      5.77      0.00
   20   16    4     -8.27      0.00
   22   16    4      1.93      0.00
   24   16    4      4.20      0.00
   26   16    4     -4.42      0.00
  -27   17    4      0.42      0.00
  -25   17    4     -1.87      0.00
  -23   17    4      1.92      0.00
  -21   17    4     -1.50      0.00
  -19   17    4      0.37      0.00
  -17   17    4     -2.13      0.00
  -15   17    4      2.69      0.00
  -13   17    4      0.99      0.00
  -11   17    4     -1.83      0.00
   -9   17    4      0.64      0.00
   -7   17    4     -1.90      0.00
   -5   17    4      1.40      0.00
   -3   17    4      0.90      0.00
   -1   17    4     -1.62      0.00
    1   17    4      2.20      0.00
    3   17    4     -1.64      0.00
    5   17    4     -1.00      0.00
    7   17    4      2.15      0.00
    9   17    4     -1.20      0.00
   11   17    4      0.89      0.00
   13   17    4     -1.92      0.00
   15   17    4      2.82      0.00
   17   17    4     -1.97      0.00
   19   17    4     -1.70      0.00
   21   17    4      7.49      0.00
   23   17    4     -9.59      0.00
   25   17    4      4.52      0.00
  -26   18    4      6.86      0.00
  -24   18    4     -2.76      0.00
  -22   18    4      0.44      0.00
  -20   18    4     -3.60      0.00
  -18   18    4      4.40      0.00
  -16   18    4     -1.50      0.00
  -14   18    4     -1.78      0.00
  -12   18    4      3.28      0.00
  -10   18    4     -0.81      0.00
   -8   18    4     -0.72      0.00
   -6   18    4     -1.05      0.00
   -4   18    4     -0.10      0.00
   -2   18    4      1.93      0.00
    0   18    4      0.49      0.00
    2   18    4     -2.34      0.00
    4   18    4      1.76      0.00
    6   18    4     -1.70      0.00
    8   18    4      2.54      0.00
   10   18    4     -5.05      0.00
   12   18    4      6.55      0.00
   14   18    4     -3.12      0.00
   16   18    4     -0.38      0.00
   18   18    4      1.00      0.00
   20   18    4     -2.60      0.00
   22   18    4      1.48      0.00
   24   18    4      5.24      0.00
   26   18    4     -8.00      0.00
  -25   19    4     -0.43      0.00
  -23   19    4     -1.04      0.00
  -21   19    4      0.82      0.00
  -19   19    4     -0.42      0.00
  -17   19    4      0.08      0.00
  -15   19    4      3.64      0.00
  -13   19    4     -3.81      0.00
  -11   19    4     -2.84      0.00
   -9   19    4      4.93      0.00
   -7   19    4     -0.52      0.00
   -5   19    4     -1.00      0.00
   -3   19    4      0.01      0.00
   -1   19    4     -0.32      0.00
    1   19    4      0.20      0.00
    3   19    4     -0.05      0.00
    5   19    4      1.00      0.00
    7   19    4     -1.66      0.00
    9   19    4      1.06      0.00
   11   19    4      0.85      0.00
   13   19    4     -1.96      0.00
   15   19    4      0.89      0.00
   17   19    4      1.01      0.00
   19   19    4     -5.40      0.00
   21   19    4     11.79      0.00
   23   19    4    -12.95      0.00
   25   19    4      7.47      0.00
  -24   20    4     -4.97      0.00
  -22   20    4      4.41      0.00
  -20   20    4     -2.04      0.00
  -18   20    4      3.78      0.00
  -16   20    4     -3.36      0.00
  -14   20    4     -3.64      0.00
  -12   20    4      6.41      0.00
  -10   20    4     -2.31      0.00
   -8   20    4     -1.80      0.00
   -6   20    4      3.09      0.00
   -4   20    4     -0.66      0.00
   -2   20    4     -1.92      0.00
    0   20    4      1.09      0.00
    2   20    4     -1.01      0.00
    4   20    4      2.68      0.00
    6   20    4     -2.80      0.00
    8   20    4      3.62      0.00
   10   20    4     -5.73      0.00
   12   20    4      4.37      0.00
   14   20    4     -0.03      0.00
   16   20    4     -2.43      0.00
   18   20    4      2.96      0.00
   20   20    4     -2.81      0.00
   22   20    4     -1.04      0.00
   24   20    4      7.40      0.00
  -23   21    4      0.90      0.00
  -21   21    4      1.55      0.00
  -19   21    4     -0.63      0.00
  -17   21    4     -2.55      0.00
  -15   21    4      3.40      0.00
  -13   21    4     -1.00      0.00
  -11   21    4     -3.10      0.00
   -9   21    4      4.09      0.00
   -7   21    4     -0.16      0.00
   -5   21    4     -2.58      0.00
   -3   21    4      1.46      0.00
   -1   21    4     -1.01      0.00
    1   21    4      2.26      0.00
    3   21    4     -1.53      0.00
    5   21    4     -1.18      0.00
    7   21    4      1.11      0.00
    9   21    4      0.96      0.00
   11   21    4      2.17      0.00
   13   21    4     -6.43      0.00
   15   21    4      0.14      0.00
   17   21    4      9.65      0.00
   19   21    4    -10.19      0.00
   21   21    4      9.75      0.00
   23   21    4    -13.66      0.00
  -22   22    4      2.79      0.00
  -20   22    4     -2.32      0.00
  -18   22    4      0.00      0.00
  -16   22    4      0.72      0.00
  -14   22    4     -3.05      0.00
  -12   22    4      6.23      0.00
  -10   22    4     -1.90      0.00
   -8   22    4     -4.19      0.00
   -6   22    4      2.83      0.00
   -4   22    4     -0.44      0.00
   -2   22    4      1.23      0.00
    0   22    4     -0.40      0.00
    2   22    4     -2.25      0.00
    4   22    4      3.51      0.00
    6   22    4     -2.58      0.00
    8   22    4      1.57      0.00
   10   22    4     -1.17      0.00
   12   22    4     -3.12      0.00
   14   22    4      9.44      0.00
   16   22    4     -8.52      0.00
   18   22    4      2.73      0.00
   20   22    4     -0.29      0.00
  -21   23    4     -2.19      0.00
  -19   23    4      0.24      0.00
  -17   23    4      0.54      0.00
  -15   23    4      1.86      0.00
  -13   23    4     -0.82      0.00
  -11   23    4     -2.01      0.00
   -9   23    4      1.06      0.00
   -7   23    4      1.41      0.00
   -5   23    4     -2.39      0.00
   -3   23    4      1.75      0.00
   -1   23    4     -1.15      0.00
    1   23    4      2.27      0.00
    3   23    4     -2.11      0.00
    5   23    4     -0.60      0.00
    7   23    4      2.16      0.00
    9   23    4     -3.73      0.00
   11   23    4      5.87      0.00
   13   23    4     -1.81      0.00
   15   23    4     -6.79      0.00
   17   23    4     10.01      0.00
   19   23    4     -8.88      0.00
  -18   24    4      0.15      0.00
  -16   24    4      1.46      0.00
  -14   24    4     -1.16      0.00
  -12   24    4      0.19      0.00
  -10   24    4     -0.40      0.00
   -8   24    4     -0.79      0.00
   -6   24    4      1.61      0.00
   -4   24    4      0.12      0.00
   -2   24    4      0.65      0.00
    0   24    4     -3.10      0.00
    2   24    4      0.71      0.00
    4   24    4      2.17      0.00
    6   24    4      0.68      0.00
    8   24    4     -4.05      0.00
   10   24    4      4.72      0.00
   12   24    4     -8.36      0.00
   14   24    4     13.21      0.00
   16   24    4     -8.82      0.00
   18   24    4     -1.41      0.00
  -17   25    4      0.54      0.00
  -15   25    4     -0.99      0.00
  -13   25    4     -1.11      0.00
  -11   25    4      1.17      0.00
   -9   25    4     -0.30      0.00
   -7   25    4      1.79      0.00
   -5   25    4     -1.83      0.00
   -3   25    4     -0.44      0.00
   -1   25    4      0.73      0.00
    1   25    4      0.58      0.00
    3   25    4      0.00      0.00
    5   25    4     -1.96      0.00
    7   25    4      2.11      0.00
    9   25    4     -1.02      0.00
   11   25    4      0.80      0.00
   13   25    4      2.53      0.00
   15   25    4     -9.87      0.00
   17   25    4     11.37      0.00
  -16   26    4     -3.52      0.00
  -14   26    4      2.43      0.00
  -12   26    4     -0.01      0.00
  -10   26    4      0.54      0.00
   -8   26    4     -0.95      0.00
   -6   26    4      0.07      0.00
   -4   26    4      0.01      0.00
   -2   26    4     -0.32      0.00
    0   26    4      0.51      0.00
    2   26    4      0.99      0.00
    4   26    4     -3.21      0.00
    6   26    4      4.75      0.00
    8   26    4     -5.05      0.00
   10   26    4      6.81      0.00
   12   26    4    -10.72      0.00
   14   26    4      8.45      0.00
  -13   27    4     -1.12      0.00
  -11   27    4      0.52      0.00
   -9   27    4      1.35      0.00
   -7   27    4     -1.31      0.00
   -5   27    4     -1.20      0.00
   -3   27    4      1.31      0.00
   -1   27    4      0.66      0.00
    1   27    4     -1.84      0.00
    3   27    4      3.26      0.00
    5   27    4     -3.30      0.00
    7   27    4      0.36      0.00
    9   27    4      1.63      0.00
   11   27    4     -2.55      0.00
   13   27    4      6.22      0.00
  -10   28    4     -0.77      0.00
   -8   28    4     -1.51      0.00
   -6   28    4      3.09      0.00
   -4   28    4     -0.80      0.00
   -2   28    4     -1.78      0.00
    0   28    4      2.55      0.00
    2   28    4     -1.88      0.00
    4   28    4     -1.05      0.00
    6   28    4      4.24      0.00
    8   28    4     -4.77      0.00
   10   28    4      4.27      0.00
   -5   29    4      0.48      0.00
   -3   29    4      1.96      0.00
   -1   29    4     -1.83      0.00
    1   29    4     -1.85      0.00
    3   29    4      3.81      0.00
    5   29    4     -2.46      0.00
  -33    1    5      5.55      0.00
  -31    1    5     -5.50      0.00
  -29    1    5      0.62      0.00
  -27    1    5      3.54      0.00
  -25    1    5      1.35      0.00
  -23    1    5     -3.66      0.00
  -21    1    5     -1.58      0.00
  -19    1    5      0.88      0.00
  -17    1    5      1.91      0.00
  -15    1    5      0.36      0.00
  -13    1    5     -0.71      0.00
  -11    1    5      0.30      0.00
   -9    1    5      1.68      0.00
   -7    1    5     -5.62      0.00
   -5    1    5     -0.56      0.00
   -3    1    5      8.13      0.00
   -1    1    5     -2.95      0.00
    1    1    5     -1.77      0.00
    3    1    5      2.03      0.00
    5    1    5     -5.35      0.00
    7    1    5      5.60      0.00
    9    1    5     -2.26      0.00
   11    1    5      0.37      0.00
   13    1    5      0.49      0.00
   15    1    5      0.08      0.00
   17    1    5      0.53      0.00
   19    1    5     -1.88      0.00
   21    1    5      0.84      0.00
   23    1    5     -1.07      0.00
   25    1    5      0.53      0.00
   27    1    5      1.91      0.00
   29    1    5      0.85      0.00
   31    1    5     -3.50      0.00
   33    1    5      0.82      0.00
  -32    2    5    -10.34      0.00
  -30    2    5     15.50      0.00
  -28    2    5     -9.58      0.00
  -26    2    5      1.03      0.00
  -24    2    5      2.83      0.00
  -22    2    5     -0.99      0.00
  -20    2    5     -2.90      0.00
  -18    2    5      2.19      0.00
  -16    2    5      0.08      0.00
  -14    2    5     -0.37      0.00
  -12    2    5      2.21      0.00
  -10    2    5     -2.07      0.00
   -8    2    5     -0.34      0.00
   -6    2    5      1.49      0.00
   -4    2    5     -5.89      0.00
   -2    2    5      4.75      0.00
    0    2    5      8.49      0.00
    2    2    5    -12.02      0.00
    4    2    5      0.92      0.00
    6    2    5      5.46      0.00
    8    2    5     -5.63      0.00
   10    2    5      4.47      0.00
   12    2    5     -1.46      0.00
   14    2    5      0.97      0.00
   16    2    5     -1.55      0.00
   18    2    5     -0.50      0.00
   20    2    5      2.51      0.00
   22    2    5     -3.02      0.00
   24    2    5      1.62      0.00
   26    2    5      0.23      0.00
   28    2    5     -0.77      0.00
   30    2    5      1.62      0.00
   32    2    5     -0.57      0.00
  -33    3    5     14.25      0.00
  -31    3    5     -9.03      0.00
  -29    3    5     -4.68      0.00
  -27    3    5     10.74      0.00
  -25    3    5     -4.19      0.00
  -23    3    5     -3.09      0.00
  -21    3    5      2.93      0.00
  -19    3    5     -0.27      0.00
  -17    3    5      0.16      0.00
  -15    3    5      0.28      0.00
  -13    3    5     -0.95      0.00
  -11    3    5     -1.98      0.00
   -9    3    5      4.32      0.00
   -7    3    5     -3.14      0.00
   -5    3    5      0.47      0.00
   -3    3    5      7.55      0.00
   -1    3    5    -13.73      0.00
    1    3    5      2.51      0.00
    3    3    5     14.31      0.00
    5    3    5    -16.75      0.00
    7    3    5     10.26      0.00
    9    3    5     -4.38      0.00
   11    3    5      0.44      0.00
   13    3    5     -0.36      0.00
   15    3    5      0.54      0.00
   17    3    5      2.48      0.00
   19    3    5     -4.09      0.00
   21    3    5      2.05      0.00
   23    3    5     -0.07      0.00
   25    3    5      0.33      0.00
   27    3    5     -1.00      0.00
   29    3    5      1.47      0.00
   31    3    5     -3.53      0.00
  -32    4    5    -22.49      0.00
  -30    4    5     28.21      0.00
  -28    4    5    -17.58      0.00
  -26    4    5     -1.90      0.00
  -24    4    5      5.91      0.00
  -22    4    5      1.24      0.00
  -20    4    5     -0.21      0.00
  -18    4    5      0.04      0.00
  -16    4    5     -4.83      0.00
  -14    4    5      2.69      0.00
  -12    4    5      1.99      0.00
  -10    4    5     -4.52      0.00
   -8    4    5      3.55      0.00
   -6    4    5      6.01      0.00
   -4    4    5     -9.26      0.00
   -2    4    5     -3.48      0.00
    0    4    5     13.85      0.00
    2    4    5    -13.23      0.00
    4    4    5      6.40      0.00
    6    4    5      3.20      0.00
    8    4    5     -7.64      0.00
   10    4    5      5.50      0.00
   12    4    5     -1.61      0.00
   14    4    5     -1.32      0.00
   16    4    5      0.57      0.00
   18    4    5     -0.35      0.00
   20    4    5      2.40      0.00
   22    4    5     -1.46      0.00
   24    4    5      1.28      0.00
   26    4    5     -1.30      0.00
   28    4    5     -3.36      0.00
   30    4    5      3.36      0.00
   32    4    5      2.28      0.00
  -33    5    5     11.28      0.00
  -31    5    5     -1.63      0.00
  -29    5    5    -13.51      0.00
  -27    5    5     19.68      0.00
  -25    5    5    -11.28      0.00
  -23    5    5      0.03      0.00
  -21    5    5      2.95      0.00
  -19    5    5     -1.09      0.00
  -17    5    5      1.54      0.00
  -15    5    5     -1.10      0.00
  -13    5    5     -1.96      0.00
  -11    5    5      1.17      0.00
   -9    5    5      2.92      0.00
   -7    5    5     -4.95      0.00
   -5    5    5      1.79      0.00
   -3    5    5      8.12      0.00
   -1    5    5    -12.23      0.00
    1    5    5     -1.03      0.00
    3    5    5     15.74      0.00
    5    5    5    -17.02      0.00
    7    5    5     11.60      0.00
    9    5    5     -5.00      0.00
   11    5    5     -0.32      0.00
   13    5    5      0.92      0.00
   15    5    5     -0.74      0.00
   17    5    5      1.93      0.00
   19    5    5     -1.57      0.00
   21    5    5      1.10      0.00
   23    5    5     -1.77      0.00
   25    5    5      1.46      0.00
   27    5    5     -0.67      0.00
   29    5    5      2.19      0.00
   31    5    5     -4.66      0.00
  -32    6    5    -23.45      0.00
  -30    6    5     26.89      0.00
  -28    6    5    -16.66      0.00
  -26    6    5      0.83      0.00
  -24    6    5      5.41      0.00
  -22    6    5     -0.99      0.00
  -20    6    5     -2.87      0.00
  -18    6    5      2.16      0.00
  -16    6    5     -3.36      0.00
  -14    6    5      4.74      0.00
  -12    6    5      0.36      0.00
  -10    6    5     -4.54      0.00
   -8    6    5      2.26      0.00
   -6    6    5      0.88      0.00
   -4    6    5     -4.13      0.00
   -2    6    5      1.91      0.00
    0    6    5     10.66      0.00
    2    6    5    -16.34      0.00
    4    6    5      7.02      0.00
    6    6    5      1.78      0.00
    8    6    5     -3.62      0.00
   10    6    5      1.57      0.00
   12    6    5      2.11      0.00
   14    6    5     -2.25      0.00
   16    6    5      0.42      0.00
   18    6    5     -1.17      0.00
   20    6    5      1.76      0.00
   22    6    5     -0.30      0.00
   24    6    5     -1.25      0.00
   26    6    5      1.00      0.00
   28    6    5     -0.17      0.00
   30    6    5      1.03      0.00
   32    6    5      0.03      0.00
  -31    7    5      5.68      0.00
  -29    7    5    -14.94      0.00
  -27    7    5     18.16      0.00
  -25    7    5     -9.30      0.00
  -23    7    5      1.04      0.00
  -21    7    5     -2.02      0.00
  -19    7    5      0.39      0.00
  -17    7    5      3.31      0.00
  -15    7    5     -0.02      0.00
  -13    7    5     -3.45      0.00
  -11    7    5      2.22      0.00
   -9    7    5      2.15      0.00
   -7    7    5     -7.28      0.00
   -5    7    5      4.60      0.00
   -3    7    5      3.51      0.00
   -1    7    5     -4.76      0.00
    1    7    5     -0.87      0.00
    3    7    5      7.99      0.00
    5    7    5    -11.14      0.00
    7    7    5      6.73      0.00
    9    7    5     -1.44      0.00
   11    7    5     -0.75      0.00
   13    7    5      2.06      0.00
   15    7    5     -1.70      0.00
   17    7    5      1.26      0.00
   19    7    5     -1.10      0.00
   21    7    5     -0.12      0.00
   23    7    5     -0.86      0.00
   25    7    5      1.72      0.00
   27    7    5     -0.02      0.00
   29    7    5      1.09      0.00
   31    7    5     -2.85      0.00
  -32    8    5    -10.76      0.00
  -30    8    5     10.90      0.00
  -28    8    5     -7.94      0.00
  -26    8    5      2.02      0.00
  -24    8    5      0.39      0.00
  -22    8    5      3.41      0.00
  -20    8    5     -4.96      0.00
  -18    8    5      1.51      0.00
  -16    8    5     -1.42      0.00
  -14    8    5      3.50      0.00
  -12    8    5      0.22      0.00
  -10    8    5     -5.72      0.00
   -8    8    5      4.70      0.00
   -6    8    5      2.65      0.00
   -4    8    5     -8.21      0.00
   -2    8    5      4.04      0.00
    0    8    5      4.78      0.00
    2    8    5     -7.15      0.00
    4    8    5      3.90      0.00
    6    8    5     -1.41      0.00
    8    8    5      0.98      0.00
   10    8    5     -1.52      0.00
   12    8    5      1.30      0.00
   14    8    5     -0.71      0.00
   16    8    5      1.69      0.00
   18    8    5     -1.94      0.00
   20    8    5     -0.37      0.00
   22    8    5      1.42      0.00
   24    8    5      0.66      0.00
   26    8    5     -1.98      0.00
   28    8    5      0.48      0.00
   30    8    5      0.52      0.00
  -31    9    5      5.12      0.00
  -29    9    5     -7.76      0.00
  -27    9    5      9.88      0.00
  -25    9    5     -4.72      0.00
  -23    9    5     -1.52      0.00
  -21    9    5     -0.40      0.00
  -19    9    5      5.08      0.00
  -17    9    5     -2.51      0.00
  -15    9    5     -1.20      0.00
  -13    9    5     -2.44      0.00
  -11    9    5      2.91      0.00
   -9    9    5      5.56      0.00
   -7    9    5    -10.42      0.00
   -5    9    5      7.04      0.00
   -3    9    5     -0.58      0.00
   -1    9    5     -4.69      0.00
    1    9    5      3.09      0.00
    3    9    5      2.52      0.00
    5    9    5     -3.87      0.00
    7    9    5      1.60      0.00
    9    9    5      0.92      0.00
   11    9    5     -1.66      0.00
   13    9    5      0.67      0.00
   15    9    5     -1.39      0.00
   17    9    5      1.99      0.00
   19    9    5     -0.09      0.00
   21    9    5     -0.85      0.00
   23    9    5      0.42      0.00
   25    9    5     -0.23      0.00
   27    9    5      1.10      0.00
   29    9    5     -3.02      0.00
   31    9    5      1.68      0.00
  -30   10    5      0.74      0.00
  -28   10    5      0.16      0.00
  -26   10    5     -2.53      0.00
  -24   10    5     -0.29      0.00
  -22   10    5      5.95      0.00
  -20   10    5     -5.10      0.00
  -18   10    5      1.07      0.00
  -16   10    5      0.27      0.00
  -14   10    5     -1.73      0.00
  -12   10    5      4.43      0.00
  -10   10    5     -6.30      0.00
   -8   10    5      3.39      0.00
   -6   10    5      5.68      0.00
   -4   10    5    -11.58      0.00
   -2   10    5      8.06      0.00
    0   10    5     -0.83      0.00
    2   10    5     -4.05      0.00
    4   10    5      3.52      0.00
    6   10    5     -0.23      0.00
    8   10    5      0.29      0.00
   10   10    5     -1.62      0.00
   12   10    5      0.92      0.00
   14   10    5     -0.52      0.00
   16   10    5      0.55      0.00
   18   10    5     -0.55      0.00
   20   10    5      0.74      0.00
   22   10    5     -0.40      0.00
   24   10    5      1.59      0.00
   26   10    5     -3.91      0.00
   28   10    5      3.44      0.00
   30   10    5     -0.68      0.00
  -31   11    5      4.68      0.00
  -29   11    5     -4.92      0.00
  -27   11    5      4.08      0.00
  -25   11    5     -1.31      0.00
  -23   11    5     -2.56      0.00
  -21   11    5      1.10      0.00
  -19   11    5      4.25      0.00
  -17   11    5     -4.67      0.00
  -15   11    5      2.43      0.00
  -13   11    5     -2.03      0.00
  -11   11    5     -0.99      0.00
   -9   11    5      7.63      0.00
   -7   11    5    -12.27      0.00
   -5   11    5      8.79      0.00
   -3   11    5      1.99      0.00
   -1   11    5     -8.28      0.00
    1   11    5      4.49      0.00
    3   11    5      0.58      0.00
    5   11    5     -1.03      0.00
    7   11    5     -0.24      0.00
    9   11    5     -0.20      0.00
   11   11    5      1.40      0.00
   13   11    5     -0.22      0.00
   15   11    5     -1.26      0.00
   17   11    5     -0.68      0.00
   19   11    5      2.50      0.00
   21   11    5     -0.75      0.00
   23   11    5     -0.95      0.00
   25   11    5     -0.91      0.00
   27   11    5      4.52      0.00
   29   11    5     -5.98      0.00
  -30   12    5     -0.71      0.00
  -28   12    5      0.62      0.00
  -26   12    5     -5.45      0.00
  -24   12    5      4.26      0.00
  -22   12    5      3.98      0.00
  -20   12    5     -6.55      0.00
  -18   12    5      0.72      0.00
  -16   12    5      3.08      0.00
  -14   12    5     -2.30      0.00
  -12   12    5      5.35      0.00
  -10   12    5     -9.48      0.00
   -8   12    5      3.44      0.00
   -6   12    5      8.04      0.00
   -4   12    5    -11.92      0.00
   -2   12    5      6.90      0.00
    0   12    5     -0.13      0.00
    2   12    5     -2.81      0.00
    4   12    5      2.49      0.00
    6   12    5     -2.05      0.00
    8   12    5      1.74      0.00
   10   12    5     -1.56      0.00
   12   12    5      1.44      0.00
   14   12    5     -1.41      0.00
   16   12    5      2.42      0.00
   18   12    5     -1.95      0.00
   20   12    5     -0.19      0.00
   22   12    5     -0.90      0.00
   24   12    5      4.11      0.00
   26   12    5     -5.50      0.00
   28   12    5      4.28      0.00
   30   12    5      0.07      0.00
  -29   13    5     -3.39      0.00
  -27   13    5      3.74      0.00
  -25   13    5      2.09      0.00
  -23   13    5     -4.39      0.00
  -21   13    5      0.29      0.00
  -19   13    5      2.41      0.00
  -17   13    5     -3.53      0.00
  -15   13    5      4.15      0.00
  -13   13    5     -1.85      0.00
  -11   13    5     -1.86      0.00
   -9   13    5      7.16      0.00
   -7   13    5    -11.57      0.00
   -5   13    5      7.38      0.00
   -3   13    5      1.56      0.00
   -1   13    5     -5.32      0.00
    1   13    5      4.23      0.00
    3   13    5     -2.11      0.00
    5   13    5      0.36      0.00
    7   13    5      0.67      0.00
    9   13    5     -1.79      0.00
   11   13    5      2.42      0.00
   13   13    5     -2.35      0.00
   15   13    5      2.42      0.00
   17   13    5     -1.86      0.00
   19   13    5      0.76      0.00
   21   13    5      0.67      0.00
   23   13    5     -2.30      0.00
   25   13    5      1.21      0.00
   27   13    5      2.73      0.00
   29   13    5     -5.16      0.00
  -28   14    5      2.02      0.00
  -26   14    5      0.05      0.00
  -24   14    5     -2.24      0.00
  -22   14    5      4.36      0.00
  -20   14    5     -6.09      0.00
  -18   14    5      4.46      0.00
  -16   14    5     -1.16      0.00
  -14   14    5     -2.47      0.00
  -12   14    5      5.60      0.00
  -10   14    5     -5.07      0.00
   -8   14    5      2.29      0.00
   -6   14    5      1.82      0.00
   -4   14    5     -7.11      0.00
   -2   14    5      6.62      0.00
    0   14    5     -0.56      0.00
    2   14    5     -2.00      0.00
    4   14    5      1.68      0.00
    6   14    5     -3.74      0.00
    8   14    5      6.40      0.00
   10   14    5     -6.28      0.00
   12   14    5      3.95      0.00
   14   14    5     -2.72      0.00
   16   14    5      3.52      0.00
   18   14    5     -3.16      0.00
   20   14    5      0.86      0.00
   22   14    5     -0.56      0.00
   24   14    5      3.79      0.00
   26   14    5     -6.10      0.00
   28   14    5      3.72      0.00
  -29   15    5      4.85      0.00
  -27   15    5     -4.40      0.00
  -25   15    5      5.84      0.00
  -23   15    5     -5.65      0.00
  -21   15    5      0.01      0.00
  -19   15    5      3.76      0.00
  -17   15    5     -2.05      0.00
  -15   15    5      1.61      0.00
  -13   15    5     -3.27      0.00
  -11   15    5      0.32      0.00
   -9   15    5      5.72      0.00
   -7   15    5     -7.44      0.00
   -5   15    5      4.58      0.00
   -3   15    5     -1.25      0.00
   -1   15    5     -0.57      0.00
    1   15    5      1.32      0.00
    3   15    5     -2.97      0.00
    5   15    5      4.53      0.00
    7   15    5     -2.62      0.00
    9   15    5     -2.04      0.00
   11   15    5      5.06      0.00
   13   15    5     -3.56      0.00
   15   15    5      0.76      0.00
   17   15    5     -1.19      0.00
   19   15    5      0.56      0.00
   21   15    5      4.62      0.00
   23   15    5     -7.61      0.00
   25   15    5      5.07      0.00
   27   15    5     -1.03      0.00
  -28   16    5     -1.78      0.00
  -26   16    5      4.43      0.00
  -24   16    5    -11.56      0.00
  -22   16    5     14.90      0.00
  -20   16    5     -9.16      0.00
  -18   16    5      5.52      0.00
  -16   16    5     -4.76      0.00
  -14   16    5      1.35      0.00
  -12   16    5      1.05      0.00
  -10   16    5     -1.85      0.00
   -8   16    5      1.17      0.00
   -6   16    5      2.31      0.00
   -4   16    5     -3.26      0.00
   -2   16    5      1.40      0.00
    0   16    5     -1.88      0.00
    2   16    5      1.94      0.00
    4   16    5      1.56      0.00
    6   16    5     -6.12      0.00
    8   16    5      9.03      0.00
   10   16    5     -8.42      0.00
   12   16    5      5.42      0.00
   14   16    5     -3.45      0.00
   16   16    5      3.00      0.00
   18   16    5     -1.92      0.00
   20   16    5     -0.51      0.00
   22   16    5      0.83      0.00
   24   16    5      2.69      0.00
   26   16    5     -4.52      0.00
  -27   17    5    -12.74      0.00
  -25   17    5     10.43      0.00
  -23   17    5     -4.19      0.00
  -21   17    5     -0.32      0.00
  -19   17    5      2.61      0.00
  -17   17    5     -2.85      0.00
  -15   17    5      2.07      0.00
  -13   17    5     -1.11      0.00
  -11   17    5     -0.50      0.00
   -9   17    5      0.69      0.00
   -7   17    5      0.00      0.00
   -5   17    5      1.22      0.00
   -3   17    5     -1.67      0.00
   -1   17    5     -0.22      0.00
    1   17    5      1.71      0.00
    3   17    5     -2.80      0.00
    5   17    5      4.06      0.00
    7   17    5     -3.72      0.00
    9   17    5      0.67      0.00
   11   17    5      3.57      0.00
   13   17    5     -4.86      0.00
   15   17    5      1.65      0.00
   17   17    5      1.22      0.00
   19   17    5     -1.26      0.00
   21   17    5      3.76      0.00
   23   17    5     -9.65      0.00
   25   17    5     10.52      0.00
  -26   18    5      9.28      0.00
  -24   18    5    -14.24      0.00
  -22   18    5     17.30      0.00
  -20   18    5    -13.22      0.00
  -18   18    5      4.88      0.00
  -16   18    5     -3.21      0.00
  -14   18    5      4.83      0.00
  -12   18    5     -2.02      0.00
  -10   18    5      1.16      0.00
   -8   18    5     -3.87      0.00
   -6   18    5      2.90      0.00
   -4   18    5     -0.87      0.00
   -2   18    5      1.63      0.00
    0   18    5     -1.28      0.00
    2   18    5     -0.38      0.00
    4   18    5      1.16      0.00
    6   18    5     -3.49      0.00
    8   18    5      7.76      0.00
   10   18    5     -8.11      0.00
   12   18    5      2.76      0.00
   14   18    5      0.04      0.00
   16   18    5      2.20      0.00
   18   18    5     -0.48      0.00
   20   18    5     -5.00      0.00
   22   18    5      4.94      0.00
   24   18    5     -0.27      0.00
  -25   19    5      9.81      0.00
  -23   19    5     -6.29      0.00
  -21   19    5     -3.59      0.00
  -19   19    5      5.47      0.00
  -17   19    5     -0.58      0.00
  -15   19    5     -1.10      0.00
  -13   19    5     -0.08      0.00
  -11   19    5      1.67      0.00
   -9   19    5     -2.29      0.00
   -7   19    5      2.24      0.00
   -5   19    5     -3.31      0.00
   -3   19    5      3.07      0.00
   -1   19    5     -1.62      0.00
    1   19    5      2.12      0.00
    3   19    5     -3.02      0.00
    5   19    5      3.79      0.00
    7   19    5     -3.92      0.00
    9   19    5     -0.35      0.00
   11   19    5      4.50      0.00
   13   19    5     -2.08      0.00
   15   19    5     -0.20      0.00
   17   19    5     -3.02      0.00
   19   19    5      3.31      0.00
   21   19    5      3.72      0.00
   23   19    5     -9.43      0.00
  -24   20    5    -10.87      0.00
  -20   20    5    -10.27      0.00
  -18   20    5      2.75      0.00
  -16   20    5      0.98      0.00
  -14   20    5      2.59      0.00
  -12   20    5     -5.73      0.00
  -10   20    5      4.20      0.00
   -8   20    5     -2.58      0.00
   -6   20    5      1.99      0.00
   -4   20    5     -1.34      0.00
   -2   20    5      2.22      0.00
    0   20    5     -2.67      0.00
    2   20    5      0.23      0.00
    4   20    5      1.83      0.00
    6   20    5     -2.22      0.00
    8   20    5      3.36      0.00
   10   20    5     -3.50      0.00
   12   20    5      0.68      0.00
   14   20    5      1.68      0.00
   16   20    5     -1.26      0.00
   18   20    5      1.50      0.00
   20   20    5     -5.48      0.00
   22   20    5      8.19      0.00
  -23   21    5     -3.40      0.00
  -21   21    5     -2.78      0.00
  -19   21    5      8.58      0.00
  -17   21    5     -2.44      0.00
  -15   21    5     -4.91      0.00
  -13   21    5      1.36      0.00
  -11   21    5      2.94      0.00
   -9   21    5     -3.06      0.00
   -7   21    5      4.17      0.00
   -5   21    5     -3.06      0.00
   -3   21    5      0.28      0.00
   -1   21    5     -2.03      0.00
    1   21    5      4.62      0.00
    3   21    5     -3.81      0.00
    5   21    5      3.38      0.00
    7   21    5     -3.27      0.00
    9   21    5     -0.42      0.00
   11   21    5      3.60      0.00
   13   21    5     -1.14      0.00
   15   21    5     -0.43      0.00
   17   21    5     -4.01      0.00
   19   21    5      5.81      0.00
   21   21    5     -0.49      0.00
  -22   22    5     11.53      0.00
  -20   22    5     -6.66      0.00
  -18   22    5     -2.58      0.00
  -16   22    5      2.39      0.00
  -14   22    5      3.08      0.00
  -12   22    5     -4.84      0.00
  -10   22    5      2.94      0.00
   -8   22    5     -0.52      0.00
   -6   22    5     -0.56      0.00
   -4   22    5     -0.64      0.00
   -2   22    5      2.82      0.00
    0   22    5     -3.19      0.00
    2   22    5      2.28      0.00
    4   22    5     -2.09      0.00
    6   22    5     -0.49      0.00
    8   22    5      4.41      0.00
   10   22    5     -0.79      0.00
   12   22    5     -5.89      0.00
   14   22    5      2.05      0.00
   16   22    5      4.31      0.00
   18   22    5      1.42      0.00
   20   22    5     -8.59      0.00
  -19   23    5      8.60      0.00
  -17   23    5     -4.17      0.00
  -15   23    5     -2.61      0.00
  -13   23    5      2.17      0.00
  -11   23    5      2.94      0.00
   -9   23    5     -3.63      0.00
   -7   23    5      1.29      0.00
   -5   23    5     -0.19      0.00
   -3   23    5     -1.06      0.00
   -1   23    5      0.87      0.00
    1   23    5      1.73      0.00
    3   23    5     -3.21      0.00
    5   23    5      3.56      0.00
    7   23    5     -2.47      0.00
    9   23    5     -1.00      0.00
   11   23    5      1.01      0.00
   13   23    5      2.78      0.00
   15   23    5     -1.60      0.00
   17   23    5     -3.87      0.00
   19   23    5      5.43      0.00
  -18   24    5     -0.23      0.00
  -16   24    5      2.46      0.00
  -14   24    5      3.13      0.00
  -12   24    5     -4.14      0.00
  -10   24    5      0.42      0.00
   -8   24    5      0.59      0.00
   -6   24    5     -1.32      0.00
   -4   24    5      2.18      0.00
   -2   24    5      0.13      0.00
    0   24    5     -2.30      0.00
    2   24    5      2.40      0.00
    4   24    5     -2.22      0.00
    6   24    5      0.57      0.00
    8   24    5      0.75      0.00
   10   24    5      1.86      0.00
   12   24    5     -3.17      0.00
   14   24    5     -1.25      0.00
   16   24    5      4.21      0.00
   18   24    5     -0.99      0.00
  -17   25    5     -3.04      0.00
  -15   25    5      1.09      0.00
  -13   25    5     -2.54      0.00
  -11   25    5      1.90      0.00
   -9   25    5     -1.23      0.00
   -7   25    5      1.15      0.00
   -5   25    5      0.88      0.00
   -3   25    5     -1.76      0.00
   -1   25    5      1.28      0.00
    1   25    5     -2.83      0.00
    3   25    5      2.54      0.00
    5   25    5      1.98      0.00
    7   25    5     -3.13      0.00
    9   25    5     -1.09      0.00
   11   25    5      0.20      0.00
   13   25    5      6.70      0.00
   15   25    5     -5.06      0.00
  -14   26    5      2.93      0.00
  -12   26    5     -1.99      0.00
  -10   26    5      0.21      0.00
   -8   26    5      1.05      0.00
   -6   26    5     -2.10      0.00
   -4   26    5      3.02      0.00
   -2   26    5     -2.92      0.00
    0   26    5      2.05      0.00
    2   26    5      0.21      0.00
    4   26    5     -3.04      0.00
    6   26    5      1.83      0.00
    8   26    5      0.94      0.00
   10   26    5      1.10      0.00
   12   26    5     -1.98      0.00
   14   26    5     -3.80      0.00
  -11   27    5      3.64      0.00
   -9   27    5     -1.52      0.00
   -7   27    5      0.81      0.00
   -5   27    5     -0.74      0.00
   -3   27    5     -1.66      0.00
   -1   27    5      3.65      0.00
    1   27    5     -3.88      0.00
    3   27    5      3.07      0.00
    5   27    5     -0.32      0.00
    7   27    5     -1.26      0.00
    9   27    5      0.58      0.00
   11   27    5     -2.46      0.00
   -8   28    5      0.77      0.00
   -6   28    5     -3.44      0.00
   -4   28    5      3.60      0.00
   -2   28    5     -2.82      0.00
    0   28    5      2.65      0.00
    2   28    5      0.32      0.00
    4   28    5     -3.03      0.00
    6   28    5      0.86      0.00
    8   28    5      1.97      0.00
   -3   29    5     -2.40      0.00
   -1   29    5      2.51      0.00
    1   29    5     -3.15      0.00
  -30    0    6     17.97      0.00
  -28    0    6    -12.85      0.00
  -26    0    6     -1.56      0.00
  -24    0    6      3.84      0.00
  -22    0    6      0.18      0.00
  -20    0    6      2.74      0.00
  -18    0    6      0.71      0.00
  -16    0    6    -11.53      0.00
  -14    0    6     10.95      0.00
  -12    0    6      0.01      0.00
  -10    0    6    -12.26      0.00
   -8    0    6     18.84      0.00
   -6    0    6    -10.33      0.00
   -4    0    6     -1.76      0.00
   -2    0    6      3.89      0.00
    0    0    6     -5.96      0.00
    2    0    6      9.63      0.00
    4    0    6     -7.58      0.00
    6    0    6      4.39      0.00
    8    0    6     -1.52      0.00
   10    0    6     -2.42      0.00
   12    0    6      2.98      0.00
   14    0    6     -0.81      0.00
   16    0    6      1.62      0.00
   18    0    6     -5.50      0.00
   20    0    6      5.14      0.00
   22    0    6     -0.78      0.00
   24    0    6      1.58      0.00
   26    0    6     -2.08      0.00
   28    0    6     -3.50      0.00
   30    0    6      1.99      0.00
   32    0    6      5.97      0.00
  -33    1    6      6.56      0.00
  -31    1    6     -6.95      0.00
  -29    1    6     -4.04      0.00
  -27    1    6      9.95      0.00
  -25    1    6     -6.31      0.00
  -23    1    6      2.21      0.00
  -21    1    6      0.87      0.00
  -19    1    6     -4.16      0.00
  -17    1    6      3.09      0.00
  -15    1    6      4.52      0.00
  -13    1    6    -12.39      0.00
  -11    1    6     12.50      0.00
   -9    1    6     -4.66      0.00
   -7    1    6     -6.42      0.00
   -5    1    6     14.96      0.00
   -3    1    6    -13.97      0.00
   -1    1    6      6.53      0.00
    1    1    6     -3.33      0.00
    3    1    6      3.32      0.00
    5    1    6     -0.68      0.00
    7    1    6     -2.65      0.00
    9    1    6      3.52      0.00
   11    1    6     -0.70      0.00
   13    1    6     -1.89      0.00
   15    1    6     -1.34      0.00
   17    1    6      4.14      0.00
   19    1    6     -0.84      0.00
   21    1    6     -1.01      0.00
   23    1    6     -1.11      0.00
   25    1    6      1.74      0.00
   27    1    6     -2.40      0.00
   29    1    6      6.15      0.00
   31    1    6     -8.51      0.00
  -32    2    6     -4.20      0.00
  -30    2    6     14.01      0.00
  -28    2    6    -11.92      0.00
  -26    2    6      3.54      0.00
  -24    2    6      2.03      0.00
  -22    2    6     -4.07      0.00
  -20    2    6      1.33      0.00
  -18    2    6      5.25      0.00
  -16    2    6    -10.28      0.00
  -14    2    6      8.69      0.00
  -12    2    6      0.48      0.00
  -10    2    6     -9.49      0.00
   -8    2    6     12.29      0.00
   -6    2    6    -10.05      0.00
   -4    2    6      1.04      0.00
   -2    2    6      9.42      0.00
    0    2    6     -9.61      0.00
    2    2    6      4.80      0.00
    4    2    6     -4.31      0.00
    6    2    6      3.65      0.00
    8    2    6      0.74      0.00
   10    2    6     -5.43      0.00
   12    2    6      5.53      0.00
   14    2    6     -1.72      0.00
   16    2    6      2.35      0.00
   18    2    6     -6.21      0.00
   20    2    6      5.07      0.00
   22    2    6     -2.03      0.00
   24    2    6      0.81      0.00
   26    2    6      0.99      0.00
   28    2    6     -2.14      0.00
   30    2    6      0.84      0.00
   32    2    6      2.37      0.00
  -33    3    6      2.28      0.00
  -31    3    6     -5.63      0.00
  -29    3    6     -1.73      0.00
  -27    3    6     10.60      0.00
  -25    3    6     -8.55      0.00
  -23    3    6      3.72      0.00
  -21    3    6     -2.20      0.00
  -19    3    6     -3.28      0.00
  -17    3    6      5.09      0.00
  -15    3    6      4.67      0.00
  -13    3    6    -12.72      0.00
  -11    3    6     11.72      0.00
   -9    3    6     -4.34      0.00
   -7    3    6     -6.52      0.00
   -5    3    6     10.73      0.00
   -3    3    6     -7.44      0.00
   -1    3    6      5.04      0.00
    1    3    6     -0.77      0.00
    3    3    6     -4.72      0.00
    5    3    6      5.79      0.00
    7    3    6     -5.93      0.00
    9    3    6      5.03      0.00
   11    3    6     -1.49      0.00
   13    3    6      1.16      0.00
   15    3    6     -3.94      0.00
   17    3    6      3.46      0.00
   19    3    6      1.02      0.00
   21    3    6     -2.83      0.00
   23    3    6     -0.58      0.00
   25    3    6      0.97      0.00
   27    3    6      0.95      0.00
   29    3    6      3.97      0.00
   31    3    6     -8.36      0.00
  -32    4    6      6.27      0.00
  -30    4    6      2.57      0.00
  -28    4    6     -8.17      0.00
  -26    4    6      5.54      0.00
  -24    4    6      0.49      0.00
  -22    4    6     -3.67      0.00
  -20    4    6      1.13      0.00
  -18    4    6      5.49      0.00
  -16    4    6    -10.73      0.00
  -14    4    6      9.19      0.00
  -12    4    6     -1.45      0.00
  -10    4    6     -6.10      0.00
   -8    4    6      8.76      0.00
   -6    4    6     -5.26      0.00
   -4    4    6     -2.61      0.00
   -2    4    6      8.95      0.00
    0    4    6    -10.20      0.00
    2    4    6      8.30      0.00
    4    4    6     -4.88      0.00
    6    4    6      0.13      0.00
    8    4    6      5.05      0.00
   10    4    6     -7.75      0.00
   12    4    6      5.29      0.00
   14    4    6     -2.78      0.00
   16    4    6      6.23      0.00
   18    4    6     -8.96      0.00
   20    4    6      4.01      0.00
   22    4    6      1.06      0.00
   24    4    6     -0.14      0.00
   26    4    6      0.15      0.00
   28    4    6     -3.76      0.00
   30    4    6      3.15      0.00
   32    4    6      2.32      0.00
  -33    5    6     -5.77      0.00
  -31    5    6     -2.23      0.00
  -29    5    6      2.49      0.00
  -27    5    6      4.61      0.00
  -25    5    6    -10.38      0.00
  -23    5    6      7.07      0.00
  -21    5    6      2.43      0.00
  -19    5    6     -6.32      0.00
  -17    5    6      2.84      0.00
  -15    5    6      2.87      0.00
  -13    5    6     -9.21      0.00
  -11    5    6     10.20      0.00
   -9    5    6     -4.64      0.00
   -7    5    6     -0.33      0.00
   -5    5    6      6.39      0.00
   -3    5    6    -11.15      0.00
   -1    5    6      5.07      0.00
    1    5    6      4.02      0.00
    3    5    6     -6.43      0.00
    5    5    6      8.04      0.00
    7    5    6    -10.77      0.00
    9    5    6      9.44      0.00
   11    5    6     -4.79      0.00
   13    5    6      3.41      0.00
   15    5    6     -6.29      0.00
   17    5    6      4.57      0.00
   19    5    6      2.08      0.00
   21    5    6     -4.08      0.00
   23    5    6      2.07      0.00
   25    5    6     -0.63      0.00
   27    5    6     -1.01      0.00
   29    5    6      2.74      0.00
   31    5    6     -4.93      0.00
  -32    6    6     16.82      0.00
  -30    6    6     -9.57      0.00
  -28    6    6     -0.32      0.00
  -26    6    6      2.02      0.00
  -24    6    6      1.44      0.00
  -22    6    6     -3.60      0.00
  -20    6    6      2.91      0.00
  -18    6    6      3.10      0.00
  -16    6    6     -9.98      0.00
  -14    6    6      8.86      0.00
  -12    6    6     -2.33      0.00
  -10    6    6     -3.24      0.00
   -8    6    6      5.72      0.00
   -6    6    6     -3.93      0.00
   -4    6    6     -0.44      0.00
   -2    6    6      6.74      0.00
    0    6    6    -12.87      0.00
    2    6    6     12.26      0.00
    4    6    6     -7.76      0.00
    6    6    6      4.64      0.00
    8    6    6      0.82      0.00
   10    6    6     -4.85      0.00
   12    6    6      2.19      0.00
   14    6    6     -1.40      0.00
   16    6    6      5.98      0.00
   18    6    6     -7.58      0.00
   20    6    6      2.89      0.00
   22    6    6      2.45      0.00
   24    6    6     -3.07      0.00
   26    6    6      1.84      0.00
   28    6    6     -2.59      0.00
   30    6    6      1.59      0.00
  -31    7    6     -0.26      0.00
  -29    7    6      4.20      0.00
  -27    7    6     -0.39      0.00
  -25    7    6     -5.57      0.00
  -23    7    6      4.69      0.00
  -21    7    6      2.13      0.00
  -19    7    6     -6.49      0.00
  -17    7    6      5.13      0.00
  -15    7    6      0.15      0.00
  -13    7    6     -5.70      0.00
  -11    7    6      7.70      0.00
   -9    7    6     -5.25      0.00
   -7    7    6     -0.69      0.00
   -5    7    6      6.59      0.00
   -3    7    6     -8.32      0.00
   -1    7    6      6.39      0.00
    1    7    6     -2.61      0.00
    3    7    6     -2.44      0.00
    5    7    6      7.53      0.00
    7    7    6    -10.46      0.00
    9    7    6      7.95      0.00
   11    7    6     -3.09      0.00
   13    7    6      4.50      0.00
   15    7    6     -8.50      0.00
   17    7    6      4.30      0.00
   19    7    6      3.92      0.00
   21    7    6     -4.75      0.00
   23    7    6     -0.17      0.00
   25    7    6      1.71      0.00
   27    7    6     -0.39      0.00
   29    7    6      2.49      0.00
   31    7    6     -5.46      0.00
  -32    8    6     17.25      0.00
  -30    8    6    -11.87      0.00
  -28    8    6      2.84      0.00
  -26    8    6      0.21      0.00
  -24    8    6      3.75      0.00
  -22    8    6     -6.69      0.00
  -20    8    6      2.94      0.00
  -18    8    6      0.92      0.00
  -16    8    6     -1.57      0.00
  -14    8    6      3.35      0.00
  -12    8    6     -2.22      0.00
  -10    8    6     -2.99      0.00
   -8    8    6      4.32      0.00
   -6    8    6     -2.88      0.00
   -4    8    6      0.80      0.00
   -2    8    6      4.99      0.00
    0    8    6     -9.48      0.00
    2    8    6      9.45      0.00
    4    8    6     -9.15      0.00
    6    8    6      7.76      0.00
    8    8    6     -3.66      0.00
   10    8    6      0.91      0.00
   12    8    6     -2.28      0.00
   14    8    6      3.26      0.00
   16    8    6      1.29      0.00
   18    8    6     -5.05      0.00
   20    8    6      1.15      0.00
   22    8    6      3.84      0.00
   24    8    6     -3.88      0.00
   26    8    6      1.50      0.00
   28    8    6      0.01      0.00
   30    8    6      0.09      0.00
  -31    9    6     -4.59      0.00
  -29    9    6      4.39      0.00
  -27    9    6     -0.52      0.00
  -25    9    6     -2.22      0.00
  -23    9    6      2.64      0.00
  -21    9    6     -0.39      0.00
  -19    9    6     -3.04      0.00
  -17    9    6      2.79      0.00
  -15    9    6      0.05      0.00
  -13    9    6     -1.07      0.00
  -11    9    6      1.21      0.00
   -9    9    6     -0.28      0.00
   -7    9    6     -2.28      0.00
   -5    9    6      4.10      0.00
   -3    9    6     -5.76      0.00
   -1    9    6      5.79      0.00
    1    9    6     -2.06      0.00
    3    9    6     -0.43      0.00
    5    9    6      0.74      0.00
    7    9    6     -2.29      0.00
    9    9    6      1.71      0.00
   11    9    6      0.71      0.00
   13    9    6      0.74      0.00
   15    9    6     -3.79      0.00
   17    9    6      3.11      0.00
   19    9    6      0.56      0.00
   21    9    6     -2.62      0.00
   23    9    6      0.22      0.00
   25    9    6      3.07      0.00
   27    9    6     -3.00      0.00
   29    9    6      1.72      0.00
  -30   10    6     -3.93      0.00
  -28   10    6      2.45      0.00
  -26   10    6      0.73      0.00
  -24   10    6      0.23      0.00
  -22   10    6     -4.79      0.00
  -20   10    6      5.10      0.00
  -18   10    6     -2.54      0.00
  -16   10    6      2.31      0.00
  -14   10    6     -3.81      0.00
  -12   10    6      3.43      0.00
  -10   10    6     -1.26      0.00
   -8   10    6      1.18      0.00
   -6   10    6     -1.34      0.00
   -4   10    6     -1.52      0.00
   -2   10    6      3.24      0.00
    0   10    6     -2.51      0.00
    2   10    6      2.79      0.00
    4   10    6     -3.61      0.00
    6   10    6      3.01      0.00
    8   10    6     -1.17      0.00
   10   10    6      1.52      0.00
   12   10    6     -5.49      0.00
   14   10    6      5.98      0.00
   16   10    6      0.03      0.00
   18   10    6     -4.14      0.00
   20   10    6      1.77      0.00
   22   10    6      1.69      0.00
   24   10    6     -1.15      0.00
   26   10    6     -0.93      0.00
   28   10    6      0.25      0.00
   30   10    6      1.15      0.00
  -31   11    6     -5.62      0.00
  -29   11    6      5.29      0.00
  -27   11    6     -2.83      0.00
  -25   11    6     -0.40      0.00
  -23   11    6      2.11      0.00
  -21   11    6     -1.18      0.00
  -19   11    6      1.31      0.00
  -17   11    6     -1.82      0.00
  -15   11    6     -0.83      0.00
  -13   11    6      2.66      0.00
  -11   11    6     -2.38      0.00
   -9   11    6      3.61      0.00
   -7   11    6     -3.93      0.00
   -5   11    6      2.13      0.00
   -3   11    6     -1.53      0.00
   -1   11    6      1.39      0.00
    1   11    6     -0.48      0.00
    3   11    6     -0.08      0.00
    5   11    6     -0.34      0.00
    7   11    6      2.17      0.00
    9   11    6     -4.38      0.00
   11   11    6      4.83      0.00
   13   11    6     -1.90      0.00
   15   11    6     -3.17      0.00
   17   11    6      4.24      0.00
   19   11    6     -0.36      0.00
   21   11    6     -1.01      0.00
   23   11    6     -1.67      0.00
   25   11    6      2.86      0.00
   27   11    6     -1.41      0.00
   29   11    6      0.74      0.00
  -30   12    6     -0.88      0.00
  -28   12    6      0.48      0.00
  -26   12    6      0.16      0.00
  -24   12    6     -2.43      0.00
  -22   12    6      1.03      0.00
  -20   12    6      2.65      0.00
  -18   12    6     -2.53      0.00
  -16   12    6      3.05      0.00
  -14   12    6     -5.13      0.00
  -12   12    6      2.98      0.00
  -10   12    6     -0.02      0.00
   -8   12    6     -0.98      0.00
   -6   12    6      1.94      0.00
   -4   12    6     -0.72      0.00
   -2   12    6     -0.46      0.00
    0   12    6     -1.05      0.00
    2   12    6      0.30      0.00
    4   12    6      2.77      0.00
    6   12    6     -3.47      0.00
    8   12    6      1.55      0.00
   10   12    6      1.12      0.00
   12   12    6     -2.29      0.00
   14   12    6      1.26      0.00
   16   12    6      1.26      0.00
   18   12    6     -5.37      0.00
   20   12    6      7.28      0.00
   22   12    6     -4.15      0.00
   24   12    6      1.16      0.00
   26   12    6     -0.74      0.00
   28   12    6     -0.68      0.00
  -29   13    6      2.80      0.00
  -27   13    6     -9.12      0.00
  -25   13    6      6.45      0.00
  -23   13    6      0.91      0.00
  -21   13    6     -1.18      0.00
  -19   13    6     -0.87      0.00
  -17   13    6     -0.69      0.00
  -15   13    6      1.26      0.00
  -13   13    6      2.66      0.00
  -11   13    6     -5.87      0.00
   -9   13    6      2.83      0.00
   -7   13    6      0.80      0.00
   -5   13    6      0.59      0.00
   -3   13    6     -1.68      0.00
   -1   13    6      0.16      0.00
    1   13    6      0.61      0.00
    3   13    6     -0.49      0.00
    5   13    6     -0.14      0.00
    7   13    6      1.31      0.00
    9   13    6     -2.11      0.00
   11   13    6      1.66      0.00
   13   13    6      0.98      0.00
   15   13    6     -4.29      0.00
   17   13    6      5.09      0.00
   19   13    6     -2.81      0.00
   21   13    6      0.02      0.00
   23   13    6     -0.19      0.00
   25   13    6      2.14      0.00
   27   13    6     -2.20      0.00
  -28   14    6      6.59      0.00
  -26   14    6      0.19      0.00
  -24   14    6     -4.36      0.00
  -22   14    6      3.49      0.00
  -20   14    6     -1.95      0.00
  -18   14    6      0.07      0.00
  -16   14    6      1.46      0.00
  -14   14    6     -1.08      0.00
  -12   14    6      0.60      0.00
  -10   14    6      0.87      0.00
   -8   14    6     -3.41      0.00
   -6   14    6      2.47      0.00
   -4   14    6      0.37      0.00
   -2   14    6     -0.56      0.00
    0   14    6      0.05      0.00
    2   14    6     -0.52      0.00
    4   14    6      0.90      0.00
    6   14    6     -1.35      0.00
    8   14    6      1.52      0.00
   10   14    6     -0.52      0.00
   12   14    6     -0.59      0.00
   14   14    6     -0.79      0.00
   16   14    6      5.05      0.00
   18   14    6     -7.88      0.00
   20   14    6      6.63      0.00
   22   14    6     -4.01      0.00
   24   14    6      2.11      0.00
   26   14    6     -0.35      0.00
  -27   15    6     -7.75      0.00
  -25   15    6      9.98      0.00
  -23   15    6     -5.55      0.00
  -21   15    6     -0.50      0.00
  -19   15    6      0.36      0.00
  -17   15    6      1.03      0.00
  -15   15    6     -0.98      0.00
  -13   15    6      2.34      0.00
  -11   15    6     -2.70      0.00
   -9   15    6      1.96      0.00
   -7   15    6     -0.52      0.00
   -5   15    6     -2.48      0.00
   -3   15    6      2.19      0.00
   -1   15    6      0.82      0.00
    1   15    6     -0.87      0.00
    3   15    6     -0.34      0.00
    5   15    6      0.41      0.00
    7   15    6     -0.01      0.00
    9   15    6      0.17      0.00
   11   15    6     -2.70      0.00
   13   15    6      4.53      0.00
   15   15    6     -3.11      0.00
   17   15    6      2.29      0.00
   19   15    6     -1.95      0.00
   21   15    6      0.24      0.00
   23   15    6     -0.24      0.00
   25   15    6      1.78      0.00
   27   15    6     -2.53      0.00
  -28   16    6      9.78      0.00
  -26   16    6     -1.45      0.00
  -24   16    6     -5.54      0.00
  -22   16    6      4.44      0.00
  -20   16    6     -2.28      0.00
  -18   16    6      1.51      0.00
  -16   16    6      0.36      0.00
  -14   16    6     -1.98      0.00
  -12   16    6      0.97      0.00
  -10   16    6      2.44      0.00
   -8   16    6     -4.38      0.00
   -6   16    6      2.92      0.00
   -4   16    6     -1.50      0.00
   -2   16    6      1.31      0.00
    0   16    6     -0.49      0.00
    2   16    6     -0.34      0.00
    4   16    6      0.20      0.00
    6   16    6      0.68      0.00
    8   16    6     -2.09      0.00
   10   16    6      2.37      0.00
   12   16    6      0.09      0.00
   14   16    6     -2.03      0.00
   16   16    6      0.69      0.00
   18   16    6     -0.68      0.00
   20   16    6      2.99      0.00
   22   16    6     -1.22      0.00
   24   16    6     -2.39      0.00
   26   16    6      1.61      0.00
  -27   17    6     -7.75      0.00
  -25   17    6      6.59      0.00
  -23   17    6     -2.68      0.00
  -21   17    6     -0.25      0.00
  -19   17    6      3.07      0.00
  -17   17    6     -1.01      0.00
  -15   17    6     -2.52      0.00
  -13   17    6      1.64      0.00
  -11   17    6     -2.42      0.00
   -9   17    6      3.95      0.00
   -7   17    6     -0.19      0.00
   -5   17    6     -2.73      0.00
   -3   17    6      2.04      0.00
   -1   17    6     -2.53      0.00
    1   17    6      2.21      0.00
    3   17    6      0.23      0.00
    5   17    6     -1.06      0.00
    7   17    6      0.54      0.00
    9   17    6     -0.44      0.00
   11   17    6     -0.26      0.00
   13   17    6      0.88      0.00
   15   17    6      0.59      0.00
   17   17    6     -1.99      0.00
   19   17    6      1.00      0.00
   21   17    6     -0.91      0.00
   23   17    6      2.05      0.00
   25   17    6     -0.30      0.00
  -26   18    6     -1.46      0.00
  -24   18    6     -3.25      0.00
  -22   18    6      6.44      0.00
  -20   18    6     -1.80      0.00
  -18   18    6     -3.57      0.00
  -16   18    6      3.02      0.00
  -14   18    6     -0.83      0.00
  -12   18    6      0.41      0.00
  -10   18    6     -0.21      0.00
   -8   18    6     -2.18      0.00
   -6   18    6      4.88      0.00
   -4   18    6     -4.20      0.00
   -2   18    6      2.18      0.00
    0   18    6     -1.11      0.00
    2   18    6      0.80      0.00
    4   18    6     -1.30      0.00
    6   18    6      0.50      0.00
    8   18    6     -0.24      0.00
   10   18    6      3.71      0.00
   12   18    6     -4.55      0.00
   14   18    6      1.18      0.00
   16   18    6     -2.15      0.00
   18   18    6      5.42      0.00
   20   18    6     -3.63      0.00
   22   18    6      0.98      0.00
   24   18    6     -2.25      0.00
  -25   19    6      3.20      0.00
  -23   19    6      1.02      0.00
  -21   19    6     -4.31      0.00
  -19   19    6      4.30      0.00
  -17   19    6     -1.88      0.00
  -15   19    6     -1.39      0.00
  -13   19    6      2.75      0.00
  -11   19    6     -2.00      0.00
   -9   19    6      1.78      0.00
   -7   19    6     -1.68      0.00
   -5   19    6      0.20      0.00
   -3   19    6      1.36      0.00
   -1   19    6     -1.73      0.00
    1   19    6      1.59      0.00
    3   19    6     -1.71      0.00
    5   19    6      0.57      0.00
    7   19    6      3.16      0.00
    9   19    6     -4.38      0.00
   11   19    6      0.63      0.00
   13   19    6     -1.11      0.00
   15   19    6      6.35      0.00
   17   19    6     -4.18      0.00
   19   19    6     -0.85      0.00
   21   19    6     -3.44      0.00
   23   19    6      8.34      0.00
  -24   20    6     -2.72      0.00
  -22   20    6      1.04      0.00
  -20   20    6     -0.14      0.00
  -18   20    6     -3.21      0.00
  -16   20    6      3.63      0.00
  -14   20    6      0.86      0.00
  -12   20    6     -1.19      0.00
  -10   20    6     -0.41      0.00
   -8   20    6     -1.36      0.00
   -6   20    6      1.82      0.00
   -4   20    6     -1.22      0.00
   -2   20    6      2.46      0.00
    0   20    6     -3.11      0.00
    2   20    6      2.78      0.00
    4   20    6     -1.62      0.00
    6   20    6      0.10      0.00
    8   20    6     -1.98      0.00
   10   20    6      4.83      0.00
   12   20    6     -2.70      0.00
   14   20    6      0.78      0.00
   16   20    6     -5.09      0.00
   18   20    6      6.58      0.00
   20   20    6      0.14      0.00
   22   20    6     -2.54      0.00
  -21   21    6     -4.86      0.00
  -19   21    6      3.87      0.00
  -17   21    6      0.72      0.00
  -15   21    6     -1.36      0.00
  -13   21    6     -0.70      0.00
  -11   21    6      0.23      0.00
   -9   21    6      1.26      0.00
   -7   21    6     -1.79      0.00
   -5   21    6      1.96      0.00
   -3   21    6     -1.21      0.00
   -1   21    6      0.53      0.00
    1   21    6     -1.64      0.00
    3   21    6      1.28      0.00
    5   21    6      1.16      0.00
    7   21    6      0.43      0.00
    9   21    6     -3.75      0.00
   11   21    6      1.30      0.00
   13   21    6      0.90      0.00
   15   21    6      3.36      0.00
   17   21    6     -4.90      0.00
   19   21    6      0.62      0.00
   21   21    6     -1.97      0.00
  -20   22    6      3.36      0.00
  -18   22    6     -1.64      0.00
  -16   22    6     -1.14      0.00
  -14   22    6      1.77      0.00
  -12   22    6     -1.78      0.00
  -10   22    6      0.79      0.00
   -8   22    6      0.61      0.00
   -6   22    6      0.09      0.00
   -4   22    6     -1.01      0.00
   -2   22    6      0.14      0.00
    0   22    6     -0.31      0.00
    2   22    6      2.89      0.00
    4   22    6     -3.43      0.00
    6   22    6      0.83      0.00
    8   22    6     -1.66      0.00
   10   22    6      4.02      0.00
   12   22    6      0.69      0.00
   14   22    6     -4.23      0.00
   16   22    6     -2.33      0.00
   18   22    6      4.83      0.00
   20   22    6      2.74      0.00
  -19   23    6     -0.26      0.00
  -17   23    6     -0.29      0.00
  -15   23    6      0.59      0.00
  -13   23    6     -1.82      0.00
  -11   23    6      1.60      0.00
   -9   23    6      1.17      0.00
   -7   23    6     -2.41      0.00
   -5   23    6      1.39      0.00
   -3   23    6     -0.80      0.00
   -1   23    6      1.69      0.00
    1   23    6     -2.31      0.00
    3   23    6      0.64      0.00
    5   23    6      0.21      0.00
    7   23    6      1.54      0.00
    9   23    6      0.47      0.00
   11   23    6     -4.64      0.00
   13   23    6     -0.23      0.00
   15   23    6      7.99      0.00
   17   23    6     -3.74      0.00
  -18   24    6     -1.72      0.00
  -16   24    6     -2.31      0.00
  -14   24    6      2.31      0.00
  -12   24    6      0.47      0.00
  -10   24    6     -0.37      0.00
   -8   24    6     -0.42      0.00
   -6   24    6      0.45      0.00
   -4   24    6     -1.77      0.00
   -2   24    6      0.77      0.00
    0   24    6      2.06      0.00
    2   24    6     -0.41      0.00
    4   24    6     -2.06      0.00
    6   24    6      0.23      0.00
    8   24    6      1.34      0.00
   10   24    6     -1.98      0.00
   12   24    6      5.20      0.00
   14   24    6     -6.03      0.00
   16   24    6      0.39      0.00
  -15   25    6      2.04      0.00
  -13   25    6     -2.23      0.00
  -11   25    6      0.46      0.00
   -9   25    6     -0.14      0.00
   -7   25    6     -0.89      0.00
   -5   25    6      1.73      0.00
   -3   25    6      0.55      0.00
   -1   25    6     -2.23      0.00
    1   25    6      0.36      0.00
    3   25    6      0.15      0.00
    5   25    6      2.08      0.00
    7   25    6     -2.24      0.00
    9   25    6      1.32      0.00
   11   25    6     -0.95      0.00
   13   25    6     -3.57      0.00
   15   25    6      8.86      0.00
  -14   26    6     -0.25      0.00
  -12   26    6     -0.56      0.00
  -10   26    6     -0.20      0.00
   -8   26    6      0.57      0.00
   -6   26    6      0.61      0.00
   -4   26    6     -0.99      0.00
   -2   26    6      0.47      0.00
    0   26    6     -0.35      0.00
    2   26    6      0.05      0.00
    4   26    6      1.49      0.00
    6   26    6     -3.20      0.00
    8   26    6      3.32      0.00
   10   26    6     -4.93      0.00
   12   26    6      9.09      0.00
  -11   27    6      1.10      0.00
   -9   27    6     -2.33      0.00
   -7   27    6      1.94      0.00
   -5   27    6      0.16      0.00
   -3   27    6      0.37      0.00
   -1   27    6     -1.81      0.00
    1   27    6      1.52      0.00
    3   27    6     -2.63      0.00
    5   27    6      4.00      0.00
    7   27    6     -2.62      0.00
    9   27    6      0.87      0.00
   -6   28    6     -2.84      0.00
   -4   28    6      1.18      0.00
   -2   28    6      1.03      0.00
    0   28    6     -0.49      0.00
    2   28    6      0.58      0.00
    4   28    6     -0.61      0.00
    6   28    6     -1.79      0.00
  -31    1    7     -1.22      0.00
  -29    1    7      3.70      0.00
  -27    1    7     -1.32      0.00
  -25    1    7     -4.65      0.00
  -23    1    7      4.78      0.00
  -21    1    7      1.84      0.00
  -19    1    7     -3.83      0.00
  -17    1    7      0.13      0.00
  -15    1    7      0.69      0.00
  -13    1    7      0.76      0.00
  -11    1    7     -1.17      0.00
   -9    1    7      0.03      0.00
   -7    1    7      2.75      0.00
   -5    1    7     -1.42      0.00
   -3    1    7     -3.69      0.00
   -1    1    7      2.66      0.00
    1    1    7      2.33      0.00
    3    1    7     -2.96      0.00
    5    1    7      1.89      0.00
    7    1    7     -2.49      0.00
    9    1    7      3.04      0.00
   11    1    7     -2.83      0.00
   13    1    7      2.34      0.00
   15    1    7     -1.28      0.00
   17    1    7     -0.45      0.00
   19    1    7      0.63      0.00
   21    1    7     -0.10      0.00
   23    1    7      2.37      0.00
   25    1    7     -3.20      0.00
   27    1    7      0.25      0.00
   29    1    7      0.04      0.00
   31    1    7      1.32      0.00
  -32    2    7      8.96      0.00
  -30    2    7     -6.28      0.00
  -28    2    7     -2.56      0.00
  -26    2    7      4.40      0.00
  -24    2    7      0.72      0.00
  -22    2    7     -2.90      0.00
  -20    2    7      1.54      0.00
  -18    2    7      0.97      0.00
  -16    2    7     -3.37      0.00
  -14    2    7      2.41      0.00
  -12    2    7     -0.53      0.00
  -10    2    7      1.32      0.00
   -8    2    7     -1.38      0.00
   -6    2    7     -0.58      0.00
   -4    2    7      1.02      0.00
   -2    2    7      2.05      0.00
    0    2    7     -6.37      0.00
    2    2    7      7.14      0.00
    4    2    7     -4.05      0.00
    6    2    7      0.80      0.00
    8    2    7      0.97      0.00
   10    2    7     -0.52      0.00
   12    2    7      0.33      0.00
   14    2    7     -3.16      0.00
   16    2    7      4.46      0.00
   18    2    7     -1.95      0.00
   20    2    7      0.02      0.00
   22    2    7      0.46      0.00
   24    2    7     -1.25      0.00
   26    2    7      2.68      0.00
   28    2    7     -3.69      0.00
   30    2    7      2.46      0.00
  -31    3    7     -2.85      0.00
  -29    3    7      7.97      0.00
  -27    3    7     -2.34      0.00
  -25    3    7     -6.04      0.00
  -23    3    7      4.55      0.00
  -21    3    7      2.61      0.00
  -19    3    7     -5.44      0.00
  -17    3    7      3.45      0.00
  -15    3    7     -0.30      0.00
  -13    3    7     -0.78      0.00
  -11    3    7      0.03      0.00
   -9    3    7     -1.49      0.00
   -7    3    7      2.71      0.00
   -5    3    7      1.29      0.00
   -3    3    7     -5.49      0.00
   -1    3    7      3.68      0.00
    1    3    7      1.54      0.00
    3    3    7     -5.82      0.00
    5    3    7      7.72      0.00
    7    3    7     -6.53      0.00
    9    3    7      3.78      0.00
   11    3    7     -3.53      0.00
   13    3    7      5.16      0.00
   15    3    7     -3.39      0.00
   17    3    7     -0.87      0.00
   19    3    7      2.52      0.00
   21    3    7     -2.39      0.00
   23    3    7      3.42      0.00
   25    3    7     -4.83      0.00
   27    3    7      4.27      0.00
   29    3    7     -1.59      0.00
   31    3    7     -0.06      0.00
  -32    4    7     13.36      0.00
  -30    4    7    -12.78      0.00
  -28    4    7      2.01      0.00
  -26    4    7      4.24      0.00
  -24    4    7      2.11      0.00
  -22    4    7     -7.63      0.00
  -20    4    7      1.54      0.00
  -18    4    7      5.11      0.00
  -16    4    7     -3.42      0.00
  -14    4    7      0.41      0.00
  -12    4    7     -0.04      0.00
  -10    4    7      0.73      0.00
   -8    4    7     -0.50      0.00
   -6    4    7     -3.55      0.00
   -4    4    7      3.87      0.00
   -2    4    7      6.02      0.00
    0    4    7    -12.59      0.00
    2    4    7      7.84      0.00
    4    4    7     -2.20      0.00
    6    4    7      0.66      0.00
    8    4    7     -0.26      0.00
   10    4    7      0.09      0.00
   12    4    7      0.97      0.00
   14    4    7     -3.08      0.00
   16    4    7      3.29      0.00
   18    4    7     -0.62      0.00
   20    4    7     -0.34      0.00
   22    4    7     -1.15      0.00
   24    4    7     -1.38      0.00
   26    4    7      5.67      0.00
   28    4    7     -4.35      0.00
   30    4    7      1.81      0.00
  -31    5    7     -1.97      0.00
  -29    5    7      7.28      0.00
  -27    5    7     -3.62      0.00
  -25    5    7     -1.57      0.00
  -23    5    7     -0.52      0.00
  -21    5    7      4.86      0.00
  -19    5    7     -5.71      0.00
  -17    5    7      3.07      0.00
  -15    5    7      0.84      0.00
  -13    5    7     -2.20      0.00
  -11    5    7      1.28      0.00
   -9    5    7     -1.54      0.00
   -7    5    7      1.30      0.00
   -5    5    7      3.24      0.00
   -3    5    7     -8.45      0.00
   -1    5    7      5.55      0.00
    1    5    7      4.07      0.00
    3    5    7     -8.42      0.00
    5    5    7      5.27      0.00
    7    5    7     -2.39      0.00
    9    5    7      1.75      0.00
   11    5    7     -2.21      0.00
   13    5    7      2.59      0.00
   15    5    7      0.03      0.00
   17    5    7     -2.76      0.00
   19    5    7      1.59      0.00
   21    5    7     -1.31      0.00
   23    5    7      4.79      0.00
   25    5    7     -5.89      0.00
   27    5    7      2.24      0.00
   29    5    7      0.08      0.00
  -32    6    7      6.78      0.00
  -30    6    7     -8.53      0.00
  -28    6    7      5.90      0.00
  -26    6    7     -3.50      0.00
  -24    6    7      5.39      0.00
  -22    6    7     -5.90      0.00
  -20    6    7      2.20      0.00
  -18    6    7      1.08      0.00
  -16    6    7     -1.88      0.00
  -14    6    7      0.26      0.00
  -12    6    7      1.61      0.00
  -10    6    7     -1.71      0.00
   -8    6    7      4.20      0.00
   -6    6    7     -7.31      0.00
   -4    6    7      2.55      0.00
   -2    6    7      5.89      0.00
    0    6    7     -8.01      0.00
    2    6    7      4.28      0.00
    4    6    7     -0.15      0.00
    6    6    7     -1.45      0.00
    8    6    7      0.62      0.00
   10    6    7      0.86      0.00
   12    6    7     -1.14      0.00
   14    6    7     -0.41      0.00
   16    6    7      1.27      0.00
   18    6    7      0.16      0.00
   20    6    7     -1.06      0.00
   22    6    7      0.69      0.00
   24    6    7     -1.84      0.00
   26    6    7      4.48      0.00
   28    6    7     -4.79      0.00
   30    6    7      1.80      0.00
  -31    7    7     -0.62      0.00
  -29    7    7      2.70      0.00
  -27    7    7     -2.21      0.00
  -25    7    7      0.15      0.00
  -23    7    7     -2.30      0.00
  -21    7    7      6.31      0.00
  -19    7    7     -4.25      0.00
  -17    7    7     -0.61      0.00
  -15    7    7      0.89      0.00
  -13    7    7     -0.52      0.00
  -11    7    7      2.78      0.00
   -9    7    7     -3.56      0.00
   -7    7    7      0.87      0.00
   -5    7    7      5.28      0.00
   -3    7    7     -9.77      0.00
   -1    7    7      4.80      0.00
    1    7    7      3.82      0.00
    3    7    7     -5.01      0.00
    5    7    7      0.50      0.00
    7    7    7      2.50      0.00
    9    7    7     -1.73      0.00
   11    7    7      0.29      0.00
   13    7    7     -1.54      0.00
   15    7    7      3.43      0.00
   17    7    7     -3.25      0.00
   19    7    7      2.22      0.00
   21    7    7     -2.38      0.00
   23    7    7      3.83      0.00
   25    7    7     -2.75      0.00
   27    7    7     -2.07      0.00
   29    7    7      4.06      0.00
  -30    8    7      1.06      0.00
  -28    8    7      1.19      0.00
  -26    8    7     -5.03      0.00
  -24    8    7      6.93      0.00
  -22    8    7     -5.00      0.00
  -20    8    7      2.83      0.00
  -18    8    7     -1.69      0.00
  -16    8    7      1.29      0.00
  -14    8    7     -1.00      0.00
  -12    8    7      0.07      0.00
  -10    8    7     -1.51      0.00
   -8    8    7      5.91      0.00
   -6    8    7     -8.80      0.00
   -4    8    7      6.62      0.00
   -2    8    7      1.04      0.00
    0    8    7     -6.52      0.00
    2    8    7      1.85      0.00
    4    8    7      4.95      0.00
    6    8    7     -3.54      0.00
    8    8    7     -1.31      0.00
   10    8    7      2.02      0.00
   12    8    7      0.57      0.00
   14    8    7     -1.57      0.00
   16    8    7     -0.74      0.00
   18    8    7      2.11      0.00
   20    8    7     -0.02      0.00
   22    8    7     -0.39      0.00
   24    8    7     -4.67      0.00
   26    8    7      8.70      0.00
   28    8    7     -4.46      0.00
   30    8    7     -1.86      0.00
  -31    9    7     -1.82      0.00
  -29    9    7     -0.97      0.00
  -27    9    7     -0.93      0.00
  -25    9    7      2.02      0.00
  -23    9    7     -1.59      0.00
  -21    9    7      1.27      0.00
  -19    9    7     -0.67      0.00
  -17    9    7      0.66      0.00
  -15    9    7     -0.41      0.00
  -13    9    7     -0.29      0.00
  -11    9    7      1.72      0.00
   -9    9    7     -5.33      0.00
   -7    9    7      3.96      0.00
   -5    9    7      5.70      0.00
   -3    9    7    -10.74      0.00
   -1    9    7      5.55      0.00
    1    9    7      0.75      0.00
    3    9    7     -2.06      0.00
    5    9    7     -0.56      0.00
    7    9    7      2.38      0.00
    9    9    7     -1.47      0.00
   11    9    7      1.44      0.00
   13    9    7     -2.58      0.00
   15    9    7      2.78      0.00
   17    9    7     -2.65      0.00
   19    9    7      2.24      0.00
   21    9    7     -2.25      0.00
   23    9    7      2.96      0.00
   25    9    7      0.06      0.00
   27    9    7     -7.65      0.00
   29    9    7     10.77      0.00
  -30   10    7      3.86      0.00
  -28   10    7     -1.82      0.00
  -26   10    7      0.05      0.00
  -24   10    7      1.72      0.00
  -22   10    7     -1.69      0.00
  -20   10    7      0.63      0.00
  -18   10    7     -2.31      0.00
  -16   10    7      3.54      0.00
  -14   10    7      0.43      0.00
  -12   10    7     -4.12      0.00
  -10   10    7      1.61      0.00
   -8   10    7      4.89      0.00
   -6   10    7     -9.84      0.00
   -4   10    7      7.33      0.00
   -2   10    7      1.03      0.00
    0   10    7     -5.23      0.00
    2   10    7      2.45      0.00
    4   10    7      1.00      0.00
    6   10    7     -1.41      0.00
    8   10    7      0.32      0.00
   10   10    7     -0.61      0.00
   12   10    7      1.27      0.00
   14   10    7      0.16      0.00
   16   10    7     -0.98      0.00
   18   10    7     -0.39      0.00
   20   10    7      0.58      0.00
   22   10    7      1.83      0.00
   24   10    7     -6.31      0.00
   26   10    7      9.83      0.00
   28   10    7     -6.04      0.00
  -29   11    7      4.58      0.00
  -27   11    7     -2.00      0.00
  -25   11    7      2.78      0.00
  -23   11    7     -3.40      0.00
  -21   11    7     -1.01      0.00
  -19   11    7      3.20      0.00
  -17   11    7     -0.22      0.00
  -15   11    7     -3.27      0.00
  -13   11    7      2.99      0.00
  -11   11    7      2.29      0.00
   -9   11    7     -5.82      0.00
   -7   11    7      2.75      0.00
   -5   11    7      3.16      0.00
   -3   11    7     -8.45      0.00
   -1   11    7      8.09      0.00
    1   11    7     -0.83      0.00
    3   11    7     -3.88      0.00
    5   11    7      2.27      0.00
    7   11    7     -0.45      0.00
    9   11    7      1.07      0.00
   11   11    7     -1.69      0.00
   13   11    7     -0.26      0.00
   15   11    7      2.21      0.00
   17   11    7     -0.08      0.00
   19   11    7     -1.97      0.00
   21   11    7     -0.62      0.00
   23   11    7      3.31      0.00
   25   11    7      0.58      0.00
   27   11    7    -10.00      0.00
   29   11    7     14.08      0.00
  -28   12    7     -0.22      0.00
  -26   12    7      1.82      0.00
  -24   12    7     -3.71      0.00
  -22   12    7      3.84      0.00
  -20   12    7     -1.60      0.00
  -18   12    7     -1.63      0.00
  -16   12    7      1.61      0.00
  -14   12    7      0.96      0.00
  -12   12    7     -3.29      0.00
  -10   12    7      4.37      0.00
   -8   12    7      0.16      0.00
   -6   12    7     -6.71      0.00
   -4   12    7      4.36      0.00
   -2   12    7      3.46      0.00
    0   12    7     -6.59      0.00
    2   12    7      5.04      0.00
    4   12    7     -2.66      0.00
    6   12    7      1.60      0.00
    8   12    7     -1.22      0.00
   10   12    7     -0.28      0.00
   12   12    7      0.72      0.00
   14   12    7      1.03      0.00
   16   12    7     -2.49      0.00
   18   12    7      2.26      0.00
   20   12    7     -0.14      0.00
   22   12    7      0.00      0.00
   24   12    7     -6.24      0.00
   26   12    7     11.80      0.00
   28   12    7     -6.62      0.00
  -29   13    7      3.87      0.00
  -27   13    7     -4.15      0.00
  -25   13    7      2.83      0.00
  -23   13    7     -2.36      0.00
  -21   13    7     -0.28      0.00
  -19   13    7      4.35      0.00
  -17   13    7     -1.73      0.00
  -15   13    7     -3.85      0.00
  -13   13    7      3.45      0.00
  -11   13    7     -0.61      0.00
   -9   13    7     -1.23      0.00
   -7   13    7      1.90      0.00
   -5   13    7      1.66      0.00
   -3   13    7     -4.77      0.00
   -1   13    7      1.95      0.00
    1   13    7      1.32      0.00
    3   13    7     -1.63      0.00
    5   13    7      2.31      0.00
    7   13    7     -4.01      0.00
    9   13    7      4.30      0.00
   11   13    7     -1.99      0.00
   13   13    7      0.23      0.00
   15   13    7     -1.55      0.00
   17   13    7      2.70      0.00
   19   13    7     -1.98      0.00
   21   13    7      0.37      0.00
   23   13    7      2.40      0.00
   25   13    7     -2.03      0.00
   27   13    7     -5.09      0.00
  -28   14    7     -2.56      0.00
  -26   14    7     -1.12      0.00
  -24   14    7      1.74      0.00
  -22   14    7      4.41      0.00
  -20   14    7     -3.91      0.00
  -18   14    7     -2.35      0.00
  -16   14    7      4.14      0.00
  -14   14    7     -1.11      0.00
  -12   14    7     -1.86      0.00
  -10   14    7      1.41      0.00
   -8   14    7     -0.44      0.00
   -6   14    7      1.68      0.00
   -4   14    7     -2.13      0.00
   -2   14    7      2.56      0.00
    0   14    7     -4.10      0.00
    2   14    7      4.38      0.00
    4   14    7     -4.49      0.00
    6   14    7      4.46      0.00
    8   14    7     -3.35      0.00
   10   14    7      2.76      0.00
   12   14    7     -1.85      0.00
   14   14    7      1.81      0.00
   16   14    7     -4.35      0.00
   18   14    7      4.60      0.00
   20   14    7     -1.49      0.00
   22   14    7      0.52      0.00
   24   14    7     -3.97      0.00
   26   14    7      8.73      0.00
  -27   15    7      3.81      0.00
  -25   15    7     -2.13      0.00
  -23   15    7     -0.56      0.00
  -21   15    7     -0.70      0.00
  -19   15    7      3.53      0.00
  -17   15    7     -2.98      0.00
  -15   15    7     -0.06      0.00
  -13   15    7      3.31      0.00
  -11   15    7     -4.90      0.00
   -9   15    7      3.06      0.00
   -7   15    7     -0.83      0.00
   -5   15    7      0.50      0.00
   -3   15    7      0.74      0.00
   -1   15    7     -2.21      0.00
    1   15    7      1.64      0.00
    3   15    7     -1.07      0.00
    5   15    7      1.20      0.00
    7   15    7     -1.62      0.00
    9   15    7      3.47      0.00
   11   15    7     -4.59      0.00
   13   15    7      2.07      0.00
   15   15    7      0.64      0.00
   17   15    7      1.25      0.00
   19   15    7     -4.06      0.00
   21   15    7      0.52      0.00
   23   15    7      6.49      0.00
   25   15    7     -7.24      0.00
  -26   16    7     -2.40      0.00
  -24   16    7      5.83      0.00
  -22   16    7     -4.06      0.00
  -20   16    7     -0.45      0.00
  -18   16    7     -1.78      0.00
  -16   16    7      5.62      0.00
  -14   16    7     -4.82      0.00
  -12   16    7      3.73      0.00
  -10   16    7     -1.29      0.00
   -8   16    7     -2.52      0.00
   -6   16    7      2.72      0.00
   -4   16    7     -2.17      0.00
   -2   16    7      2.75      0.00
    0   16    7     -2.10      0.00
    2   16    7      2.19      0.00
    4   16    7     -3.87      0.00
    6   16    7      5.66      0.00
    8   16    7     -5.91      0.00
   10   16    7      3.03      0.00
   12   16    7     -1.17      0.00
   14   16    7      3.31      0.00
   16   16    7     -5.03      0.00
   18   16    7      3.92      0.00
   20   16    7     -0.76      0.00
   22   16    7     -1.78      0.00
   24   16    7     -1.23      0.00
  -25   17    7     -7.71      0.00
  -23   17    7      0.13      0.00
  -21   17    7     -0.06      0.00
  -19   17    7      3.65      0.00
  -17   17    7     -3.69      0.00
  -15   17    7      1.37      0.00
  -13   17    7      1.54      0.00
  -11   17    7     -3.65      0.00
   -9   17    7      4.56      0.00
   -7   17    7     -3.75      0.00
   -5   17    7      0.62      0.00
   -3   17    7      1.50      0.00
   -1   17    7     -0.90      0.00
    1   17    7     -0.09      0.00
    3   17    7      0.09      0.00
    5   17    7      1.46      0.00
    7   17    7     -3.05      0.00
    9   17    7      3.09      0.00
   11   17    7     -2.69      0.00
   13   17    7      1.86      0.00
   15   17    7     -1.51      0.00
   17   17    7      2.91      0.00
   19   17    7     -2.95      0.00
   21   17    7     -0.49      0.00
   23   17    7      6.20      0.00
  -24   18    7      8.89      0.00
  -22   18    7     -7.25      0.00
  -20   18    7      3.06      0.00
  -18   18    7     -0.31      0.00
  -16   18    7      2.53      0.00
  -14   18    7     -6.28      0.00
  -12   18    7      4.52      0.00
  -10   18    7     -0.65      0.00
   -8   18    7     -0.04      0.00
   -6   18    7      0.44      0.00
   -4   18    7     -0.97      0.00
   -2   18    7      0.02      0.00
    0   18    7     -1.22      0.00
    2   18    7      4.39      0.00
    4   18    7     -4.40      0.00
    6   18    7      2.92      0.00
    8   18    7     -3.93      0.00
   10   18    7      3.71      0.00
   12   18    7     -0.66      0.00
   14   18    7      1.42      0.00
   16   18    7     -5.24      0.00
   18   18    7      2.70      0.00
   20   18    7      4.48      0.00
   22   18    7     -6.17      0.00
  -23   19    7      2.20      0.00
  -21   19    7      4.41      0.00
  -19   19    7     -2.44      0.00
  -17   19    7     -4.03      0.00
  -15   19    7      4.43      0.00
  -13   19    7     -0.76      0.00
  -11   19    7     -2.07      0.00
   -9   19    7      2.50      0.00
   -7   19    7     -1.28      0.00
   -5   19    7      0.79      0.00
   -3   19    7     -1.61      0.00
   -1   19    7      2.93      0.00
    1   19    7     -1.79      0.00
    3   19    7     -1.81      0.00
    5   19    7      1.69      0.00
    7   19    7     -0.37      0.00
    9   19    7      3.72      0.00
   11   19    7     -4.58      0.00
   13   19    7      0.91      0.00
   15   19    7     -2.29      0.00
   17   19    7      7.66      0.00
   19   19    7     -7.68      0.00
   21   19    7      0.74      0.00
  -22   20    7     -7.99      0.00
  -20   20    7      2.41      0.00
  -18   20    7      2.55      0.00
  -16   20    7     -2.10      0.00
  -14   20    7     -1.47      0.00
  -12   20    7      2.16      0.00
  -10   20    7     -0.41      0.00
   -8   20    7      0.04      0.00
   -6   20    7     -0.55      0.00
   -4   20    7      1.01      0.00
   -2   20    7     -1.26      0.00
    0   20    7     -0.05      0.00
    2   20    7      1.89      0.00
    4   20    7     -2.48      0.00
    6   20    7      2.84      0.00
    8   20    7     -2.69      0.00
   10   20    7      1.23      0.00
   12   20    7     -2.08      0.00
   14   20    7      5.05      0.00
   16   20    7     -3.13      0.00
   18   20    7     -2.68      0.00
   20   20    7      5.52      0.00
  -21   21    7      6.60      0.00
  -19   21    7     -7.50      0.00
  -17   21    7      0.20      0.00
  -15   21    7      5.46      0.00
  -13   21    7     -2.28      0.00
  -11   21    7      0.10      0.00
   -9   21    7     -1.71      0.00
   -7   21    7      0.63      0.00
   -5   21    7      0.56      0.00
   -3   21    7      0.14      0.00
   -1   21    7      0.90      0.00
    1   21    7     -1.88      0.00
    3   21    7      0.85      0.00
    5   21    7     -0.57      0.00
    7   21    7      0.47      0.00
    9   21    7      1.59      0.00
   11   21    7     -2.71      0.00
   13   21    7      2.23      0.00
   15   21    7     -5.28      0.00
   17   21    7      9.73      0.00
   19   21    7     -7.72      0.00
  -20   22    7      2.17      0.00
  -18   22    7      5.89      0.00
  -16   22    7     -4.16      0.00
  -14   22    7      0.18      0.00
  -12   22    7     -0.74      0.00
  -10   22    7      0.95      0.00
   -8   22    7      0.14      0.00
   -6   22    7      0.22      0.00
   -4   22    7      0.68      0.00
   -2   22    7     -2.92      0.00
    0   22    7      1.85      0.00
    2   22    7     -0.67      0.00
    4   22    7      2.46      0.00
    6   22    7      0.00      0.00
    8   22    7     -5.34      0.00
   10   22    7      3.76      0.00
   12   22    7     -0.70      0.00
   14   22    7      3.92      0.00
   16   22    7     -4.81      0.00
   18   22    7     -1.77      0.00
  -19   23    7     -8.33      0.00
  -17   23    7      2.72      0.00
  -15   23    7      1.51      0.00
  -13   23    7     -1.73      0.00
  -11   23    7      1.68      0.00
   -9   23    7     -2.24      0.00
   -7   23    7      1.54      0.00
   -5   23    7     -1.17      0.00
   -3   23    7      2.06      0.00
   -1   23    7     -1.63      0.00
    1   23    7      0.11      0.00
    3   23    7      1.54      0.00
    5   23    7     -3.43      0.00
    7   23    7      1.85      0.00
    9   23    7      1.79      0.00
   11   23    7     -0.56      0.00
   13   23    7     -0.16      0.00
   15   23    7     -5.64      0.00
   17   23    7      7.69      0.00
  -16   24    7     -3.17      0.00
  -14   24    7      0.21      0.00
  -12   24    7     -0.23      0.00
  -10   24    7      1.12      0.00
   -8   24    7      0.52      0.00
   -6   24    7     -0.80      0.00
   -4   24    7     -0.48      0.00
   -2   24    7     -0.34      0.00
    0   24    7      2.55      0.00
    2   24    7     -3.47      0.00
    4   24    7      1.53      0.00
    6   24    7      2.01      0.00
    8   24    7     -2.51      0.00
   10   24    7      0.33      0.00
   12   24    7     -1.94      0.00
   14   24    7      5.36      0.00
  -15   25    7     -1.27      0.00
  -13   25    7      1.77      0.00
  -11   25    7      0.78      0.00
   -9   25    7     -1.49      0.00
   -7   25    7     -0.05      0.00
   -5   25    7     -1.21      0.00
   -3   25    7      1.99      0.00
   -1   25    7     -0.46      0.00
    1   25    7      0.96      0.00
    3   25    7     -1.00      0.00
    5   25    7     -1.80      0.00
    7   25    7      1.39      0.00
    9   25    7      1.88      0.00
   11   25    7     -0.80      0.00
   13   25    7     -2.28      0.00
  -12   26    7     -0.16      0.00
  -10   26    7     -0.77      0.00
   -8   26    7      1.34      0.00
   -6   26    7      0.35      0.00
   -4   26    7     -1.04      0.00
   -2   26    7     -0.15      0.00
    0   26    7      0.07      0.00
    2   26    7      0.17      0.00
    4   26    7      0.41      0.00
    6   26    7      1.16      0.00
    8   26    7     -1.69      0.00
   10   26    7     -1.45      0.00
   -9   27    7      0.89      0.00
   -7   27    7     -0.66      0.00
   -5   27    7      0.49      0.00
   -3   27    7      0.58      0.00
   -1   27    7     -1.36      0.00
    1   27    7      0.70      0.00
    3   27    7      0.42      0.00
    5   27    7     -0.25      0.00
    7   27    7     -2.01      0.00
   -4   28    7     -0.81      0.00
   -2   28    7     -0.31      0.00
    0   28    7     -0.74      0.00
    2   28    7      0.10      0.00
  -32    0    8      6.95      0.00
  -30    0    8     -4.39      0.00
  -28    0    8     -2.24      0.00
  -26    0    8      2.30      0.00
  -24    0    8     -0.31      0.00
  -22    0    8      2.47      0.00
  -20    0    8     -5.16      0.00
  -18    0    8      3.91      0.00
  -16    0    8      2.08      0.00
  -14    0    8     -7.16      0.00
  -12    0    8      3.63      0.00
  -10    0    8      5.25      0.00
   -8    0    8     -9.83      0.00
   -6    0    8      6.93      0.00
   -4    0    8     -0.71      0.00
   -2    0    8     -2.02      0.00
    0    0    8     -0.08      0.00
    2    0    8     -0.04      0.00
    4    0    8      4.87      0.00
    6    0    8     -5.44      0.00
    8    0    8     -1.72      0.00
   10    0    8      5.80      0.00
   12    0    8     -2.39      0.00
   14    0    8      1.10      0.00
   16    0    8     -4.85      0.00
   18    0    8      6.11      0.00
   20    0    8     -2.36      0.00
   22    0    8     -1.38      0.00
   24    0    8      1.81      0.00
   26    0    8     -1.71      0.00
   28    0    8      1.95      0.00
   30    0    8      1.24      0.00
  -31    1    8     -3.45      0.00
  -29    1    8      3.93      0.00
  -27    1    8      2.05      0.00
  -25    1    8     -1.98      0.00
  -23    1    8     -1.72      0.00
  -21    1    8     -1.25      0.00
  -19    1    8      5.75      0.00
  -17    1    8     -4.80      0.00
  -15    1    8      0.82      0.00
  -13    1    8      4.94      0.00
  -11    1    8     -9.37      0.00
   -9    1    8      6.41      0.00
   -7    1    8      0.55      0.00
   -5    1    8     -4.08      0.00
   -3    1    8      3.37      0.00
   -1    1    8     -0.42      0.00
    1    1    8     -1.20      0.00
    3    1    8      0.12      0.00
    5    1    8     -2.40      0.00
    7    1    8      8.24      0.00
    9    1    8     -7.67      0.00
   11    1    8      1.38      0.00
   13    1    8     -0.14      0.00
   15    1    8      1.94      0.00
   17    1    8      1.22      0.00
   19    1    8     -4.82      0.00
   21    1    8      3.65      0.00
   23    1    8     -1.67      0.00
   25    1    8     -0.18      0.00
   27    1    8      4.25      0.00
   29    1    8     -7.48      0.00
  -32    2    8      2.29      0.00
  -30    2    8     -1.40      0.00
  -28    2    8      0.14      0.00
  -26    2    8     -3.14      0.00
  -24    2    8      2.02      0.00
  -22    2    8      4.46      0.00
  -20    2    8     -5.08      0.00
  -18    2    8     -1.03      0.00
  -16    2    8      4.82      0.00
  -14    2    8     -5.03      0.00
  -12    2    8      2.22      0.00
  -10    2    8      4.29      0.00
   -8    2    8     -7.46      0.00
   -6    2    8      4.41      0.00
   -4    2    8     -1.24      0.00
   -2    2    8     -1.16      0.00
    0    2    8      2.73      0.00
    2    2    8     -1.97      0.00
    4    2    8      3.20      0.00
    6    2    8     -4.54      0.00
    8    2    8     -0.85      0.00
   10    2    8      6.06      0.00
   12    2    8     -3.99      0.00
   14    2    8      2.87      0.00
   16    2    8     -5.94      0.00
   18    2    8      5.14      0.00
   20    2    8     -1.55      0.00
   22    2    8      1.02      0.00
   24    2    8      0.13      0.00
   26    2    8     -3.02      0.00
   28    2    8      1.56      0.00
   30    2    8      3.10      0.00
  -31    3    8      4.21      0.00
  -29    3    8     -2.91      0.00
  -27    3    8      1.69      0.00
  -25    3    8      1.37      0.00
  -23    3    8     -2.51      0.00
  -21    3    8     -0.97      0.00
  -19    3    8      5.10      0.00
  -17    3    8     -5.83      0.00
  -15    3    8      0.96      0.00
  -13    3    8      6.39      0.00
  -11    3    8     -8.24      0.00
   -9    3    8      3.83      0.00
   -7    3    8      0.86      0.00
   -5    3    8     -2.57      0.00
   -3    3    8      0.69      0.00
   -1    3    8      2.03      0.00
    1    3    8     -1.18      0.00
    3    3    8      0.30      0.00
    5    3    8     -5.93      0.00
    7    3    8     11.78      0.00
    9    3    8     -8.08      0.00
   11    3    8      1.87      0.00
   13    3    8     -2.83      0.00
   15    3    8      4.26      0.00
   17    3    8     -0.03      0.00
   19    3    8     -3.51      0.00
   21    3    8      2.53      0.00
   23    3    8     -0.77      0.00
   25    3    8      0.28      0.00
   27    3    8      1.41      0.00
   29    3    8     -4.55      0.00
  -32    4    8     -6.99      0.00
  -30    4    8      2.67      0.00
  -28    4    8      2.24      0.00
  -26    4    8     -6.16      0.00
  -24    4    8      2.34      0.00
  -22    4    8      4.64      0.00
  -20    4    8     -3.23      0.00
  -18    4    8     -3.50      0.00
  -16    4    8      7.24      0.00
  -14    4    8     -6.61      0.00
  -12    4    8      1.98      0.00
  -10    4    8      2.92      0.00
   -8    4    8     -4.06      0.00
   -6    4    8      2.62      0.00
   -4    4    8      0.54      0.00
   -2    4    8     -2.99      0.00
    0    4    8      1.72      0.00
    2    4    8     -2.53      0.00
    4    4    8      7.58      0.00
    6    4    8     -6.07      0.00
    8    4    8     -3.07      0.00
   10    4    8      6.38      0.00
   12    4    8     -2.68      0.00
   14    4    8      3.32      0.00
   16    4    8     -7.52      0.00
   18    4    8      6.54      0.00
   20    4    8     -2.34      0.00
   22    4    8      0.84      0.00
   24    4    8     -0.77      0.00
   26    4    8     -0.51      0.00
   28    4    8      1.25      0.00
   30    4    8      1.38      0.00
  -31    5    8      5.54      0.00
  -29    5    8     -7.81      0.00
  -27    5    8      2.98      0.00
  -25    5    8      4.98      0.00
  -23    5    8     -4.81      0.00
  -21    5    8     -4.23      0.00
  -19    5    8      9.94      0.00
  -17    5    8     -6.33      0.00
  -15    5    8      0.61      0.00
  -13    5    8      2.97      0.00
  -11    5    8     -4.88      0.00
   -9    5    8      2.94      0.00
   -7    5    8     -0.34      0.00
   -5    5    8      0.74      0.00
   -3    5    8     -0.10      0.00
   -1    5    8     -0.92      0.00
    1    5    8     -0.37      0.00
    3    5    8      1.82      0.00
    5    5    8     -5.54      0.00
    7    5    8      9.90      0.00
    9    5    8     -7.59      0.00
   11    5    8      4.01      0.00
   13    5    8     -5.93      0.00
   15    5    8      5.60      0.00
   17    5    8     -0.31      0.00
   19    5    8     -1.55      0.00
   21    5    8      0.40      0.00
   23    5    8     -2.23      0.00
   25    5    8      3.68      0.00
   27    5    8     -0.59      0.00
   29    5    8     -2.86      0.00
  -30    6    8      7.13      0.00
  -28    6    8     -0.89      0.00
  -26    6    8     -1.26      0.00
  -24    6    8     -2.75      0.00
  -22    6    8      6.10      0.00
  -20    6    8     -3.63      0.00
  -18    6    8     -2.10      0.00
  -16    6    8      6.93      0.00
  -14    6    8     -7.13      0.00
  -12    6    8      2.67      0.00
  -10    6    8      0.94      0.00
   -8    6    8     -1.44      0.00
   -6    6    8      1.45      0.00
   -4    6    8     -0.95      0.00
   -2    6    8     -0.72      0.00
    0    6    8      2.17      0.00
    2    6    8     -4.49      0.00
    4    6    8      7.82      0.00
    6    6    8     -6.18      0.00
    8    6    8     -0.32      0.00
   10    6    8      1.81      0.00
   12    6    8      0.61      0.00
   14    6    8      2.92      0.00
   16    6    8     -7.62      0.00
   18    6    8      4.89      0.00
   20    6    8     -1.05      0.00
   22    6    8      1.58      0.00
   24    6    8     -1.00      0.00
   26    6    8     -2.32      0.00
   28    6    8      2.78      0.00
   30    6    8      1.08      0.00
  -31    7    8      1.41      0.00
  -29    7    8     -1.32      0.00
  -27    7    8      0.73      0.00
  -25    7    8      2.58      0.00
  -23    7    8     -1.60      0.00
  -21    7    8     -5.97      0.00
  -19    7    8      9.70      0.00
  -17    7    8     -7.68      0.00
  -15    7    8      4.01      0.00
  -13    7    8      0.40      0.00
  -11    7    8     -2.20      0.00
   -9    7    8      2.34      0.00
   -7    7    8     -2.55      0.00
   -5    7    8     -0.67      0.00
   -3    7    8      2.79      0.00
   -1    7    8     -0.52      0.00
    1    7    8      1.61      0.00
    3    7    8     -3.64      0.00
    5    7    8     -1.57      0.00
    7    7    8      6.29      0.00
    9    7    8     -3.07      0.00
   11    7    8      0.92      0.00
   13    7    8     -5.11      0.00
   15    7    8      6.10      0.00
   17    7    8     -0.11      0.00
   19    7    8     -3.85      0.00
   21    7    8      2.64      0.00
   23    7    8     -1.96      0.00
   25    7    8      3.16      0.00
   27    7    8     -2.47      0.00
   29    7    8     -1.34      0.00
  -30    8    8      7.24      0.00
  -28    8    8     -5.25      0.00
  -26    8    8      4.59      0.00
  -24    8    8     -7.63      0.00
  -22    8    8      8.62      0.00
  -20    8    8     -3.79      0.00
  -18    8    8     -1.16      0.00
  -16    8    8      1.56      0.00
  -14    8    8     -1.95      0.00
  -12    8    8      3.05      0.00
  -10    8    8     -0.26      0.00
   -8    8    8     -2.49      0.00
   -6    8    8      2.15      0.00
   -4    8    8     -2.05      0.00
   -2    8    8      0.58      0.00
    0    8    8      1.95      0.00
    2    8    8     -2.40      0.00
    4    8    8      3.45      0.00
    6    8    8     -3.78      0.00
    8    8    8      1.70      0.00
   10    8    8     -2.60      0.00
   12    8    8      3.53      0.00
   14    8    8      1.20      0.00
   16    8    8     -4.58      0.00
   18    8    8      2.18      0.00
   20    8    8      0.45      0.00
   22    8    8     -0.88      0.00
   24    8    8      0.96      0.00
   26    8    8     -1.71      0.00
   28    8    8      2.36      0.00
  -29    9    8      2.87      0.00
  -27    9    8     -2.11      0.00
  -25    9    8      0.25      0.00
  -23    9    8      2.78      0.00
  -21    9    8     -5.28      0.00
  -19    9    8      5.40      0.00
  -17    9    8     -3.94      0.00
  -15    9    8      2.63      0.00
  -13    9    8     -1.24      0.00
  -11    9    8     -0.88      0.00
   -9    9    8      1.73      0.00
   -7    9    8     -0.39      0.00
   -5    9    8     -1.53      0.00
   -3    9    8      3.44      0.00
   -1    9    8     -3.70      0.00
    1    9    8      1.86      0.00
    3    9    8     -1.45      0.00
    5    9    8      2.47      0.00
    7    9    8     -3.02      0.00
    9    9    8      3.50      0.00
   11    9    8     -1.28      0.00
   13    9    8     -2.72      0.00
   15    9    8      1.21      0.00
   17    9    8      3.71      0.00
   19    9    8     -3.68      0.00
   21    9    8      1.00      0.00
   23    9    8     -1.17      0.00
   25    9    8      1.62      0.00
   27    9    8      0.45      0.00
   29    9    8     -2.37      0.00
  -30   10    8      0.36      0.00
  -28   10    8     -7.71      0.00
  -26   10    8      7.07      0.00
  -24   10    8     -4.98      0.00
  -22   10    8      5.57      0.00
  -20   10    8     -2.88      0.00
  -18   10    8      1.22      0.00
  -16   10    8     -2.24      0.00
  -14   10    8      1.49      0.00
  -12   10    8     -0.92      0.00
  -10   10    8      0.58      0.00
   -8   10    8     -1.32      0.00
   -6   10    8      4.31      0.00
   -4   10    8     -2.31      0.00
   -2   10    8     -2.88      0.00
    0   10    8      1.52      0.00
    2   10    8      2.41      0.00
    4   10    8     -2.36      0.00
    6   10    8      0.88      0.00
    8   10    8      0.24      0.00
   10   10    8     -2.23      0.00
   12   10    8      4.13      0.00
   14   10    8     -2.09      0.00
   16   10    8     -2.09      0.00
   18   10    8      1.31      0.00
   20   10    8      2.05      0.00
   22   10    8     -1.27      0.00
   24   10    8     -1.05      0.00
   26   10    8      1.39      0.00
   28   10    8     -1.26      0.00
  -29   11    8      2.51      0.00
  -27   11    8      0.61      0.00
  -25   11    8     -2.75      0.00
  -23   11    8      3.72      0.00
  -21   11    8     -3.56      0.00
  -19   11    8      0.32      0.00
  -17   11    8      1.82      0.00
  -15   11    8      0.88      0.00
  -13   11    8     -1.74      0.00
  -11   11    8     -1.79      0.00
   -9   11    8      2.19      0.00
   -7   11    8      0.81      0.00
   -5   11    8     -2.88      0.00
   -3   11    8      4.08      0.00
   -1   11    8     -2.04      0.00
    1   11    8     -1.61      0.00
    3   11    8      0.17      0.00
    5   11    8      3.73      0.00
    7   11    8     -5.39      0.00
    9   11    8      5.87      0.00
   11   11    8     -3.76      0.00
   13   11    8      0.14      0.00
   15   11    8      0.40      0.00
   17   11    8      0.78      0.00
   19   11    8     -0.71      0.00
   21   11    8     -1.18      0.00
   23   11    8      4.42      0.00
   25   11    8     -5.00      0.00
   27   11    8      2.14      0.00
  -28   12    8     -4.10      0.00
  -26   12    8      5.39      0.00
  -24   12    8     -3.26      0.00
  -22   12    8      0.19      0.00
  -20   12    8     -0.03      0.00
  -18   12    8      1.99      0.00
  -16   12    8     -3.62      0.00
  -14   12    8      2.49      0.00
  -12   12    8      0.64      0.00
  -10   12    8     -0.13      0.00
   -8   12    8     -2.38      0.00
   -6   12    8      1.59      0.00
   -4   12    8      0.15      0.00
   -2   12    8     -1.74      0.00
    0   12    8      2.37      0.00
    2   12    8      1.69      0.00
    4   12    8     -6.19      0.00
    6   12    8      5.50      0.00
    8   12    8     -0.98      0.00
   10   12    8     -3.96      0.00
   12   12    8      4.16      0.00
   14   12    8     -0.17      0.00
   16   12    8     -0.52      0.00
   18   12    8     -0.84      0.00
   20   12    8     -0.99      0.00
   22   12    8      3.59      0.00
   24   12    8     -5.09      0.00
   26   12    8      6.30      0.00
  -27   13    8      4.91      0.00
  -25   13    8     -7.04      0.00
  -23   13    8      3.12      0.00
  -21   13    8     -1.26      0.00
  -19   13    8     -0.63      0.00
  -17   13    8      1.31      0.00
  -15   13    8      0.46      0.00
  -13   13    8     -0.50      0.00
  -11   13    8     -0.21      0.00
   -9   13    8      1.46      0.00
   -7   13    8     -2.31      0.00
   -5   13    8     -1.35      0.00
   -3   13    8      3.41      0.00
   -1   13    8      0.80      0.00
    1   13    8     -3.90      0.00
    3   13    8      1.93      0.00
    5   13    8      2.76      0.00
    7   13    8     -5.81      0.00
    9   13    8      3.88      0.00
   11   13    8     -0.29      0.00
   13   13    8     -1.83      0.00
   15   13    8      2.61      0.00
   17   13    8     -2.50      0.00
   19   13    8      4.68      0.00
   21   13    8     -8.09      0.00
   23   13    8      8.08      0.00
   25   13    8     -6.86      0.00
  -28   14    8     -6.60      0.00
  -26   14    8      4.71      0.00
  -24   14    8     -0.91      0.00
  -22   14    8     -1.64      0.00
  -20   14    8      1.90      0.00
  -18   14    8      1.61      0.00
  -16   14    8     -3.51      0.00
  -14   14    8      0.00      0.00
  -12   14    8      2.16      0.00
  -10   14    8     -0.83      0.00
   -8   14    8      0.67      0.00
   -6   14    8     -0.84      0.00
   -4   14    8      1.10      0.00
   -2   14    8     -3.12      0.00
    0   14    8      1.95      0.00
    2   14    8      3.43      0.00
    4   14    8     -5.38      0.00
    6   14    8      2.14      0.00
    8   14    8      1.58      0.00
   10   14    8     -3.41      0.00
   12   14    8      2.69      0.00
   14   14    8     -0.55      0.00
   16   14    8     -0.63      0.00
   18   14    8      1.17      0.00
   20   14    8     -2.06      0.00
   22   14    8      3.82      0.00
   24   14    8     -7.27      0.00
   26   14    8      9.81      0.00
  -27   15    8      2.19      0.00
  -25   15    8     -6.10      0.00
  -23   15    8      6.86      0.00
  -21   15    8     -0.66      0.00
  -19   15    8     -2.98      0.00
  -17   15    8      0.55      0.00
  -15   15    8      2.12      0.00
  -13   15    8     -2.26      0.00
  -11   15    8      0.25      0.00
   -9   15    8      0.57      0.00
   -7   15    8      0.14      0.00
   -5   15    8      0.88      0.00
   -3   15    8     -2.21      0.00
   -1   15    8      3.24      0.00
    1   15    8     -3.81      0.00
    3   15    8      1.07      0.00
    5   15    8      2.25      0.00
    7   15    8     -3.58      0.00
    9   15    8      2.46      0.00
   11   15    8      3.04      0.00
   13   15    8     -5.49      0.00
   15   15    8      1.05      0.00
   17   15    8     -1.06      0.00
   19   15    8      6.26      0.00
   21   15    8     -8.29      0.00
   23   15    8      9.06      0.00
   25   15    8     -8.71      0.00
  -26   16    8      4.92      0.00
  -24   16    8      0.09      0.00
  -22   16    8     -3.29      0.00
  -20   16    8      3.07      0.00
  -18   16    8      0.17      0.00
  -16   16    8     -2.13      0.00
  -14   16    8      1.55      0.00
  -12   16    8     -1.01      0.00
  -10   16    8     -1.12      0.00
   -8   16    8      3.33      0.00
   -6   16    8     -2.63      0.00
   -4   16    8      2.62      0.00
   -2   16    8     -2.84      0.00
    0   16    8      0.31      0.00
    2   16    8      2.15      0.00
    4   16    8     -3.31      0.00
    6   16    8      1.82      0.00
    8   16    8      3.62      0.00
   10   16    8     -5.41      0.00
   12   16    8     -0.44      0.00
   14   16    8      4.40      0.00
   16   16    8     -0.24      0.00
   18   16    8     -4.08      0.00
   20   16    8      1.09      0.00
   22   16    8      3.28      0.00
   24   16    8     -3.71      0.00
  -25   17    8     -4.78      0.00
  -23   17    8      4.30      0.00
  -21   17    8     -0.02      0.00
  -19   17    8     -4.96      0.00
  -17   17    8      3.35      0.00
  -15   17    8      0.98      0.00
  -13   17    8     -1.58      0.00
  -11   17    8      3.04      0.00
   -9   17    8     -4.44      0.00
   -7   17    8      0.91      0.00
   -5   17    8      2.25      0.00
   -3   17    8     -2.72      0.00
   -1   17    8      3.97      0.00
    1   17    8     -4.08      0.00
    3   17    8      1.21      0.00
    5   17    8      2.50      0.00
    7   17    8     -3.82      0.00
    9   17    8      0.58      0.00
   11   17    8      2.64      0.00
   13   17    8     -0.02      0.00
   15   17    8     -4.19      0.00
   17   17    8      2.79      0.00
   19   17    8      2.34      0.00
   21   17    8     -5.30      0.00
   23   17    8      5.80      0.00
  -24   18    8      0.09      0.00
  -22   18    8     -7.18      0.00
  -20   18    8      5.93      0.00
  -18   18    8      0.50      0.00
  -16   18    8     -2.77      0.00
  -14   18    8      3.11      0.00
  -12   18    8     -2.98      0.00
  -10   18    8      0.49      0.00
   -8   18    8      2.68      0.00
   -6   18    8     -3.68      0.00
   -4   18    8      2.76      0.00
   -2   18    8     -1.93      0.00
    0   18    8      0.17      0.00
    2   18    8      1.76      0.00
    4   18    8     -1.04      0.00
    6   18    8      0.49      0.00
    8   18    8     -0.10      0.00
   10   18    8     -1.44      0.00
   12   18    8     -1.34      0.00
   14   18    8      3.26      0.00
   16   18    8      3.20      0.00
   18   18    8     -7.00      0.00
   20   18    8      3.42      0.00
   22   18    8     -1.18      0.00
  -23   19    8      2.02      0.00
  -21   19    8      2.14      0.00
  -19   19    8     -5.81      0.00
  -17   19    8      5.57      0.00
  -15   19    8     -2.89      0.00
  -13   19    8     -1.41      0.00
  -11   19    8      5.32      0.00
   -9   19    8     -4.59      0.00
   -7   19    8      0.92      0.00
   -5   19    8      0.93      0.00
   -3   19    8     -1.52      0.00
   -1   19    8      1.47      0.00
    1   19    8     -0.73      0.00
    3   19    8      1.35      0.00
    5   19    8     -0.19      0.00
    7   19    8     -4.62      0.00
    9   19    8      4.72      0.00
   11   19    8     -0.59      0.00
   13   19    8      4.23      0.00
   15   19    8    -10.37      0.00
   17   19    8      4.21      0.00
   19   19    8      5.55      0.00
   21   19    8     -3.97      0.00
  -22   20    8     -4.09      0.00
  -20   20    8      5.15      0.00
  -18   20    8     -1.98      0.00
  -16   20    8     -2.02      0.00
  -14   20    8      3.10      0.00
  -12   20    8     -2.79      0.00
  -10   20    8     -0.10      0.00
   -8   20    8      3.40      0.00
   -6   20    8     -2.42      0.00
   -4   20    8     -0.02      0.00
   -2   20    8      0.58      0.00
    0   20    8      0.82      0.00
    2   20    8     -1.86      0.00
    4   20    8     -1.33      0.00
    6   20    8      3.63      0.00
    8   20    8      0.01      0.00
   10   20    8     -0.90      0.00
   12   20    8     -2.52      0.00
   14   20    8     -1.23      0.00
   16   20    8      9.96      0.00
   18   20    8     -9.53      0.00
   20   20    8      0.67      0.00
  -21   21    8      2.26      0.00
  -19   21    8     -4.48      0.00
  -17   21    8      4.30      0.00
  -15   21    8     -3.69      0.00
  -13   21    8      0.65      0.00
  -11   21    8      3.22      0.00
   -9   21    8     -2.66      0.00
   -7   21    8     -0.08      0.00
   -5   21    8      0.23      0.00
   -3   21    8      0.73      0.00
   -1   21    8     -0.64      0.00
    1   21    8      0.95      0.00
    3   21    8     -1.39      0.00
    5   21    8      1.42      0.00
    7   21    8     -3.32      0.00
    9   21    8      5.29      0.00
   11   21    8     -5.65      0.00
   13   21    8      7.60      0.00
   15   21    8     -6.26      0.00
   17   21    8     -2.71      0.00
   19   21    8      7.95      0.00
  -18   22    8     -2.31      0.00
  -16   22    8      1.29      0.00
  -14   22    8      1.97      0.00
  -12   22    8     -1.60      0.00
  -10   22    8     -1.78      0.00
   -8   22    8      2.24      0.00
   -6   22    8     -0.50      0.00
   -4   22    8     -0.14      0.00
   -2   22    8      0.46      0.00
    0   22    8     -0.44      0.00
    2   22    8     -0.58      0.00
    4   22    8     -0.39      0.00
    6   22    8      2.60      0.00
    8   22    8     -0.67      0.00
   10   22    8     -1.87      0.00
   12   22    8      0.61      0.00
   14   22    8     -4.18      0.00
   16   22    8     12.01      0.00
   18   22    8     -8.48      0.00
  -17   23    8      3.67      0.00
  -15   23    8     -4.47      0.00
  -13   23    8      2.10      0.00
  -11   23    8     -0.38      0.00
   -9   23    8     -0.02      0.00
   -7   23    8      0.58      0.00
   -5   23    8     -0.35      0.00
   -3   23    8     -0.45      0.00
   -1   23    8     -1.13      0.00
    1   23    8      1.96      0.00
    3   23    8      0.51      0.00
    5   23    8      1.04      0.00
    7   23    8     -5.77      0.00
    9   23    8      4.18      0.00
   11   23    8     -1.46      0.00
   13   23    8      5.08      0.00
   15   23    8     -4.87      0.00
  -16   24    8      1.86      0.00
  -14   24    8      0.29      0.00
  -12   24    8     -0.95      0.00
  -10   24    8     -0.37      0.00
   -8   24    8     -0.16      0.00
   -6   24    8      0.31      0.00
   -4   24    8      1.98      0.00
   -2   24    8     -1.76      0.00
    0   24    8     -0.75      0.00
    2   24    8      0.85      0.00
    4   24    8     -0.42      0.00
    6   24    8      0.68      0.00
    8   24    8      0.39      0.00
   10   24    8     -0.41      0.00
   12   24    8      0.40      0.00
   14   24    8     -4.81      0.00
  -13   25    8      3.28      0.00
  -11   25    8     -1.97      0.00
   -9   25    8      2.05      0.00
   -7   25    8     -0.24      0.00
   -5   25    8     -2.01      0.00
   -3   25    8      0.39      0.00
   -1   25    8      2.33      0.00
    1   25    8     -1.83      0.00
    3   25    8      0.39      0.00
    5   25    8     -0.18      0.00
    7   25    8     -0.34      0.00
    9   25    8      0.45      0.00
   11   25    8     -0.49      0.00
  -10   26    8      0.34      0.00
   -8   26    8     -2.27      0.00
   -6   26    8      0.33      0.00
   -4   26    8      2.35      0.00
   -2   26    8     -1.90      0.00
    0   26    8      1.43      0.00
    2   26    8     -1.58      0.00
    4   26    8     -0.18      0.00
    6   26    8      1.10      0.00
    8   26    8      0.79      0.00
   -7   27    8     -0.85      0.00
   -5   27    8     -2.13      0.00
   -3   27    8     -0.29      0.00
   -1   27    8      2.46      0.00
    1   27    8     -1.51      0.00
    3   27    8      2.15      0.00
    5   27    8     -2.92      0.00
  -31    1    9      3.86      0.00
  -29    1    9     -5.95      0.00
  -27    1    9      3.27      0.00
  -25    1    9      0.92      0.00
  -23    1    9     -2.32      0.00
  -21    1    9      0.75      0.00
  -19    1    9      1.34      0.00
  -17    1    9      0.27      0.00
  -15    1    9     -2.69      0.00
  -13    1    9      0.37      0.00
  -11    1    9      2.32      0.00
   -9    1    9     -2.49      0.00
   -7    1    9      2.43      0.00
   -5    1    9     -0.25      0.00
   -3    1    9     -2.12      0.00
   -1    1    9      1.31      0.00
    1    1    9     -1.45      0.00
    3    1    9      2.40      0.00
    5    1    9     -0.37      0.00
    7    1    9     -1.05      0.00
    9    1    9     -0.37      0.00
   11    1    9      1.48      0.00
   13    1    9     -1.31      0.00
   15    1    9      0.33      0.00
   17    1    9      0.29      0.00
   19    1    9      1.08      0.00
   21    1    9     -1.64      0.00
   23    1    9     -1.08      0.00
   25    1    9      2.82      0.00
   27    1    9     -1.17      0.00
   29    1    9     -0.02      0.00
  -30    2    9      2.66      0.00
  -28    2    9      4.03      0.00
  -26    2    9     -5.16      0.00
  -24    2    9      3.46      0.00
  -22    2    9     -3.22      0.00
  -20    2    9      3.57      0.00
  -18    2    9     -3.45      0.00
  -16    2    9      3.72      0.00
  -14    2    9     -2.33      0.00
  -12    2    9     -1.05      0.00
  -10    2    9      0.91      0.00
   -8    2    9      2.87      0.00
   -6    2    9     -5.16      0.00
   -4    2    9      6.07      0.00
   -2    2    9     -5.32      0.00
    0    2    9      1.50      0.00
    2    2    9      0.64      0.00
    4    2    9      0.51      0.00
    6    2    9     -0.46      0.00
    8    2    9     -0.17      0.00
   10    2    9     -0.36      0.00
   12    2    9     -0.48      0.00
   14    2    9      1.75      0.00
   16    2    9     -0.84      0.00
   18    2    9      0.02      0.00
   20    2    9     -1.15      0.00
   22    2    9      2.01      0.00
   24    2    9     -0.71      0.00
   26    2    9     -1.45      0.00
   28    2    9      1.88      0.00
  -31    3    9      8.99      0.00
  -29    3    9    -10.07      0.00
  -27    3    9      5.18      0.00
  -25    3    9     -0.36      0.00
  -23    3    9     -1.23      0.00
  -21    3    9      0.51      0.00
  -19    3    9     -0.07      0.00
  -17    3    9      0.88      0.00
  -15    3    9     -2.65      0.00
  -13    3    9      2.59      0.00
  -11    3    9      1.75      0.00
   -9    3    9     -5.01      0.00
   -7    3    9      4.02      0.00
   -5    3    9     -2.89      0.00
   -3    3    9     -0.07      0.00
   -1    3    9      5.05      0.00
    1    3    9     -4.54      0.00
    3    3    9      0.56      0.00
    5    3    9     -0.20      0.00
    7    3    9      0.76      0.00
    9    3    9     -0.29      0.00
   11    3    9      1.19      0.00
   13    3    9     -1.50      0.00
   15    3    9      0.07      0.00
   17    3    9     -0.18      0.00
   19    3    9      1.53      0.00
   21    3    9     -0.40      0.00
   23    3    9     -2.74      0.00
   25    3    9      4.21      0.00
   27    3    9     -3.29      0.00
   29    3    9      1.86      0.00
  -30    4    9      6.72      0.00
  -28    4    9      0.57      0.00
  -26    4    9     -3.85      0.00
  -24    4    9      2.71      0.00
  -22    4    9     -1.88      0.00
  -20    4    9      2.77      0.00
  -18    4    9     -5.87      0.00
  -16    4    9      6.01      0.00
  -14    4    9     -0.77      0.00
  -12    4    9     -2.09      0.00
  -10    4    9      1.07      0.00
   -8    4    9      0.40      0.00
   -6    4    9     -3.74      0.00
   -4    4    9      6.40      0.00
   -2    4    9     -5.72      0.00
    0    4    9      4.26      0.00
    2    4    9     -1.42      0.00
    4    4    9     -1.75      0.00
    6    4    9      1.13      0.00
    8    4    9      1.03      0.00
   10    4    9     -0.68      0.00
   12    4    9     -1.85      0.00
   14    4    9      3.74      0.00
   16    4    9     -1.72      0.00
   18    4    9     -1.61      0.00
   20    4    9      0.23      0.00
   22    4    9      2.92      0.00
   24    4    9     -0.95      0.00
   26    4    9     -3.37      0.00
   28    4    9      3.75      0.00
  -31    5    9      4.25      0.00
  -29    5    9     -6.21      0.00
  -27    5    9      3.34      0.00
  -25    5    9     -1.63      0.00
  -23    5    9      1.88      0.00
  -21    5    9     -0.47      0.00
  -19    5    9     -0.73      0.00
  -17    5    9      1.35      0.00
  -15    5    9     -3.72      0.00
  -13    5    9      4.58      0.00
  -11    5    9     -1.56      0.00
   -9    5    9     -1.89      0.00
   -7    5    9      3.97      0.00
   -5    5    9     -4.66      0.00
   -3    5    9      2.80      0.00
   -1    5    9      0.71      0.00
    1    5    9     -2.77      0.00
    3    5    9      1.56      0.00
    5    5    9      1.45      0.00
    7    5    9     -2.48      0.00
    9    5    9      0.27      0.00
   11    5    9      1.79      0.00
   13    5    9     -0.57      0.00
   15    5    9     -2.71      0.00
   17    5    9      3.93      0.00
   19    5    9     -1.45      0.00
   21    5    9     -0.08      0.00
   23    5    9     -3.24      0.00
   25    5    9      5.64      0.00
   27    5    9     -2.15      0.00
   29    5    9     -0.89      0.00
  -30    6    9      2.32      0.00
  -28    6    9     -3.67      0.00
  -26    6    9      3.49      0.00
  -24    6    9     -1.35      0.00
  -22    6    9     -0.20      0.00
  -20    6    9      0.94      0.00
  -18    6    9     -0.81      0.00
  -16    6    9      1.23      0.00
  -14    6    9     -0.88      0.00
  -12    6    9     -2.54      0.00
  -10    6    9      3.78      0.00
   -8    6    9     -2.66      0.00
   -6    6    9      2.95      0.00
   -4    6    9      1.30      0.00
   -2    6    9     -7.20      0.00
    0    6    9      3.75      0.00
    2    6    9      2.56      0.00
    4    6    9     -2.26      0.00
    6    6    9     -0.50      0.00
    8    6    9      1.11      0.00
   10    6    9      0.71      0.00
   12    6    9     -3.21      0.00
   14    6    9      3.66      0.00
   16    6    9     -2.11      0.00
   18    6    9     -0.14      0.00
   20    6    9      1.29      0.00
   22    6    9     -0.64      0.00
   24    6    9      1.41      0.00
   26    6    9     -3.51      0.00
   28    6    9      2.68      0.00
  -29    7    9      0.00      0.00
  -27    7    9      0.69      0.00
  -25    7    9     -0.98      0.00
  -23    7    9      0.49      0.00
  -21    7    9      1.37      0.00
  -19    7    9     -2.29      0.00
  -17    7    9      2.91      0.00
  -15    7    9     -3.75      0.00
  -13    7    9      3.60      0.00
  -11    7    9     -3.85      0.00
   -9    7    9      2.82      0.00
   -7    7    9      1.59      0.00
   -5    7    9     -5.34      0.00
   -3    7    9      5.52      0.00
   -1    7    9     -2.36      0.00
    1    7    9     -1.21      0.00
    3    7    9     -0.56      0.00
    5    7    9      4.84      0.00
    7    7    9     -3.74      0.00
    9    7    9     -0.59      0.00
   11    7    9      2.21      0.00
   13    7    9     -0.06      0.00
   15    7    9     -4.15      0.00
   17    7    9      6.11      0.00
   19    7    9     -4.38      0.00
   21    7    9      3.00      0.00
   23    7    9     -2.64      0.00
   25    7    9      0.30      0.00
   27    7    9      3.01      0.00
   29    7    9     -3.77      0.00
  -30    8    9     -0.57      0.00
  -28    8    9     -0.80      0.00
  -26    8    9      2.54      0.00
  -24    8    9     -2.24      0.00
  -22    8    9      0.53      0.00
  -20    8    9     -3.09      0.00
  -18    8    9      5.71      0.00
  -16    8    9     -3.84      0.00
  -14    8    9      1.69      0.00
  -12    8    9     -1.36      0.00
  -10    8    9      2.95      0.00
   -8    8    9     -5.05      0.00
   -6    8    9      3.77      0.00
   -4    8    9     -0.55      0.00
   -2    8    9     -2.01      0.00
    0    8    9      3.02      0.00
    2    8    9      0.25      0.00
    4    8    9     -3.57      0.00
    6    8    9      0.62      0.00
    8    8    9      2.98      0.00
   10    8    9     -0.93      0.00
   12    8    9     -3.58      0.00
   14    8    9      6.02      0.00
   16    8    9     -4.48      0.00
   18    8    9      0.18      0.00
   20    8    9      2.06      0.00
   22    8    9     -1.70      0.00
   24    8    9      3.49      0.00
   26    8    9     -5.08      0.00
   28    8    9      0.46      0.00
  -29    9    9      1.53      0.00
  -27    9    9      1.44      0.00
  -25    9    9     -2.18      0.00
  -23    9    9     -2.92      0.00
  -21    9    9      7.36      0.00
  -19    9    9     -6.48      0.00
  -17    9    9      1.28      0.00
  -15    9    9      0.93      0.00
  -13    9    9      2.19      0.00
  -11    9    9     -3.04      0.00
   -9    9    9      2.28      0.00
   -7    9    9     -1.86      0.00
   -5    9    9     -3.41      0.00
   -3    9    9      6.84      0.00
   -1    9    9     -2.09      0.00
    1    9    9     -1.01      0.00
    3    9    9     -1.86      0.00
    5    9    9      4.21      0.00
    7    9    9     -1.71      0.00
    9    9    9     -3.24      0.00
   11    9    9      3.69      0.00
   13    9    9     -0.55      0.00
   15    9    9     -1.34      0.00
   17    9    9      4.28      0.00
   19    9    9     -6.03      0.00
   21    9    9      2.96      0.00
   23    9    9      0.10      0.00
   25    9    9     -4.15      0.00
   27    9    9     10.40      0.00
  -28   10    9      0.31      0.00
  -26   10    9     -2.06      0.00
  -24   10    9      4.20      0.00
  -22   10    9     -2.14      0.00
  -20   10    9     -5.09      0.00
  -18   10    9     10.14      0.00
  -16   10    9     -7.36      0.00
  -14   10    9      0.98      0.00
  -12   10    9      1.89      0.00
  -10   10    9     -0.32      0.00
   -8   10    9     -1.79      0.00
   -6   10    9      2.34      0.00
   -4   10    9     -0.56      0.00
   -2   10    9     -3.28      0.00
    0   10    9      4.15      0.00
    2   10    9     -0.39      0.00
    4   10    9     -0.68      0.00
    6   10    9     -2.59      0.00
    8   10    9      2.93      0.00
   10   10    9      0.66      0.00
   12   10    9     -3.60      0.00
   14   10    9      4.87      0.00
   16   10    9     -4.85      0.00
   18   10    9      3.36      0.00
   20   10    9     -0.39      0.00
   22   10    9     -3.87      0.00
   24   10    9      6.57      0.00
   26   10    9     -3.84      0.00
  -29   11    9     -6.19      0.00
  -27   11    9      5.10      0.00
  -25   11    9     -2.64      0.00
  -23   11    9     -2.81      0.00
  -21   11    9     11.01      0.00
  -19   11    9     -8.96      0.00
  -17   11    9     -1.16      0.00
  -15   11    9      5.57      0.00
  -13   11    9     -3.37      0.00
  -11   11    9     -0.83      0.00
   -9   11    9      2.21      0.00
   -7   11    9      0.52      0.00
   -5   11    9     -1.79      0.00
   -3   11    9      2.02      0.00
   -1   11    9     -2.51      0.00
    1   11    9     -0.09      0.00
    3   11    9      1.88      0.00
    5   11    9     -0.63      0.00
    7   11    9      1.15      0.00
    9   11    9     -3.31      0.00
   11   11    9      5.06      0.00
   13   11    9     -4.48      0.00
   15   11    9     -0.02      0.00
   17   11    9      3.40      0.00
   19   11    9     -2.64      0.00
   21   11    9      1.40      0.00
   23   11    9      0.94      0.00
   25   11    9     -7.30      0.00
   27   11    9     12.98      0.00
  -28   12    9     -1.10      0.00
  -26   12    9     -3.76      0.00
  -24   12    9      9.39      0.00
  -22   12    9     -6.32      0.00
  -20   12    9     -4.69      0.00
  -18   12    9     11.35      0.00
  -16   12    9     -6.22      0.00
  -14   12    9     -1.44      0.00
  -12   12    9      2.61      0.00
  -10   12    9     -2.69      0.00
   -8   12    9      2.88      0.00
   -6   12    9     -0.41      0.00
   -4   12    9      1.10      0.00
   -2   12    9     -4.46      0.00
    0   12    9      4.75      0.00
    2   12    9     -3.52      0.00
    4   12    9      1.92      0.00
    6   12    9     -1.47      0.00
    8   12    9      2.75      0.00
   10   12    9     -0.72      0.00
   12   12    9     -3.20      0.00
   14   12    9      5.12      0.00
   16   12    9     -5.95      0.00
   18   12    9      2.96      0.00
   20   12    9      1.60      0.00
   22   12    9     -2.60      0.00
   24   12    9      5.08      0.00
   26   12    9     -6.21      0.00
  -27   13    9      6.57      0.00
  -25   13    9     -4.64      0.00
  -23   13    9     -3.92      0.00
  -21   13    9     11.87      0.00
  -19   13    9     -8.98      0.00
  -17   13    9     -2.00      0.00
  -15   13    9      7.67      0.00
  -13   13    9     -4.67      0.00
  -11   13    9      2.15      0.00
   -9   13    9     -2.20      0.00
   -7   13    9      1.05      0.00
   -5   13    9     -0.74      0.00
   -3   13    9      1.37      0.00
   -1   13    9      0.47      0.00
    1   13    9     -2.97      0.00
    3   13    9      2.73      0.00
    5   13    9     -0.97      0.00
    7   13    9      1.34      0.00
    9   13    9     -3.77      0.00
   11   13    9      4.42      0.00
   13   13    9     -2.81      0.00
   15   13    9      0.74      0.00
   17   13    9      1.97      0.00
   19   13    9     -3.53      0.00
   21   13    9      1.90      0.00
   23   13    9      1.45      0.00
   25   13    9     -5.66      0.00
  -26   14    9     -3.28      0.00
  -24   14    9      6.62      0.00
  -22   14    9     -8.23      0.00
  -20   14    9     -1.64      0.00
  -18   14    9      9.78      0.00
  -16   14    9     -5.87      0.00
  -14   14    9     -0.17      0.00
  -12   14    9      2.50      0.00
  -10   14    9     -1.79      0.00
   -8   14    9      1.18      0.00
   -6   14    9     -3.37      0.00
   -4   14    9      3.83      0.00
   -2   14    9     -2.74      0.00
    0   14    9      3.34      0.00
    2   14    9     -2.48      0.00
    4   14    9      1.11      0.00
    6   14    9     -1.25      0.00
    8   14    9      1.34      0.00
   10   14    9     -1.60      0.00
   12   14    9     -1.40      0.00
   14   14    9      6.62      0.00
   16   14    9     -5.52      0.00
   18   14    9      0.74      0.00
   20   14    9      1.68      0.00
   22   14    9     -4.01      0.00
   24   14    9      5.28      0.00
  -25   15    9     -0.84      0.00
  -23   15    9     -5.22      0.00
  -21   15    9     11.47      0.00
  -19   15    9     -8.51      0.00
  -17   15    9      0.17      0.00
  -15   15    9      3.35      0.00
  -13   15    9     -3.32      0.00
  -11   15    9      4.54      0.00
   -9   15    9     -4.41      0.00
   -7   15    9      2.71      0.00
   -5   15    9     -1.62      0.00
   -3   15    9     -0.44      0.00
   -1   15    9      1.89      0.00
    1   15    9     -1.79      0.00
    3   15    9      2.71      0.00
    5   15    9     -1.40      0.00
    7   15    9     -1.96      0.00
    9   15    9      0.19      0.00
   11   15    9      3.90      0.00
   13   15    9     -3.17      0.00
   15   15    9     -1.43      0.00
   17   15    9      5.23      0.00
   19   15    9     -3.79      0.00
   21   15    9      0.16      0.00
   23   15    9     -0.87      0.00
  -24   16    9      6.96      0.00
  -22   16    9     -5.15      0.00
  -20   16    9     -0.97      0.00
  -18   16    9      5.66      0.00
  -16   16    9     -4.82      0.00
  -14   16    9      1.70      0.00
  -12   16    9     -1.41      0.00
  -10   16    9      0.87      0.00
   -8   16    9      1.61      0.00
   -6   16    9     -2.55      0.00
   -4   16    9      2.38      0.00
   -2   16    9     -2.28      0.00
    0   16    9      2.37      0.00
    2   16    9     -1.83      0.00
    4   16    9     -0.67      0.00
    6   16    9      0.46      0.00
    8   16    9      2.59      0.00
   10   16    9     -0.63      0.00
   12   16    9     -3.29      0.00
   14   16    9      3.46      0.00
   16   16    9     -2.93      0.00
   18   16    9      0.63      0.00
   20   16    9      2.98      0.00
   22   16    9     -2.53      0.00
  -23   17    9     -4.32      0.00
  -21   17    9      9.11      0.00
  -19   17    9     -8.45      0.00
  -17   17    9      3.35      0.00
  -15   17    9     -0.30      0.00
  -13   17    9     -1.38      0.00
  -11   17    9      2.01      0.00
   -9   17    9     -2.86      0.00
   -7   17    9      3.97      0.00
   -5   17    9     -2.13      0.00
   -3   17    9      0.29      0.00
   -1   17    9      0.11      0.00
    1   17    9     -1.60      0.00
    3   17    9      1.27      0.00
    5   17    9      0.15      0.00
    7   17    9      0.51      0.00
    9   17    9     -0.45      0.00
   11   17    9     -0.16      0.00
   13   17    9     -0.02      0.00
   15   17    9     -0.48      0.00
   17   17    9      0.82      0.00
   19   17    9     -1.12      0.00
   21   17    9      1.11      0.00
  -22   18    9     -3.09      0.00
  -20   18    9     -0.04      0.00
  -18   18    9      1.39      0.00
  -16   18    9     -1.88      0.00
  -14   18    9      2.62      0.00
  -12   18    9     -1.17      0.00
  -10   18    9     -0.48      0.00
   -8   18    9      0.14      0.00
   -6   18    9     -0.84      0.00
   -4   18    9      2.17      0.00
   -2   18    9     -1.86      0.00
    0   18    9      2.27      0.00
    2   18    9     -3.23      0.00
    4   18    9      1.64      0.00
    6   18    9      0.49      0.00
    8   18    9     -0.65      0.00
   10   18    9      0.54      0.00
   12   18    9     -0.51      0.00
   14   18    9     -0.40      0.00
   16   18    9      1.53      0.00
   18   18    9     -2.10      0.00
   20   18    9      0.75      0.00
  -21   19    9      2.98      0.00
  -19   19    9     -2.97      0.00
  -17   19    9      4.44      0.00
  -15   19    9     -2.86      0.00
  -13   19    9      0.94      0.00
  -11   19    9     -0.90      0.00
   -9   19    9      0.38      0.00
   -7   19    9      1.08      0.00
   -5   19    9     -1.24      0.00
   -3   19    9      0.51      0.00
   -1   19    9     -1.64      0.00
    1   19    9      0.98      0.00
    3   19    9      2.91      0.00
    5   19    9     -2.37      0.00
    7   19    9     -0.09      0.00
    9   19    9     -1.03      0.00
   11   19    9     -0.84      0.00
   13   19    9      2.75      0.00
   15   19    9      2.09      0.00
   17   19    9     -5.33      0.00
   19   19    9      4.73      0.00
  -20   20    9      1.14      0.00
  -18   20    9     -1.48      0.00
  -16   20    9      0.31      0.00
  -14   20    9      0.02      0.00
  -12   20    9      1.74      0.00
  -10   20    9     -1.27      0.00
   -8   20    9     -0.35      0.00
   -6   20    9     -0.76      0.00
   -4   20    9      1.59      0.00
   -2   20    9     -1.59      0.00
    0   20    9      2.46      0.00
    2   20    9     -1.79      0.00
    4   20    9      1.25      0.00
    6   20    9     -1.85      0.00
    8   20    9     -0.92      0.00
   10   20    9      2.98      0.00
   12   20    9      2.82      0.00
   14   20    9     -9.11      0.00
   16   20    9      6.32      0.00
   18   20    9     -0.30      0.00
  -19   21    9      1.00      0.00
  -17   21    9      2.41      0.00
  -15   21    9     -3.51      0.00
  -13   21    9      1.92      0.00
  -11   21    9     -2.99      0.00
   -9   21    9      3.79      0.00
   -7   21    9     -1.30      0.00
   -5   21    9      0.09      0.00
   -3   21    9     -0.53      0.00
   -1   21    9      0.56      0.00
    1   21    9     -0.78      0.00
    3   21    9      0.45      0.00
    5   21    9     -0.74      0.00
    7   21    9      1.99      0.00
    9   21    9      0.34      0.00
   11   21    9     -4.22      0.00
   13   21    9      1.75      0.00
   15   21    9      5.28      0.00
   17   21    9     -8.52      0.00
  -18   22    9     -3.49      0.00
  -16   22    9      0.43      0.00
  -14   22    9      0.33      0.00
  -12   22    9      1.70      0.00
  -10   22    9     -0.35      0.00
   -8   22    9     -1.37      0.00
   -6   22    9     -0.69      0.00
   -4   22    9      1.52      0.00
   -2   22    9      0.78      0.00
    0   22    9     -0.35      0.00
    2   22    9     -1.22      0.00
    4   22    9     -0.59      0.00
    6   22    9      0.95      0.00
    8   22    9      0.69      0.00
   10   22    9     -1.23      0.00
   12   22    9      5.17      0.00
   14   22    9     -9.22      0.00
   16   22    9      6.04      0.00
  -15   23    9     -2.33      0.00
  -13   23    9      1.69      0.00
  -11   23    9     -3.37      0.00
   -9   23    9      3.37      0.00
   -7   23    9     -0.81      0.00
   -5   23    9      0.53      0.00
   -3   23    9     -1.90      0.00
   -1   23    9      1.67      0.00
    1   23    9     -1.04      0.00
    3   23    9      0.09      0.00
    5   23    9      0.90      0.00
    7   23    9      0.34      0.00
    9   23    9      0.20      0.00
   11   23    9     -4.01      0.00
   13   23    9      1.68      0.00
  -14   24    9      2.17      0.00
  -12   24    9     -1.64      0.00
  -10   24    9      1.83      0.00
   -8   24    9     -2.22      0.00
   -6   24    9      1.41      0.00
   -4   24    9     -0.78      0.00
   -2   24    9      0.15      0.00
    0   24    9     -0.57      0.00
    2   24    9      2.14      0.00
    4   24    9     -0.57      0.00
    6   24    9     -1.85      0.00
    8   24    9      0.13      0.00
   10   24    9     -0.06      0.00
   12   24    9      5.34      0.00
  -11   25    9     -1.22      0.00
   -9   25    9      0.40      0.00
   -7   25    9      0.81      0.00
   -5   25    9      0.53      0.00
   -3   25    9     -0.53      0.00
   -1   25    9     -1.29      0.00
    1   25    9      0.44      0.00
    3   25    9      1.03      0.00
    5   25    9     -0.27      0.00
    7   25    9      0.02      0.00
    9   25    9      0.24      0.00
   -8   26    9     -2.77      0.00
   -6   26    9      1.76      0.00
   -4   26    9     -1.39      0.00
   -2   26    9      1.67      0.00
    0   26    9     -0.17      0.00
    2   26    9     -1.28      0.00
    4   26    9      0.84      0.00
    6   26    9     -0.74      0.00
  -30    0   10     -9.36      0.00
  -28    0   10      9.44      0.00
  -26    0   10     -6.88      0.00
  -24    0   10      6.79      0.00
  -22    0   10     -2.60      0.00
  -20    0   10     -4.91      0.00
  -18    0   10      2.12      0.00
  -16    0   10      5.24      0.00
  -14    0   10     -3.47      0.00
  -12    0   10      0.02      0.00
  -10    0   10      0.09      0.00
   -8    0   10     -0.01      0.00
   -6    0   10     -3.58      0.00
   -4    0   10      5.54      0.00
   -2    0   10     -2.81      0.00
    0    0   10      4.17      0.00
    2    0   10     -3.77      0.00
    4    0   10     -3.11      0.00
    6    0   10      2.66      0.00
    8    0   10      2.47      0.00
   10    0   10      0.82      0.00
   12    0   10     -4.65      0.00
   14    0   10      1.94      0.00
   16    0   10      0.60      0.00
   18    0   10     -1.59      0.00
   20    0   10      1.77      0.00
   22    0   10      2.25      0.00
   24    0   10     -7.21      0.00
   26    0   10      7.01      0.00
   28    0   10     -3.91      0.00
  -29    1   10     -2.22      0.00
  -27    1   10     -4.47      0.00
  -25    1   10      5.48      0.00
  -23    1   10     -9.55      0.00
  -21    1   10     11.85      0.00
  -19    1   10     -6.03      0.00
  -17    1   10      0.71      0.00
  -15    1   10     -2.03      0.00
  -13    1   10      4.51      0.00
  -11    1   10     -3.07      0.00
   -9    1   10     -0.77      0.00
   -7    1   10      2.69      0.00
   -5    1   10     -1.74      0.00
   -3    1   10      0.87      0.00
   -1    1   10     -0.18      0.00
    1    1   10     -2.17      0.00
    3    1   10      2.57      0.00
    5    1   10      1.46      0.00
    7    1   10     -2.72      0.00
    9    1   10     -1.57      0.00
   11    1   10      2.21      0.00
   13    1   10      1.84      0.00
   15    1   10     -1.63      0.00
   17    1   10     -1.62      0.00
   19    1   10      2.93      0.00
   21    1   10     -4.71      0.00
   23    1   10      5.13      0.00
   25    1   10     -0.59      0.00
   27    1   10     -3.73      0.00
  -30    2   10    -12.23      0.00
  -28    2   10      8.39      0.00
  -26    2   10     -2.95      0.00
  -24    2   10      3.95      0.00
  -22    2   10     -1.92      0.00
  -20    2   10     -3.63      0.00
  -18    2   10      4.35      0.00
  -16    2   10     -0.20      0.00
  -14    2   10     -3.01      0.00
  -12    2   10      1.60      0.00
  -10    2   10      0.31      0.00
   -8    2   10      1.26      0.00
   -6    2   10     -2.19      0.00
   -4    2   10      2.26      0.00
   -2    2   10     -4.51      0.00
    0    2   10      4.89      0.00
    2    2   10     -1.26      0.00
    4    2   10     -1.20      0.00
    6    2   10     -0.72      0.00
    8    2   10      2.54      0.00
   10    2   10      0.72      0.00
   12    2   10     -3.50      0.00
   14    2   10      0.32      0.00
   16    2   10      1.95      0.00
   18    2   10     -0.29      0.00
   20    2   10     -0.21      0.00
   22    2   10      1.44      0.00
   24    2   10     -5.13      0.00
   26    2   10      5.83      0.00
   28    2   10     -3.06      0.00
  -29    3   10      3.69      0.00
  -27    3   10     -6.39      0.00
  -25    3   10      4.83      0.00
  -23    3   10     -7.47      0.00
  -21    3   10     10.32      0.00
  -19    3   10     -5.20      0.00
  -17    3   10      0.48      0.00
  -15    3   10     -1.52      0.00
  -13    3   10      1.14      0.00
  -11    3   10     -0.71      0.00
   -9    3   10      1.70      0.00
   -7    3   10      0.06      0.00
   -5    3   10     -0.86      0.00
   -3    3   10      1.24      0.00
   -1    3   10     -4.00      0.00
    1    3   10      1.77      0.00
    3    3   10      1.55      0.00
    5    3   10      2.58      0.00
    7    3   10     -3.72      0.00
    9    3   10     -1.50      0.00
   11    3   10      1.47      0.00
   13    3   10      1.46      0.00
   15    3   10     -0.24      0.00
   17    3   10     -0.81      0.00
   19    3   10      0.73      0.00
   21    3   10     -2.57      0.00
   23    3   10      2.88      0.00
   25    3   10      0.94      0.00
   27    3   10     -4.19      0.00
  -30    4   10    -13.07      0.00
  -28    4   10      7.17      0.00
  -26    4   10     -0.49      0.00
  -24    4   10      0.75      0.00
  -22    4   10     -1.20      0.00
  -20    4   10     -3.84      0.00
  -18    4   10      6.44      0.00
  -16    4   10     -3.47      0.00
  -14    4   10      0.36      0.00
  -12    4   10      1.58      0.00
  -10    4   10     -1.89      0.00
   -8    4   10      0.97      0.00
   -6    4   10     -1.18      0.00
   -4    4   10      0.42      0.00
   -2    4   10     -0.15      0.00
    0    4   10      3.97      0.00
    2    4   10     -4.53      0.00
    4    4   10      0.24      0.00
    6    4   10     -1.23      0.00
    8    4   10      4.13      0.00
   10    4   10     -0.74      0.00
   12    4   10     -1.26      0.00
   14    4   10     -1.60      0.00
   16    4   10      1.26      0.00
   18    4   10      0.58      0.00
   20    4   10      0.77      0.00
   22    4   10      0.43      0.00
   24    4   10     -4.25      0.00
   26    4   10      3.27      0.00
   28    4   10      0.40      0.00
  -29    5   10      7.50      0.00
  -27    5   10     -8.71      0.00
  -25    5   10      3.22      0.00
  -23    5   10     -3.94      0.00
  -21    5   10      7.34      0.00
  -19    5   10     -6.72      0.00
  -17    5   10      2.18      0.00
  -15    5   10      1.50      0.00
  -13    5   10      0.24      0.00
  -11    5   10     -2.38      0.00
   -9    5   10      2.24      0.00
   -7    5   10     -3.61      0.00
   -5    5   10      2.10      0.00
   -3    5   10      3.08      0.00
   -1    5   10     -3.83      0.00
    1    5   10      1.66      0.00
    3    5   10     -2.39      0.00
    5    5   10      3.55      0.00
    7    5   10     -0.98      0.00
    9    5   10     -2.27      0.00
   11    5   10     -0.21      0.00
   13    5   10      3.61      0.00
   15    5   10     -0.22      0.00
   17    5   10     -2.10      0.00
   19    5   10     -0.95      0.00
   21    5   10      0.30      0.00
   23    5   10      2.75      0.00
   25    5   10     -1.22      0.00
   27    5   10     -1.23      0.00
  -30    6   10    -14.40      0.00
  -28    6   10      8.58      0.00
  -26    6   10     -2.55      0.00
  -24    6   10      2.81      0.00
  -22    6   10     -2.52      0.00
  -20    6   10     -2.25      0.00
  -18    6   10      4.75      0.00
  -16    6   10     -3.19      0.00
  -14    6   10      0.67      0.00
  -12    6   10      2.17      0.00
  -10    6   10     -2.93      0.00
   -8    6   10      1.45      0.00
   -6    6   10     -0.42      0.00
   -4    6   10     -1.33      0.00
   -2    6   10      1.56      0.00
    0    6   10      1.98      0.00
    2    6   10     -2.86      0.00
    4    6   10      1.30      0.00
    6    6   10     -2.97      0.00
    8    6   10      2.30      0.00
   10    6   10      2.01      0.00
   12    6   10     -0.85      0.00
   14    6   10     -3.42      0.00
   16    6   10      2.50      0.00
   18    6   10      0.30      0.00
   20    6   10      0.33      0.00
   22    6   10     -1.37      0.00
   24    6   10     -1.04      0.00
   26    6   10      3.84      0.00
   28    6   10     -2.34      0.00
  -29    7   10      0.92      0.00
  -27    7   10     -5.18      0.00
  -25    7   10      3.68      0.00
  -23    7   10     -3.29      0.00
  -21    7   10      7.00      0.00
  -19    7   10     -5.85      0.00
  -17    7   10      1.19      0.00
  -15    7   10      0.12      0.00
  -13    7   10      0.48      0.00
  -11    7   10     -2.83      0.00
   -9    7   10      4.57      0.00
   -7    7   10     -3.41      0.00
   -5    7   10      4.39      0.00
   -3    7   10     -3.43      0.00
   -1    7   10     -3.15      0.00
    1    7   10      4.16      0.00
    3    7   10      0.14      0.00
    5    7   10     -0.48      0.00
    7    7   10      0.79      0.00
    9    7   10     -1.58      0.00
   11    7   10     -2.23      0.00
   13    7   10      4.29      0.00
   15    7   10     -0.73      0.00
   17    7   10     -1.18      0.00
   19    7   10      0.23      0.00
   21    7   10     -2.01      0.00
   23    7   10      5.23      0.00
   25    7   10     -4.97      0.00
   27    7   10      2.39      0.00
  -28    8   10     10.68      0.00
  -26    8   10     -6.14      0.00
  -24    8   10      6.79      0.00
  -22    8   10     -5.18      0.00
  -20    8   10     -0.18      0.00
  -18    8   10      3.45      0.00
  -16    8   10     -1.21      0.00
  -14    8   10     -3.20      0.00
  -12    8   10      3.54      0.00
  -10    8   10     -2.70      0.00
   -8    8   10      3.60      0.00
   -6    8   10     -1.16      0.00
   -4    8   10     -2.89      0.00
   -2    8   10      3.26      0.00
    0    8   10     -0.95      0.00
    2    8   10     -1.94      0.00
    4    8   10      3.04      0.00
    6    8   10     -1.80      0.00
    8    8   10     -0.97      0.00
   10    8   10      4.55      0.00
   12    8   10     -2.19      0.00
   14    8   10     -4.73      0.00
   16    8   10      3.69      0.00
   18    8   10      0.75      0.00
   20    8   10      1.40      0.00
   22    8   10     -2.32      0.00
   24    8   10     -1.26      0.00
   26    8   10      3.19      0.00
  -29    9   10     -1.95      0.00
  -27    9   10     -2.39      0.00
  -25    9   10      2.45      0.00
  -23    9   10     -5.32      0.00
  -21    9   10      7.87      0.00
  -19    9   10     -4.85      0.00
  -17    9   10      0.10      0.00
  -15    9   10      1.82      0.00
  -13    9   10     -0.52      0.00
  -11    9   10     -1.64      0.00
   -9    9   10      2.91      0.00
   -7    9   10     -4.74      0.00
   -5    9   10      6.25      0.00
   -3    9   10     -3.49      0.00
   -1    9   10     -1.34      0.00
    1    9   10      2.52      0.00
    3    9   10     -0.45      0.00
    5    9   10     -2.18      0.00
    7    9   10      4.36      0.00
    9    9   10     -2.23      0.00
   11    9   10     -4.42      0.00
   13    9   10      6.49      0.00
   15    9   10     -1.03      0.00
   17    9   10     -2.89      0.00
   19    9   10      1.34      0.00
   21    9   10     -0.75      0.00
   23    9   10      4.56      0.00
   25    9   10     -7.19      0.00
   27    9   10      4.15      0.00
  -28   10   10     11.27      0.00
  -26   10   10     -8.07      0.00
  -24   10   10      5.96      0.00
  -22   10   10     -5.53      0.00
  -20   10   10      0.33      0.00
  -18   10   10      2.50      0.00
  -16   10   10      0.09      0.00
  -14   10   10     -2.39      0.00
  -12   10   10      4.91      0.00
  -10   10   10     -4.72      0.00
   -8   10   10      1.90      0.00
   -6   10   10     -1.70      0.00
   -4   10   10     -2.18      0.00
   -2   10   10      7.74      0.00
    0   10   10     -2.91      0.00
    2   10   10     -4.67      0.00
    4   10   10      4.72      0.00
    6   10   10     -0.91      0.00
    8   10   10     -3.56      0.00
   10   10   10      4.73      0.00
   12   10   10     -0.91      0.00
   14   10   10     -1.92      0.00
   16   10   10      1.63      0.00
   18   10   10     -0.47      0.00
   20   10   10      0.71      0.00
   22   10   10     -3.03      0.00
   24   10   10      2.72      0.00
   26   10   10      0.89      0.00
  -27   11   10     -3.58      0.00
  -25   11   10      3.84      0.00
  -23   11   10     -6.04      0.00
  -21   11   10      7.50      0.00
  -19   11   10     -4.33      0.00
  -17   11   10     -0.07      0.00
  -15   11   10      1.86      0.00
  -13   11   10     -1.74      0.00
  -11   11   10      1.53      0.00
   -9   11   10      0.20      0.00
   -7   11   10     -3.45      0.00
   -5   11   10      4.74      0.00
   -3   11   10     -2.36      0.00
   -1   11   10     -3.18      0.00
    1   11   10      5.98      0.00
    3   11   10     -0.62      0.00
    5   11   10     -4.83      0.00
    7   11   10      3.54      0.00
    9   11   10     -0.04      0.00
   11   11   10     -3.90      0.00
   13   11   10      5.31      0.00
   15   11   10     -1.55      0.00
   17   11   10      1.13      0.00
   19   11   10     -4.16      0.00
   21   11   10      2.09      0.00
   23   11   10      0.52      0.00
   25   11   10     -0.27      0.00
  -26   12   10     -4.84      0.00
  -24   12   10      5.39      0.00
  -22   12   10     -3.53      0.00
  -20   12   10      0.69      0.00
  -18   12   10      0.31      0.00
  -16   12   10     -0.46      0.00
  -14   12   10     -0.62      0.00
  -12   12   10      1.81      0.00
  -10   12   10     -2.45      0.00
   -8   12   10      2.48      0.00
   -6   12   10      0.50      0.00
   -4   12   10     -5.04      0.00
   -2   12   10      6.05      0.00
    0   12   10     -1.44      0.00
    2   12   10     -4.59      0.00
    4   12   10      5.41      0.00
    6   12   10     -1.55      0.00
    8   12   10     -2.65      0.00
   10   12   10      5.24      0.00
   12   12   10     -2.99      0.00
   14   12   10     -1.06      0.00
   16   12   10     -0.35      0.00
   18   12   10      1.74      0.00
   20   12   10      3.00      0.00
   22   12   10     -7.17      0.00
   24   12   10      6.80      0.00
  -25   13   10      6.50      0.00
  -23   13   10     -4.05      0.00
  -21   13   10      4.35      0.00
  -19   13   10     -3.98      0.00
  -17   13   10      3.01      0.00
  -15   13   10     -1.18      0.00
  -13   13   10     -2.28      0.00
  -11   13   10      1.51      0.00
   -9   13   10      0.33      0.00
   -7   13   10      0.75      0.00
   -5   13   10      0.93      0.00
   -3   13   10     -0.18      0.00
   -1   13   10     -6.05      0.00
    1   13   10      6.52      0.00
    3   13   10     -1.14      0.00
    5   13   10     -3.32      0.00
    7   13   10      4.41      0.00
    9   13   10      0.78      0.00
   11   13   10     -5.69      0.00
   13   13   10      4.46      0.00
   15   13   10     -3.97      0.00
   17   13   10      6.12      0.00
   19   13   10     -8.10      0.00
   21   13   10      8.81      0.00
   23   13   10     -5.32      0.00
  -26   14   10     -5.04      0.00
  -24   14   10      3.09      0.00
  -22   14   10     -1.66      0.00
  -20   14   10      2.03      0.00
  -18   14   10     -2.88      0.00
  -16   14   10      0.80      0.00
  -14   14   10      1.90      0.00
  -12   14   10     -0.98      0.00
  -10   14   10     -0.56      0.00
   -8   14   10     -0.43      0.00
   -6   14   10      1.58      0.00
   -4   14   10     -2.67      0.00
   -2   14   10      3.90      0.00
    0   14   10     -0.49      0.00
    2   14   10     -6.00      0.00
    4   14   10      6.12      0.00
    6   14   10      0.33      0.00
    8   14   10     -5.16      0.00
   10   14   10      4.83      0.00
   12   14   10     -1.28      0.00
   14   14   10     -0.32      0.00
   16   14   10     -1.05      0.00
   18   14   10     -1.72      0.00
   20   14   10      7.62      0.00
   22   14   10     -8.48      0.00
  -25   15   10      4.64      0.00
  -23   15   10     -5.16      0.00
  -21   15   10      1.19      0.00
  -19   15   10     -0.60      0.00
  -17   15   10      3.90      0.00
  -15   15   10     -3.50      0.00
  -13   15   10      1.37      0.00
  -11   15   10     -0.29      0.00
   -9   15   10     -0.44      0.00
   -7   15   10      0.46      0.00
   -5   15   10     -0.85      0.00
   -3   15   10      2.29      0.00
   -1   15   10     -4.73      0.00
    1   15   10      5.09      0.00
    3   15   10     -0.04      0.00
    5   15   10     -4.16      0.00
    7   15   10      3.12      0.00
    9   15   10      0.44      0.00
   11   15   10     -5.99      0.00
   13   15   10      7.52      0.00
   15   15   10     -3.49      0.00
   17   15   10      5.05      0.00
   19   15   10     -8.83      0.00
   21   15   10      5.61      0.00
   23   15   10     -3.41      0.00
  -24   16   10      1.48      0.00
  -22   16   10      0.10      0.00
  -20   16   10      1.84      0.00
  -18   16   10     -3.40      0.00
  -16   16   10      1.07      0.00
  -14   16   10      0.92      0.00
  -12   16   10      0.28      0.00
  -10   16   10      0.94      0.00
   -8   16   10     -2.34      0.00
   -6   16   10     -0.10      0.00
   -4   16   10      0.06      0.00
   -2   16   10      0.92      0.00
    0   16   10      1.86      0.00
    2   16   10     -3.55      0.00
    4   16   10      3.90      0.00
    6   16   10     -1.84      0.00
    8   16   10     -5.30      0.00
   10   16   10      6.43      0.00
   12   16   10      1.46      0.00
   14   16   10     -5.51      0.00
   16   16   10      4.43      0.00
   18   16   10     -4.84      0.00
   20   16   10      6.88      0.00
   22   16   10     -8.06      0.00
  -23   17   10     -3.72      0.00
  -21   17   10     -1.24      0.00
  -19   17   10      2.61      0.00
  -17   17   10      1.13      0.00
  -15   17   10     -3.19      0.00
  -13   17   10      2.13      0.00
  -11   17   10     -2.45      0.00
   -9   17   10      1.99      0.00
   -7   17   10      0.65      0.00
   -5   17   10     -0.98      0.00
   -3   17   10      0.07      0.00
   -1   17   10     -1.10      0.00
    1   17   10      2.27      0.00
    3   17   10     -1.06      0.00
    5   17   10     -3.47      0.00
    7   17   10      5.68      0.00
    9   17   10      0.36      0.00
   11   17   10     -5.94      0.00
   13   17   10      3.06      0.00
   15   17   10     -0.14      0.00
   17   17   10      1.88      0.00
   19   17   10     -1.43      0.00
   21   17   10     -1.16      0.00
  -22   18   10      4.83      0.00
  -20   18   10     -1.94      0.00
  -18   18   10     -2.65      0.00
  -16   18   10      1.84      0.00
  -14   18   10     -0.71      0.00
  -12   18   10     -0.34      0.00
  -10   18   10      1.96      0.00
   -8   18   10     -1.36      0.00
   -6   18   10     -0.84      0.00
   -4   18   10      2.03      0.00
   -2   18   10     -0.33      0.00
    0   18   10     -0.57      0.00
    2   18   10     -2.70      0.00
    4   18   10      4.23      0.00
    6   18   10     -1.90      0.00
    8   18   10     -0.31      0.00
   10   18   10      0.54      0.00
   12   18   10      3.43      0.00
   14   18   10     -6.50      0.00
   16   18   10      4.20      0.00
   18   18   10     -5.24      0.00
   20   18   10      7.56      0.00
  -21   19   10     -2.57      0.00
  -19   19   10      4.28      0.00
  -17   19   10     -1.87      0.00
  -15   19   10     -0.70      0.00
  -13   19   10      2.76      0.00
  -11   19   10     -3.84      0.00
   -9   19   10      1.33      0.00
   -7   19   10      1.24      0.00
   -5   19   10      0.28      0.00
   -3   19   10     -1.84      0.00
   -1   19   10      1.21      0.00
    1   19   10      0.20      0.00
    3   19   10     -2.19      0.00
    5   19   10      0.12      0.00
    7   19   10      5.53      0.00
    9   19   10     -5.18      0.00
   11   19   10      1.44      0.00
   13   19   10     -2.98      0.00
   15   19   10      4.45      0.00
   17   19   10     -1.42      0.00
   19   19   10      0.00      0.00
  -20   20   10     -3.47      0.00
  -18   20   10     -0.49      0.00
  -16   20   10      2.35      0.00
  -14   20   10     -0.83      0.00
  -12   20   10     -1.58      0.00
  -10   20   10      3.27      0.00
   -8   20   10     -2.14      0.00
   -6   20   10     -0.61      0.00
   -4   20   10      1.20      0.00
   -2   20   10     -0.53      0.00
    0   20   10     -1.20      0.00
    2   20   10      1.60      0.00
    4   20   10      4.38      0.00
    6   20   10     -8.50      0.00
    8   20   10      4.65      0.00
   10   20   10     -3.38      0.00
   12   20   10      4.34      0.00
   14   20   10      0.43      0.00
   16   20   10     -2.96      0.00
  -17   21   10     -2.99      0.00
  -15   21   10      0.04      0.00
  -13   21   10      2.46      0.00
  -11   21   10     -1.84      0.00
   -9   21   10     -0.94      0.00
   -7   21   10      1.39      0.00
   -5   21   10      0.37      0.00
   -3   21   10     -2.16      0.00
   -1   21   10      1.52      0.00
    1   21   10      1.68      0.00
    3   21   10     -2.50      0.00
    5   21   10     -0.26      0.00
    7   21   10      3.72      0.00
    9   21   10     -7.48      0.00
   11   21   10     10.93      0.00
   13   21   10    -11.21      0.00
   15   21   10      4.88      0.00
  -16   22   10      1.97      0.00
  -14   22   10     -1.31      0.00
  -12   22   10     -1.64      0.00
  -10   22   10      2.85      0.00
   -8   22   10     -1.28      0.00
   -6   22   10     -0.04      0.00
   -4   22   10     -0.09      0.00
   -2   22   10      1.12      0.00
    0   22   10     -2.10      0.00
    2   22   10      0.77      0.00
    4   22   10      3.71      0.00
    6   22   10     -7.93      0.00
    8   22   10      8.26      0.00
   10   22   10     -5.14      0.00
   12   22   10     -0.43      0.00
   14   22   10      7.18      0.00
  -13   23   10     -0.14      0.00
  -11   23   10      1.65      0.00
   -9   23   10     -2.19      0.00
   -7   23   10     -0.19      0.00
   -5   23   10      1.09      0.00
   -3   23   10      0.42      0.00
   -1   23   10      0.32      0.00
    1   23   10     -0.23      0.00
    3   23   10     -3.55      0.00
    5   23   10      2.21      0.00
    7   23   10      4.54      0.00
    9   23   10     -8.29      0.00
   11   23   10     10.55      0.00
  -12   24   10      0.26      0.00
  -10   24   10     -0.46      0.00
   -8   24   10      2.09      0.00
   -6   24   10     -0.49      0.00
   -4   24   10     -2.50      0.00
   -2   24   10      2.66      0.00
    0   24   10     -1.68      0.00
    2   24   10      0.63      0.00
    4   24   10      1.79      0.00
    6   24   10     -4.27      0.00
    8   24   10      5.32      0.00
   10   24   10     -3.83      0.00
   -9   25   10     -1.55      0.00
   -7   25   10     -1.31      0.00
   -5   25   10      1.55      0.00
   -3   25   10     -0.19      0.00
   -1   25   10     -1.12      0.00
    1   25   10      2.29      0.00
    3   25   10     -2.36      0.00
    5   25   10      1.53      0.00
    7   25   10      0.25      0.00
   -2   26   10      1.89      0.00
    0   26   10     -1.90      0.00
  -29    1   11      3.79      0.00
  -27    1   11     -4.50      0.00
  -25    1   11      2.43      0.00
  -23    1   11     -0.08      0.00
  -21    1   11     -1.53      0.00
  -19    1   11     -0.43      0.00
  -17    1   11      1.98      0.00
  -15    1   11      0.51      0.00
  -13    1   11     -0.65      0.00
  -11    1   11     -0.43      0.00
   -9    1   11     -0.37      0.00
   -7    1   11     -1.82      0.00
   -5    1   11      2.59      0.00
   -3    1   11      0.75      0.00
   -1    1   11     -0.83      0.00
    1    1   11      1.04      0.00
    3    1   11     -4.10      0.00
    5    1   11      2.85      0.00
    7    1   11      0.28      0.00
    9    1   11     -0.72      0.00
   11    1   11      1.07      0.00
   13    1   11     -0.87      0.00
   15    1   11      0.06      0.00
   17    1   11     -0.14      0.00
   19    1   11     -0.54      0.00
   21    1   11      1.20      0.00
   23    1   11     -0.30      0.00
   25    1   11     -0.60      0.00
   27    1   11      0.72      0.00
  -28    2   11      1.84      0.00
  -26    2   11      1.00      0.00
  -24    2   11     -3.42      0.00
  -22    2   11      2.68      0.00
  -20    2   11     -1.52      0.00
  -18    2   11      1.77      0.00
  -16    2   11     -2.92      0.00
  -14    2   11      5.13      0.00
  -12    2   11     -4.50      0.00
  -10    2   11      0.96      0.00
   -8    2   11     -0.05      0.00
   -6    2   11      1.20      0.00
   -4    2   11     -2.87      0.00
   -2    2   11      5.11      0.00
    0    2   11     -4.34      0.00
    2    2   11      1.18      0.00
    4    2   11      0.97      0.00
    6    2   11     -2.47      0.00
    8    2   11      2.53      0.00
   10    2   11     -1.60      0.00
   12    2   11      1.49      0.00
   14    2   11      0.08      0.00
   16    2   11     -2.18      0.00
   18    2   11      1.33      0.00
   20    2   11      0.40      0.00
   22    2   11     -0.82      0.00
   24    2   11      0.10      0.00
   26    2   11      1.05      0.00
  -29    3   11      6.63      0.00
  -27    3   11     -7.51      0.00
  -25    3   11      5.69      0.00
  -23    3   11     -0.69      0.00
  -21    3   11     -0.98      0.00
  -19    3   11     -0.59      0.00
  -17    3   11      1.60      0.00
  -15    3   11     -1.65      0.00
  -13    3   11     -0.68      0.00
  -11    3   11      2.81      0.00
   -9    3   11     -1.21      0.00
   -7    3   11     -1.46      0.00
   -5    3   11      3.81      0.00
   -3    3   11     -4.13      0.00
   -1    3   11     -0.32      0.00
    1    3   11      4.40      0.00
    3    3   11     -4.05      0.00
    5    3   11      2.66      0.00
    7    3   11     -1.42      0.00
    9    3   11     -0.13      0.00
   11    3   11      1.26      0.00
   13    3   11     -2.34      0.00
   15    3   11      2.14      0.00
   17    3   11      0.34      0.00
   19    3   11     -2.20      0.00
   21    3   11      0.96      0.00
   23    3   11      1.71      0.00
   25    3   11     -2.26      0.00
   27    3   11      0.81      0.00
  -28    4   11      4.07      0.00
  -26    4   11      0.25      0.00
  -24    4   11     -2.19      0.00
  -22    4   11      1.69      0.00
  -20    4   11      0.55      0.00
  -18    4   11      1.10      0.00
  -16    4   11     -5.51      0.00
  -14    4   11      5.87      0.00
  -12    4   11     -5.23      0.00
  -10    4   11      3.25      0.00
   -8    4   11      2.27      0.00
   -6    4   11     -2.34      0.00
   -4    4   11     -2.21      0.00
   -2    4   11      3.40      0.00
    0    4   11     -4.55      0.00
    2    4   11      4.29      0.00
    4    4   11      0.31      0.00
    6    4   11     -2.63      0.00
    8    4   11      2.45      0.00
   10    4   11     -2.87      0.00
   12    4   11      2.04      0.00
   14    4   11     -1.18      0.00
   16    4   11      0.10      0.00
   18    4   11      1.82      0.00
   20    4   11     -0.44      0.00
   22    4   11     -2.20      0.00
   24    4   11      1.14      0.00
   26    4   11      1.28      0.00
  -29    5   11      5.32      0.00
  -27    5   11     -4.72      0.00
  -25    5   11      2.64      0.00
  -23    5   11     -0.82      0.00
  -21    5   11      0.07      0.00
  -19    5   11     -0.83      0.00
  -17    5   11      2.02      0.00
  -15    5   11     -1.45      0.00
  -13    5   11     -1.73      0.00
  -11    5   11      5.44      0.00
   -9    5   11     -5.89      0.00
   -7    5   11      1.91      0.00
   -5    5   11      2.92      0.00
   -3    5   11     -4.66      0.00
   -1    5   11      3.15      0.00
    1    5   11     -0.30      0.00
    3    5   11     -1.87      0.00
    5    5   11      1.79      0.00
    7    5   11     -0.72      0.00
    9    5   11      0.92      0.00
   11    5   11     -0.82      0.00
   13    5   11     -0.89      0.00
   15    5   11      1.88      0.00
   17    5   11     -1.35      0.00
   19    5   11      0.00      0.00
   21    5   11      0.87      0.00
   23    5   11      1.82      0.00
   25    5   11     -5.30      0.00
   27    5   11      3.60      0.00
  -28    6   11      1.85      0.00
  -26    6   11     -2.13      0.00
  -24    6   11      1.70      0.00
  -22    6   11     -2.92      0.00
  -20    6   11      2.26      0.00
  -18    6   11     -0.42      0.00
  -16    6   11     -1.08      0.00
  -14    6   11      4.53      0.00
  -12    6   11     -4.96      0.00
  -10    6   11      1.00      0.00
   -8    6   11      2.47      0.00
   -6    6   11     -5.82      0.00
   -4    6   11      4.69      0.00
   -2    6   11      2.28      0.00
    0    6   11     -4.02      0.00
    2    6   11      0.58      0.00
    4    6   11     -0.57      0.00
    6    6   11      1.75      0.00
    8    6   11     -0.42      0.00
   10    6   11     -2.16      0.00
   12    6   11      3.75      0.00
   14    6   11     -2.67      0.00
   16    6   11      0.75      0.00
   18    6   11      0.13      0.00
   20    6   11      0.69      0.00
   22    6   11     -3.03      0.00
   24    6   11      2.30      0.00
   26    6   11      1.66      0.00
  -27    7   11      0.25      0.00
  -25    7   11     -2.65      0.00
  -23    7   11      1.59      0.00
  -21    7   11     -0.24      0.00
  -19    7   11     -1.21      0.00
  -17    7   11      1.70      0.00
  -15    7   11     -0.03      0.00
  -13    7   11     -1.96      0.00
  -11    7   11      5.68      0.00
   -9    7   11     -8.52      0.00
   -7    7   11      4.93      0.00
   -5    7   11      0.49      0.00
   -3    7   11     -3.21      0.00
   -1    7   11      3.86      0.00
    1    7   11     -2.44      0.00
    3    7   11      2.56      0.00
    5    7   11     -3.31      0.00
    7    7   11     -0.38      0.00
    9    7   11      3.22      0.00
   11    7   11     -2.39      0.00
   13    7   11      1.98      0.00
   15    7   11      0.26      0.00
   17    7   11     -2.17      0.00
   19    7   11     -0.59      0.00
   21    7   11      1.13      0.00
   23    7   11      2.22      0.00
   25    7   11     -2.97      0.00
  -28    8   11     -3.50      0.00
  -26    8   11      1.42      0.00
  -24    8   11      3.92      0.00
  -22    8   11     -5.27      0.00
  -20    8   11      4.80      0.00
  -18    8   11     -3.80      0.00
  -16    8   11      0.85      0.00
  -14    8   11      1.54      0.00
  -12    8   11     -2.38      0.00
  -10    8   11      0.78      0.00
   -8    8   11      3.14      0.00
   -6    8   11     -4.32      0.00
   -4    8   11      2.46      0.00
   -2    8   11     -1.27      0.00
    0    8   11      0.43      0.00
    2    8   11      0.33      0.00
    4    8   11     -1.46      0.00
    6    8   11      3.56      0.00
    8    8   11     -3.54      0.00
   10    8   11      0.85      0.00
   12    8   11      1.59      0.00
   14    8   11     -3.22      0.00
   16    8   11      2.98      0.00
   18    8   11     -0.79      0.00
   20    8   11      0.96      0.00
   22    8   11     -3.87      0.00
   24    8   11      3.78      0.00
   26    8   11     -0.33      0.00
  -27    9   11      1.77      0.00
  -25    9   11     -3.81      0.00
  -23    9   11      4.26      0.00
  -21    9   11     -1.52      0.00
  -19    9   11     -1.10      0.00
  -17    9   11      2.47      0.00
  -15    9   11     -2.43      0.00
  -13    9   11     -1.48      0.00
  -11    9   11      4.09      0.00
   -9    9   11     -4.06      0.00
   -7    9   11      5.11      0.00
   -5    9   11     -2.28      0.00
   -3    9   11     -2.00      0.00
   -1    9   11      0.97      0.00
    1    9   11     -1.64      0.00
    3    9   11      5.80      0.00
    5    9   11     -5.75      0.00
    7    9   11      1.04      0.00
    9    9   11      4.23      0.00
   11    9   11     -5.10      0.00
   13    9   11      2.20      0.00
   15    9   11     -1.52      0.00
   17    9   11      1.47      0.00
   19    9   11     -0.99      0.00
   21    9   11      2.32      0.00
   23    9   11     -1.21      0.00
   25    9   11     -0.38      0.00
  -26   10   11      2.90      0.00
  -24   10   11      1.53      0.00
  -22   10   11     -4.79      0.00
  -20   10   11      6.66      0.00
  -18   10   11     -5.52      0.00
  -16   10   11      1.79      0.00
  -14   10   11      1.30      0.00
  -12   10   11     -2.28      0.00
  -10   10   11      1.29      0.00
   -8   10   11     -0.08      0.00
   -6   10   11     -0.23      0.00
   -4   10   11      0.55      0.00
   -2   10   11     -0.23      0.00
    0   10   11      0.43      0.00
    2   10   11     -2.05      0.00
    4   10   11     -0.86      0.00
    6   10   11      6.99      0.00
    8   10   11     -6.50      0.00
   10   10   11      1.82      0.00
   12   10   11      0.56      0.00
   14   10   11     -2.21      0.00
   16   10   11      2.34      0.00
   18   10   11     -2.02      0.00
   20   10   11      4.60      0.00
   22   10   11     -4.58      0.00
   24   10   11      1.02      0.00
  -25   11   11     -3.79      0.00
  -23   11   11      3.23      0.00
  -21   11   11     -2.23      0.00
  -19   11   11     -1.61      0.00
  -17   11   11      5.62      0.00
  -15   11   11     -4.33      0.00
  -13   11   11      1.80      0.00
  -11   11   11      0.32      0.00
   -9   11   11     -1.75      0.00
   -7   11   11      0.61      0.00
   -5   11   11     -0.94      0.00
   -3   11   11      2.03      0.00
   -1   11   11      0.07      0.00
    1   11   11     -2.72      0.00
    3   11   11      5.21      0.00
    5   11   11     -5.77      0.00
    7   11   11      1.57      0.00
    9   11   11      2.20      0.00
   11   11   11     -3.63      0.00
   13   11   11      4.27      0.00
   15   11   11     -1.97      0.00
   17   11   11      0.58      0.00
   19   11   11     -2.31      0.00
   21   11   11      1.57      0.00
   23   11   11     -0.52      0.00
  -26   12   11      1.61      0.00
  -24   12   11     -0.41      0.00
  -22   12   11     -4.18      0.00
  -20   12   11      7.61      0.00
  -18   12   11     -5.61      0.00
  -16   12   11      0.14      0.00
  -14   12   11      3.29      0.00
  -12   12   11     -1.83      0.00
  -10   12   11      1.35      0.00
   -8   12   11     -3.02      0.00
   -6   12   11      1.71      0.00
   -4   12   11     -0.53      0.00
   -2   12   11      0.27      0.00
    0   12   11      1.87      0.00
    2   12   11     -1.55      0.00
    4   12   11     -1.20      0.00
    6   12   11      3.90      0.00
    8   12   11     -6.80      0.00
   10   12   11      4.57      0.00
   12   12   11      0.84      0.00
   14   12   11     -2.46      0.00
   16   12   11      3.99      0.00
   18   12   11     -5.19      0.00
   20   12   11      3.26      0.00
   22   12   11     -2.88      0.00
  -25   13   11     -1.44      0.00
  -23   13   11      3.25      0.00
  -21   13   11     -2.54      0.00
  -19   13   11     -2.33      0.00
  -17   13   11      5.90      0.00
  -15   13   11     -4.77      0.00
  -13   13   11      1.65      0.00
  -11   13   11     -0.93      0.00
   -9   13   11      2.33      0.00
   -7   13   11     -1.89      0.00
   -5   13   11     -0.02      0.00
   -3   13   11      0.23      0.00
   -1   13   11      0.47      0.00
    1   13   11     -1.08      0.00
    3   13   11      3.83      0.00
    5   13   11     -7.22      0.00
    7   13   11      5.76      0.00
    9   13   11     -0.53      0.00
   11   13   11     -2.21      0.00
   13   13   11      1.47      0.00
   15   13   11     -0.06      0.00
   17   13   11     -0.93      0.00
   19   13   11      1.80      0.00
   21   13   11     -2.62      0.00
   23   13   11      1.19      0.00
  -24   14   11      1.96      0.00
  -22   14   11     -3.23      0.00
  -20   14   11      5.68      0.00
  -18   14   11     -3.75      0.00
  -16   14   11     -1.33      0.00
  -14   14   11      2.36      0.00
  -12   14   11     -1.55      0.00
  -10   14   11      0.06      0.00
   -8   14   11      0.67      0.00
   -6   14   11      2.09      0.00
   -4   14   11     -1.85      0.00
   -2   14   11     -1.13      0.00
    0   14   11      1.43      0.00
    2   14   11     -2.90      0.00
    4   14   11      3.02      0.00
    6   14   11      1.33      0.00
    8   14   11     -3.69      0.00
   10   14   11      4.01      0.00
   12   14   11     -1.80      0.00
   14   14   11     -4.50      0.00
   16   14   11      6.27      0.00
   18   14   11     -3.70      0.00
   20   14   11      2.88      0.00
   22   14   11     -0.11      0.00
  -23   15   11      4.91      0.00
  -21   15   11     -2.84      0.00
  -19   15   11     -1.89      0.00
  -17   15   11      3.19      0.00
  -15   15   11     -0.52      0.00
  -13   15   11     -1.47      0.00
  -11   15   11     -0.38      0.00
   -9   15   11      3.31      0.00
   -7   15   11     -4.04      0.00
   -5   15   11      2.88      0.00
   -3   15   11     -0.45      0.00
   -1   15   11     -0.46      0.00
    1   15   11     -1.17      0.00
    3   15   11      2.28      0.00
    5   15   11     -5.17      0.00
    7   15   11      9.42      0.00
    9   15   11     -7.50      0.00
   11   15   11      1.97      0.00
   13   15   11      0.36      0.00
   15   15   11      0.62      0.00
   17   15   11     -4.92      0.00
   19   15   11      7.12      0.00
   21   15   11     -2.86      0.00
  -22   16   11     -2.56      0.00
  -20   16   11      3.43      0.00
  -18   16   11     -0.79      0.00
  -16   16   11     -1.80      0.00
  -14   16   11      2.34      0.00
  -12   16   11      0.44      0.00
  -10   16   11     -3.39      0.00
   -8   16   11      2.00      0.00
   -6   16   11      1.40      0.00
   -4   16   11     -2.42      0.00
   -2   16   11      0.83      0.00
    0   16   11      0.42      0.00
    2   16   11     -1.70      0.00
    4   16   11      5.02      0.00
    6   16   11     -4.75      0.00
    8   16   11     -0.81      0.00
   10   16   11      3.33      0.00
   12   16   11     -2.10      0.00
   14   16   11      0.04      0.00
   16   16   11      3.54      0.00
   18   16   11     -2.97      0.00
   20   16   11     -2.21      0.00
  -21   17   11     -2.51      0.00
  -19   17   11      0.57      0.00
  -17   17   11     -0.18      0.00
  -15   17   11      1.58      0.00
  -13   17   11     -2.39      0.00
  -11   17   11      2.81      0.00
   -9   17   11      0.92      0.00
   -7   17   11     -5.90      0.00
   -5   17   11      3.71      0.00
   -3   17   11     -0.70      0.00
   -1   17   11      0.58      0.00
    1   17   11      1.63      0.00
    3   17   11     -0.34      0.00
    5   17   11     -4.61      0.00
    7   17   11      6.77      0.00
    9   17   11     -9.40      0.00
   11   17   11      9.03      0.00
   13   17   11     -2.33      0.00
   15   17   11     -0.15      0.00
   17   17   11     -2.53      0.00
   19   17   11      3.24      0.00
  -20   18   11      0.92      0.00
  -18   18   11      1.07      0.00
  -16   18   11     -1.68      0.00
  -14   18   11      1.62      0.00
  -12   18   11     -0.44      0.00
  -10   18   11     -2.60      0.00
   -8   18   11      2.61      0.00
   -6   18   11      1.62      0.00
   -4   18   11     -4.04      0.00
   -2   18   11      3.12      0.00
    0   18   11     -2.22      0.00
    2   18   11      1.18      0.00
    4   18   11      1.77      0.00
    6   18   11     -5.16      0.00
    8   18   11      5.07      0.00
   10   18   11      0.89      0.00
   12   18   11     -7.79      0.00
   14   18   11      7.18      0.00
   16   18   11     -2.03      0.00
   18   18   11      2.52      0.00
  -19   19   11      0.36      0.00
  -17   19   11     -1.50      0.00
  -15   19   11      0.71      0.00
  -13   19   11     -2.44      0.00
  -11   19   11      4.19      0.00
   -9   19   11     -0.68      0.00
   -7   19   11     -3.48      0.00
   -5   19   11      2.85      0.00
   -3   19   11      0.07      0.00
   -1   19   11      0.12      0.00
    1   19   11     -0.84      0.00
    3   19   11     -2.20      0.00
    5   19   11      2.13      0.00
    7   19   11      4.21      0.00
    9   19   11     -9.99      0.00
   11   19   11     11.44      0.00
   13   19   11     -5.41      0.00
   15   19   11     -3.34      0.00
   17   19   11      3.16      0.00
  -18   20   11      0.59      0.00
  -16   20   11      0.42      0.00
  -14   20   11      1.01      0.00
  -12   20   11     -2.03      0.00
  -10   20   11     -1.48      0.00
   -8   20   11      2.69      0.00
   -6   20   11      1.84      0.00
   -4   20   11     -3.66      0.00
   -2   20   11      3.08      0.00
    0   20   11     -4.26      0.00
    2   20   11      3.16      0.00
    4   20   11     -0.74      0.00
    6   20   11     -2.01      0.00
    8   20   11      6.05      0.00
   10   20   11     -1.67      0.00
   12   20   11    -10.55      0.00
   14   20   11     14.20      0.00
   16   20   11     -8.75      0.00
  -15   21   11      0.91      0.00
  -13   21   11     -1.54      0.00
  -11   21   11      4.08      0.00
   -9   21   11     -1.95      0.00
   -7   21   11     -1.58      0.00
   -5   21   11      0.81      0.00
   -3   21   11     -0.25      0.00
   -1   21   11      0.79      0.00
    1   21   11      0.33      0.00
    3   21   11     -1.32      0.00
    5   21   11      2.62      0.00
    7   21   11     -1.00      0.00
    9   21   11     -8.16      0.00
   11   21   11     13.00      0.00
   13   21   11     -4.38      0.00
  -14   22   11     -1.17      0.00
  -12   22   11      0.52      0.00
  -10   22   11     -3.41      0.00
   -8   22   11      3.50      0.00
   -6   22   11     -0.02      0.00
   -4   22   11     -1.82      0.00
   -2   22   11      0.95      0.00
    0   22   11     -1.75      0.00
    2   22   11      4.46      0.00
    4   22   11     -2.72      0.00
    6   22   11     -3.06      0.00
    8   22   11      5.24      0.00
   10   22   11      0.34      0.00
   12   22   11    -10.17      0.00
  -11   23   11      2.98      0.00
   -9   23   11     -1.60      0.00
   -7   23   11     -1.34      0.00
   -5   23   11      1.79      0.00
   -3   23   11     -0.96      0.00
   -1   23   11      0.85      0.00
    1   23   11     -0.12      0.00
    3   23   11     -1.36      0.00
    5   23   11      2.81      0.00
    7   23   11     -1.57      0.00
    9   23   11     -4.95      0.00
   -8   24   11      4.59      0.00
   -6   24   11     -2.66      0.00
   -4   24   11      1.85      0.00
   -2   24   11      0.38      0.00
    0   24   11     -2.38      0.00
    2   24   11      1.42      0.00
    4   24   11     -1.14      0.00
    6   24   11     -0.29      0.00
   -3   25   11     -2.25      0.00
   -1   25   11      2.58      0.00
    1   25   11     -0.78      0.00
  -28    0   12      1.36      0.00
  -26    0   12      1.34      0.00
  -24    0   12     -2.16      0.00
  -22    0   12     -0.25      0.00
  -20    0   12      1.75      0.00
  -18    0   12      0.78      0.00
  -16    0   12     -3.23      0.00
  -14    0   12     -0.02      0.00
  -12    0   12      2.87      0.00
  -10    0   12     -1.57      0.00
   -8    0   12      0.36      0.00
   -6    0   12      2.00      0.00
   -4    0   12     -3.38      0.00
   -2    0   12      1.19      0.00
    0    0   12     -0.96      0.00
    2    0   12      0.44      0.00
    4    0   12      1.62      0.00
    6    0   12      0.62      0.00
    8    0   12     -0.29      0.00
   10    0   12     -4.53      0.00
   12    0   12      2.84      0.00
   14    0   12      0.58      0.00
   16    0   12      1.25      0.00
   18    0   12     -1.69      0.00
   20    0   12      1.43      0.00
   22    0   12     -3.51      0.00
   24    0   12      2.99      0.00
   26    0   12     -0.36      0.00
  -27    1   12      0.54      0.00
  -25    1   12     -2.18      0.00
  -23    1   12      5.89      0.00
  -21    1   12     -5.16      0.00
  -19    1   12      3.99      0.00
  -17    1   12     -6.12      0.00
  -15    1   12      6.52      0.00
  -13    1   12     -4.94      0.00
  -11    1   12      2.64      0.00
   -9    1   12      1.12      0.00
   -7    1   12     -1.66      0.00
   -5    1   12     -0.81      0.00
   -3    1   12      0.78      0.00
   -1    1   12     -1.25      0.00
    1    1   12      3.34      0.00
    3    1   12     -1.53      0.00
    5    1   12     -0.77      0.00
    7    1   12     -1.94      0.00
    9    1   12      3.83      0.00
   11    1   12     -0.73      0.00
   13    1   12     -1.18      0.00
   15    1   12     -1.02      0.00
   17    1   12      2.63      0.00
   19    1   12     -2.46      0.00
   21    1   12      1.76      0.00
   23    1   12      1.08      0.00
   25    1   12     -3.12      0.00
  -28    2   12      0.39      0.00
  -26    2   12     -0.25      0.00
  -24    2   12     -1.25      0.00
  -22    2   12     -0.78      0.00
  -20    2   12      0.01      0.00
  -18    2   12      2.02      0.00
  -16    2   12      0.63      0.00
  -14    2   12     -2.26      0.00
  -12    2   12      2.50      0.00
  -10    2   12     -2.91      0.00
   -8    2   12     -1.06      0.00
   -6    2   12      3.31      0.00
   -4    2   12     -0.94      0.00
   -2    2   12      2.19      0.00
    0    2   12     -2.85      0.00
    2    2   12     -1.21      0.00
    4    2   12      0.93      0.00
    6    2   12      2.57      0.00
    8    2   12     -0.95      0.00
   10    2   12     -2.38      0.00
   12    2   12      1.48      0.00
   14    2   12      0.99      0.00
   16    2   12     -0.66      0.00
   18    2   12     -1.39      0.00
   20    2   12      3.38      0.00
   22    2   12     -4.95      0.00
   24    2   12      2.81      0.00
   26    2   12      1.64      0.00
  -27    3   12      1.56      0.00
  -25    3   12     -1.51      0.00
  -23    3   12      2.49      0.00
  -21    3   12     -3.45      0.00
  -19    3   12      3.65      0.00
  -17    3   12     -4.51      0.00
  -15    3   12      5.97      0.00
  -13    3   12     -3.23      0.00
  -11    3   12     -1.28      0.00
   -9    3   12      2.17      0.00
   -7    3   12     -1.35      0.00
   -5    3   12     -0.58      0.00
   -3    3   12      1.78      0.00
   -1    3   12      0.04      0.00
    1    3   12     -0.53      0.00
    3    3   12      1.06      0.00
    5    3   12     -3.02      0.00
    7    3   12      0.27      0.00
    9    3   12      1.58      0.00
   11    3   12      2.04      0.00
   13    3   12     -0.78      0.00
   15    3   12     -3.55      0.00
   17    3   12      2.66      0.00
   19    3   12     -1.52      0.00
   21    3   12      0.72      0.00
   23    3   12      3.33      0.00
   25    3   12     -5.55      0.00
  -28    4   12     -0.35      0.00
  -26    4   12     -0.80      0.00
  -24    4   12      0.55      0.00
  -22    4   12      0.90      0.00
  -20    4   12     -1.85      0.00
  -18    4   12      0.82      0.00
  -16    4   12      1.41      0.00
  -14    4   12     -3.71      0.00
  -12    4   12      4.40      0.00
  -10    4   12     -2.14      0.00
   -8    4   12     -1.87      0.00
   -6    4   12      4.15      0.00
   -4    4   12     -2.58      0.00
   -2    4   12      0.44      0.00
    0    4   12     -0.44      0.00
    2    4   12      0.31      0.00
    4    4   12     -0.67      0.00
    6    4   12      2.63      0.00
    8    4   12     -2.03      0.00
   10    4   12      0.28      0.00
   12    4   12     -2.60      0.00
   14    4   12      4.32      0.00
   16    4   12     -0.95      0.00
   18    4   12     -2.31      0.00
   20    4   12      3.29      0.00
   22    4   12     -4.49      0.00
   24    4   12      3.33      0.00
   26    4   12      1.38      0.00
  -27    5   12      3.20      0.00
  -25    5   12      0.65      0.00
  -23    5   12     -1.10      0.00
  -21    5   12      0.65      0.00
  -19    5   12      1.61      0.00
  -17    5   12     -4.11      0.00
  -15    5   12      2.32      0.00
  -13    5   12     -1.06      0.00
  -11    5   12     -0.32      0.00
   -9    5   12      3.43      0.00
   -7    5   12     -0.19      0.00
   -5    5   12     -3.93      0.00
   -3    5   12      1.25      0.00
   -1    5   12     -0.22      0.00
    1    5   12      0.18      0.00
    3    5   12      4.36      0.00
    5    5   12     -5.81      0.00
    7    5   12      2.54      0.00
    9    5   12     -1.66      0.00
   11    5   12      3.33      0.00
   13    5   12     -2.60      0.00
   15    5   12     -1.44      0.00
   17    5   12      3.33      0.00
   19    5   12     -1.31      0.00
   21    5   12     -0.87      0.00
   23    5   12      3.77      0.00
   25    5   12     -5.92      0.00
  -26    6   12     -1.28      0.00
  -24    6   12     -0.46      0.00
  -22    6   12      3.02      0.00
  -20    6   12     -2.74      0.00
  -18    6   12      1.40      0.00
  -16    6   12     -0.59      0.00
  -14    6   12     -0.98      0.00
  -12    6   12      2.01      0.00
  -10    6   12     -0.64      0.00
   -8    6   12     -2.48      0.00
   -6    6   12      4.43      0.00
   -4    6   12     -2.37      0.00
   -2    6   12     -0.42      0.00
    0    6   12      1.11      0.00
    2    6   12     -2.38      0.00
    4    6   12      1.13      0.00
    6    6   12      2.94      0.00
    8    6   12     -1.45      0.00
   10    6   12     -0.76      0.00
   12    6   12     -3.88      0.00
   14    6   12      5.93      0.00
   16    6   12     -2.20      0.00
   18    6   12     -0.29      0.00
   20    6   12      2.32      0.00
   22    6   12     -3.22      0.00
   24    6   12      0.63      0.00
  -27    7   12      0.31      0.00
  -25    7   12      2.64      0.00
  -23    7   12     -4.03      0.00
  -21    7   12      1.06      0.00
  -19    7   12      0.53      0.00
  -17    7   12      0.93      0.00
  -15    7   12      0.12      0.00
  -13    7   12     -1.80      0.00
  -11    7   12      1.21      0.00
   -9    7   12     -0.13      0.00
   -7    7   12      0.24      0.00
   -5    7   12     -3.42      0.00
   -3    7   12      5.65      0.00
   -1    7   12     -2.40      0.00
    1    7   12     -1.42      0.00
    3    7   12      3.49      0.00
    5    7   12     -4.58      0.00
    7    7   12      3.08      0.00
    9    7   12     -3.55      0.00
   11    7   12      6.88      0.00
   13    7   12     -5.27      0.00
   15    7   12      0.40      0.00
   17    7   12      0.90      0.00
   19    7   12      0.20      0.00
   21    7   12     -0.98      0.00
   23    7   12      0.93      0.00
   25    7   12     -0.42      0.00
  -26    8   12     -1.87      0.00
  -24    8   12     -2.99      0.00
  -22    8   12      4.69      0.00
  -20    8   12     -2.69      0.00
  -18    8   12      0.99      0.00
  -16    8   12     -1.64      0.00
  -14    8   12      4.07      0.00
  -12    8   12     -2.17      0.00
  -10    8   12     -0.57      0.00
   -8    8   12     -2.57      0.00
   -6    8   12      3.69      0.00
   -4    8   12     -0.41      0.00
   -2    8   12     -1.11      0.00
    0    8   12      2.77      0.00
    2    8   12     -3.86      0.00
    4    8   12      1.62      0.00
    6    8   12      0.06      0.00
    8    8   12      0.41      0.00
   10    8   12     -1.30      0.00
   12    8   12     -0.86      0.00
   14    8   12      5.71      0.00
   16    8   12     -4.65      0.00
   18    8   12     -0.38      0.00
   20    8   12      0.06      0.00
   22    8   12      1.40      0.00
   24    8   12     -0.60      0.00
  -25    9   12      6.00      0.00
  -23    9   12     -3.65      0.00
  -21    9   12     -1.04      0.00
  -19    9   12      0.96      0.00
  -17    9   12      1.38      0.00
  -15    9   12     -1.47      0.00
  -13    9   12     -1.37      0.00
  -11    9   12      2.93      0.00
   -9    9   12     -0.77      0.00
   -7    9   12      0.36      0.00
   -5    9   12     -3.09      0.00
   -3    9   12      2.89      0.00
   -1    9   12     -0.80      0.00
    1    9   12      0.21      0.00
    3    9   12      2.20      0.00
    5    9   12     -4.39      0.00
    7    9   12      2.32      0.00
    9    9   12     -2.70      0.00
   11    9   12      7.39      0.00
   13    9   12     -7.47      0.00
   15    9   12      2.93      0.00
   17    9   12     -0.61      0.00
   19    9   12      1.18      0.00
   21    9   12     -2.48      0.00
   23    9   12      1.24      0.00
  -26   10   12     -2.26      0.00
  -24   10   12     -2.21      0.00
  -22   10   12      5.49      0.00
  -20   10   12     -2.06      0.00
  -18   10   12     -1.16      0.00
  -16   10   12     -1.01      0.00
  -14   10   12      2.92      0.00
  -12   10   12     -2.46      0.00
  -10   10   12      0.14      0.00
   -8   10   12      1.24      0.00
   -6   10   12      1.21      0.00
   -4   10   12     -0.31      0.00
   -2   10   12     -3.82      0.00
    0   10   12      2.81      0.00
    2   10   12     -1.09      0.00
    4   10   12      1.11      0.00
    6   10   12      0.30      0.00
    8   10   12      1.16      0.00
   10   10   12     -2.08      0.00
   12   10   12     -2.06      0.00
   14   10   12      3.55      0.00
   16   10   12     -1.48      0.00
   18   10   12      0.51      0.00
   20   10   12     -0.83      0.00
   22   10   12      3.77      0.00
   24   10   12     -5.42      0.00
  -25   11   12      5.30      0.00
  -23   11   12     -1.88      0.00
  -21   11   12     -2.92      0.00
  -19   11   12      3.48      0.00
  -17   11   12     -1.12      0.00
  -15   11   12     -0.22      0.00
  -13   11   12     -1.82      0.00
  -11   11   12      1.92      0.00
   -9   11   12      1.33      0.00
   -7   11   12     -1.66      0.00
   -5   11   12      0.26      0.00
   -3   11   12     -0.93      0.00
   -1   11   12      2.44      0.00
    1   11   12     -3.38      0.00
    3   11   12      2.24      0.00
    5   11   12     -1.20      0.00
    7   11   12      2.74      0.00
    9   11   12     -3.58      0.00
   11   11   12      4.35      0.00
   13   11   12     -4.98      0.00
   15   11   12      1.93      0.00
   17   11   12     -2.03      0.00
   19   11   12      6.84      0.00
   21   11   12     -5.76      0.00
   23   11   12      1.23      0.00
  -24   12   12     -1.46      0.00
  -22   12   12      3.99      0.00
  -20   12   12     -1.86      0.00
  -18   12   12     -0.90      0.00
  -16   12   12      2.03      0.00
  -14   12   12     -0.44      0.00
  -12   12   12      0.90      0.00
  -10   12   12     -3.43      0.00
   -8   12   12      2.09      0.00
   -6   12   12     -0.49      0.00
   -4   12   12      2.52      0.00
   -2   12   12     -2.69      0.00
    0   12   12     -0.34      0.00
    2   12   12      1.59      0.00
    4   12   12     -0.54      0.00
    6   12   12      0.55      0.00
    8   12   12     -1.04      0.00
   10   12   12      0.47      0.00
   12   12   12     -1.21      0.00
   14   12   12      1.85      0.00
   16   12   12      0.78      0.00
   18   12   12     -1.28      0.00
   20   12   12     -3.32      0.00
   22   12   12      7.07      0.00
  -23   13   12     -1.95      0.00
  -21   13   12     -2.06      0.00
  -19   13   12      5.06      0.00
  -17   13   12     -4.47      0.00
  -15   13   12      2.47      0.00
  -13   13   12     -0.85      0.00
  -11   13   12      0.96      0.00
   -9   13   12      1.48      0.00
   -7   13   12     -5.15      0.00
   -5   13   12      2.98      0.00
   -3   13   12     -2.38      0.00
   -1   13   12      5.85      0.00
    1   13   12     -3.46      0.00
    3   13   12      0.52      0.00
    5   13   12     -1.47      0.00
    7   13   12      0.76      0.00
    9   13   12     -2.58      0.00
   11   13   12      4.22      0.00
   13   13   12      0.01      0.00
   15   13   12      0.38      0.00
   17   13   12     -5.84      0.00
   19   13   12      7.37      0.00
   21   13   12     -7.11      0.00
  -22   14   12      2.37      0.00
  -20   14   12     -2.60      0.00
  -18   14   12      0.33      0.00
  -16   14   12      2.31      0.00
  -14   14   12     -2.66      0.00
  -12   14   12      3.40      0.00
  -10   14   12     -4.57      0.00
   -8   14   12      2.72      0.00
   -6   14   12     -0.28      0.00
   -4   14   12      0.28      0.00
   -2   14   12     -0.18      0.00
    0   14   12     -2.13      0.00
    2   14   12      4.47      0.00
    4   14   12     -3.22      0.00
    6   14   12     -0.54      0.00
    8   14   12      1.47      0.00
   10   14   12      1.30      0.00
   12   14   12     -3.53      0.00
   14   14   12      1.70      0.00
   16   14   12      1.54      0.00
   18   14   12      1.53      0.00
   20   14   12     -8.59      0.00
  -21   15   12     -0.34      0.00
  -19   15   12      3.54      0.00
  -17   15   12     -4.57      0.00
  -15   15   12      1.86      0.00
  -13   15   12     -1.66      0.00
  -11   15   12      0.95      0.00
   -9   15   12      3.05      0.00
   -7   15   12     -3.85      0.00
   -5   15   12      2.28      0.00
   -3   15   12     -2.45      0.00
   -1   15   12      3.07      0.00
    1   15   12     -2.06      0.00
    3   15   12     -1.64      0.00
    5   15   12      3.39      0.00
    7   15   12     -0.09      0.00
    9   15   12     -2.64      0.00
   11   15   12      2.64      0.00
   13   15   12     -1.00      0.00
   15   15   12     -0.18      0.00
   17   15   12     -3.75      0.00
   19   15   12      6.51      0.00
  -20   16   12     -4.02      0.00
  -18   16   12      0.96      0.00
  -16   16   12      2.47      0.00
  -14   16   12     -2.61      0.00
  -12   16   12      1.75      0.00
  -10   16   12     -3.48      0.00
   -8   16   12      2.69      0.00
   -6   16   12      1.88      0.00
   -4   16   12     -1.93      0.00
   -2   16   12      1.23      0.00
    0   16   12     -4.70      0.00
    2   16   12      4.53      0.00
    4   16   12     -2.17      0.00
    6   16   12      0.87      0.00
    8   16   12      2.65      0.00
   10   16   12     -0.95      0.00
   12   16   12     -5.04      0.00
   14   16   12      4.01      0.00
   16   16   12     -3.48      0.00
   18   16   12      8.48      0.00
  -19   17   12      1.43      0.00
  -17   17   12     -2.68      0.00
  -15   17   12      1.35      0.00
  -13   17   12     -0.82      0.00
  -11   17   12      0.76      0.00
   -9   17   12      1.39      0.00
   -7   17   12     -2.34      0.00
   -5   17   12      0.34      0.00
   -3   17   12      0.27      0.00
   -1   17   12      0.45      0.00
    1   17   12      0.03      0.00
    3   17   12     -1.24      0.00
    5   17   12      3.59      0.00
    7   17   12     -3.66      0.00
    9   17   12     -1.32      0.00
   11   17   12      3.07      0.00
   13   17   12      0.90      0.00
   15   17   12     -0.98      0.00
   17   17   12     -1.75      0.00
  -18   18   12      1.75      0.00
  -16   18   12      1.22      0.00
  -14   18   12     -1.17      0.00
  -12   18   12      2.61      0.00
  -10   18   12     -3.69      0.00
   -8   18   12      0.93      0.00
   -6   18   12      0.99      0.00
   -4   18   12     -1.46      0.00
   -2   18   12      0.94      0.00
    0   18   12     -0.22      0.00
    2   18   12      3.34      0.00
    4   18   12     -4.92      0.00
    6   18   12      1.54      0.00
    8   18   12     -0.83      0.00
   10   18   12      2.99      0.00
   12   18   12     -4.37      0.00
   14   18   12      5.31      0.00
   16   18   12     -5.74      0.00
  -17   19   12     -1.84      0.00
  -15   19   12      1.68      0.00
  -13   19   12     -1.61      0.00
  -11   19   12      1.17      0.00
   -9   19   12      0.52      0.00
   -7   19   12     -1.21      0.00
   -5   19   12     -0.69      0.00
   -3   19   12      1.44      0.00
   -1   19   12      0.02      0.00
    1   19   12     -1.12      0.00
    3   19   12      2.07      0.00
    5   19   12     -0.81      0.00
    7   19   12     -2.78      0.00
    9   19   12      3.48      0.00
   11   19   12     -3.27      0.00
   13   19   12      4.24      0.00
   15   19   12     -2.28      0.00
  -16   20   12     -1.15      0.00
  -14   20   12     -1.61      0.00
  -12   20   12      3.54      0.00
  -10   20   12     -3.89      0.00
   -8   20   12      2.23      0.00
   -6   20   12     -0.58      0.00
   -4   20   12      1.50      0.00
   -2   20   12     -2.16      0.00
    0   20   12      1.77      0.00
    2   20   12     -0.84      0.00
    4   20   12     -4.10      0.00
    6   20   12      8.53      0.00
    8   20   12     -7.39      0.00
   10   20   12      6.19      0.00
   12   20   12     -4.30      0.00
  -13   21   12     -3.06      0.00
  -11   21   12      0.70      0.00
   -9   21   12      1.56      0.00
   -7   21   12     -0.65      0.00
   -5   21   12     -0.27      0.00
   -3   21   12      0.85      0.00
   -1   21   12      0.03      0.00
    1   21   12     -4.17      0.00
    3   21   12      5.27      0.00
    5   21   12     -2.11      0.00
    7   21   12     -0.88      0.00
    9   21   12      5.99      0.00
   11   21   12    -10.69      0.00
  -12   22   12      2.91      0.00
  -10   22   12     -2.28      0.00
   -8   22   12      1.45      0.00
   -6   22   12     -1.72      0.00
   -4   22   12      1.69      0.00
   -2   22   12     -2.75      0.00
    0   22   12      3.80      0.00
    2   22   12     -1.27      0.00
    4   22   12     -3.75      0.00
    6   22   12      8.35      0.00
    8   22   12    -10.44      0.00
   -9   23   12      1.48      0.00
   -7   23   12     -0.39      0.00
   -5   23   12     -0.19      0.00
   -3   23   12     -0.41      0.00
   -1   23   12      0.81      0.00
    1   23   12     -1.50      0.00
    3   23   12      3.94      0.00
    5   23   12     -3.37      0.00
   -2   24   12     -2.09      0.00
    0   24   12      2.28      0.00
  -27    1   13      0.97      0.00
  -25    1   13     -1.14      0.00
  -23    1   13      1.27      0.00
  -21    1   13     -0.29      0.00
  -19    1   13      0.70      0.00
  -17    1   13     -3.01      0.00
  -15    1   13      1.89      0.00
  -13    1   13     -0.20      0.00
  -11    1   13      0.24      0.00
   -9    1   13      0.58      0.00
   -7    1   13      0.87      0.00
   -5    1   13     -2.34      0.00
   -3    1   13      0.13      0.00
   -1    1   13      0.45      0.00
    1    1   13     -0.85      0.00
    3    1   13      3.37      0.00
    5    1   13     -2.90      0.00
    7    1   13      1.70      0.00
    9    1   13     -1.50      0.00
   11    1   13     -0.83      0.00
   13    1   13      1.20      0.00
   15    1   13      0.70      0.00
   17    1   13     -0.11      0.00
   19    1   13     -0.66      0.00
   21    1   13      0.19      0.00
   23    1   13     -0.07      0.00
   25    1   13     -0.11      0.00
  -26    2   13      4.83      0.00
  -24    2   13     -3.45      0.00
  -22    2   13      3.53      0.00
  -20    2   13     -2.44      0.00
  -18    2   13      0.85      0.00
  -16    2   13      0.01      0.00
  -14    2   13     -3.30      0.00
  -12    2   13      4.87      0.00
  -10    2   13     -1.36      0.00
   -8    2   13     -0.35      0.00
   -6    2   13     -0.42      0.00
   -4    2   13      0.47      0.00
   -2    2   13     -1.91      0.00
    0    2   13      2.92      0.00
    2    2   13     -1.88      0.00
    4    2   13      1.03      0.00
    6    2   13      0.36      0.00
    8    2   13     -1.64      0.00
   10    2   13      1.85      0.00
   12    2   13     -2.30      0.00
   14    2   13      1.21      0.00
   16    2   13      0.56      0.00
   18    2   13      0.09      0.00
   20    2   13     -0.88      0.00
   22    2   13      0.53      0.00
   24    2   13      0.34      0.00
  -27    3   13      0.30      0.00
  -25    3   13     -1.92      0.00
  -23    3   13      1.18      0.00
  -21    3   13     -2.06      0.00
  -19    3   13      3.16      0.00
  -17    3   13     -3.28      0.00
  -15    3   13      4.40      0.00
  -13    3   13     -2.50      0.00
  -11    3   13     -1.57      0.00
   -9    3   13      1.06      0.00
   -7    3   13      1.03      0.00
   -5    3   13     -1.46      0.00
   -3    3   13      2.38      0.00
   -1    3   13     -1.36      0.00
    1    3   13     -1.42      0.00
    3    3   13      2.37      0.00
    5    3   13     -3.23      0.00
    7    3   13      4.25      0.00
    9    3   13     -2.94      0.00
   11    3   13      0.59      0.00
   13    3   13      0.83      0.00
   15    3   13     -0.99      0.00
   17    3   13      0.05      0.00
   19    3   13      0.82      0.00
   21    3   13     -0.10      0.00
   23    3   13     -2.21      0.00
  -26    4   13      5.80      0.00
  -24    4   13     -5.84      0.00
  -22    4   13      4.54      0.00
  -20    4   13     -3.69      0.00
  -18    4   13      2.98      0.00
  -16    4   13      1.05      0.00
  -14    4   13     -4.25      0.00
  -12    4   13      4.51      0.00
  -10    4   13     -2.77      0.00
   -8    4   13     -0.92      0.00
   -6    4   13      1.31      0.00
   -4    4   13      0.55      0.00
   -2    4   13      0.20      0.00
    0    4   13      1.07      0.00
    2    4   13     -3.67      0.00
    4    4   13      2.92      0.00
    6    4   13     -1.56      0.00
    8    4   13     -1.26      0.00
   10    4   13      4.16      0.00
   12    4   13     -2.08      0.00
   14    4   13      0.49      0.00
   16    4   13     -1.61      0.00
   18    4   13      0.93      0.00
   20    4   13     -1.36      0.00
   22    4   13      2.55      0.00
   24    4   13     -0.54      0.00
  -25    5   13      1.47      0.00
  -23    5   13      0.11      0.00
  -21    5   13     -1.76      0.00
  -19    5   13      1.79      0.00
  -17    5   13     -2.86      0.00
  -15    5   13      4.01      0.00
  -13    5   13     -1.27      0.00
  -11    5   13     -2.35      0.00
   -9    5   13      2.35      0.00
   -7    5   13     -1.02      0.00
   -5    5   13      0.54      0.00
   -3    5   13      0.35      0.00
   -1    5   13     -1.83      0.00
    1    5   13      2.26      0.00
    3    5   13      0.12      0.00
    5    5   13     -3.64      0.00
    7    5   13      4.28      0.00
    9    5   13     -2.74      0.00
   11    5   13      1.49      0.00
   13    5   13     -0.19      0.00
   15    5   13     -0.05      0.00
   17    5   13     -1.20      0.00
   19    5   13      1.59      0.00
   21    5   13     -0.57      0.00
   23    5   13     -1.75      0.00
  -26    6   13      3.48      0.00
  -24    6   13     -4.37      0.00
  -22    6   13      4.57      0.00
  -20    6   13     -2.51      0.00
  -18    6   13      0.70      0.00
  -16    6   13     -0.66      0.00
  -14    6   13     -2.04      0.00
  -12    6   13      3.22      0.00
  -10    6   13     -0.38      0.00
   -8    6   13     -0.03      0.00
   -6    6   13      0.63      0.00
   -4    6   13     -3.04      0.00
   -2    6   13      1.52      0.00
    0    6   13      1.08      0.00
    2    6   13     -2.33      0.00
    4    6   13      3.90      0.00
    6    6   13     -2.51      0.00
    8    6   13     -0.60      0.00
   10    6   13      1.64      0.00
   12    6   13     -2.00      0.00
   14    6   13      1.39      0.00
   16    6   13      0.08      0.00
   18    6   13      0.27      0.00
   20    6   13     -2.72      0.00
   22    6   13      5.27      0.00
   24    6   13     -3.89      0.00
  -25    7   13      3.94      0.00
  -23    7   13     -1.01      0.00
  -21    7   13     -0.11      0.00
  -19    7   13     -0.07      0.00
  -17    7   13     -1.10      0.00
  -15    7   13      1.12      0.00
  -13    7   13     -0.06      0.00
  -11    7   13     -1.39      0.00
   -9    7   13      2.73      0.00
   -7    7   13     -2.34      0.00
   -5    7   13      2.45      0.00
   -3    7   13     -1.95      0.00
   -1    7   13     -1.59      0.00
    1    7   13      2.98      0.00
    3    7   13     -1.36      0.00
    5    7   13     -0.54      0.00
    7    7   13      3.28      0.00
    9    7   13     -2.65      0.00
   11    7   13     -0.38      0.00
   13    7   13     -0.62      0.00
   15    7   13      1.41      0.00
   17    7   13     -1.26      0.00
   19    7   13      4.44      0.00
   21    7   13     -3.91      0.00
   23    7   13     -1.26      0.00
  -24    8   13     -1.99      0.00
  -22    8   13      0.73      0.00
  -20    8   13      0.75      0.00
  -18    8   13      0.70      0.00
  -16    8   13     -0.41      0.00
  -14    8   13     -0.95      0.00
  -12    8   13      0.58      0.00
  -10    8   13     -0.07      0.00
   -8    8   13      0.29      0.00
   -6    8   13     -0.75      0.00
   -4    8   13      0.03      0.00
   -2    8   13      1.88      0.00
    0    8   13     -1.01      0.00
    2    8   13     -2.98      0.00
    4    8   13      4.83      0.00
    6    8   13     -2.76      0.00
    8    8   13      0.30      0.00
   10    8   13      0.13      0.00
   12    8   13      0.37      0.00
   14    8   13     -1.09      0.00
   16    8   13      1.93      0.00
   18    8   13     -0.45      0.00
   20    8   13     -3.41      0.00
   22    8   13      5.72      0.00
  -25    9   13      1.37      0.00
  -23    9   13     -0.46      0.00
  -21    9   13      0.18      0.00
  -19    9   13     -0.78      0.00
  -17    9   13      0.32      0.00
  -15    9   13      1.64      0.00
  -13    9   13     -0.53      0.00
  -11    9   13     -0.48      0.00
   -9    9   13     -0.54      0.00
   -7    9   13     -1.98      0.00
   -5    9   13      3.75      0.00
   -3    9   13     -1.14      0.00
   -1    9   13     -0.96      0.00
    1    9   13      3.07      0.00
    3    9   13     -3.49      0.00
    5    9   13      0.37      0.00
    7    9   13      0.56      0.00
    9    9   13     -0.38      0.00
   11    9   13      0.58      0.00
   13    9   13      1.58      0.00
   15    9   13     -0.29      0.00
   17    9   13     -4.84      0.00
   19    9   13      6.04      0.00
   21    9   13     -4.22      0.00
  -24   10   13      0.22      0.00
  -22   10   13     -2.29      0.00
  -20   10   13      2.12      0.00
  -18   10   13      0.00      0.00
  -16   10   13     -0.73      0.00
  -14   10   13     -0.14      0.00
  -12   10   13      1.47      0.00
  -10   10   13     -1.93      0.00
   -8   10   13      2.28      0.00
   -6   10   13     -2.83      0.00
   -4   10   13      0.78      0.00
   -2   10   13      1.30      0.00
    0   10   13      0.52      0.00
    2   10   13     -2.48      0.00
    4   10   13      3.66      0.00
    6   10   13     -5.24      0.00
    8   10   13      3.28      0.00
   10   10   13     -0.44      0.00
   12   10   13      1.57      0.00
   14   10   13     -3.29      0.00
   16   10   13      3.68      0.00
   18   10   13     -1.02      0.00
   20   10   13     -5.61      0.00
   22   10   13      7.46      0.00
  -23   11   13      3.03      0.00
  -21   11   13     -0.88      0.00
  -19   11   13     -0.85      0.00
  -17   11   13     -1.20      0.00
  -15   11   13      2.78      0.00
  -13   11   13     -2.90      0.00
  -11   11   13      1.95      0.00
   -9   11   13     -0.53      0.00
   -7   11   13     -0.03      0.00
   -5   11   13      1.65      0.00
   -3   11   13     -1.65      0.00
   -1   11   13     -2.75      0.00
    1   11   13      5.46      0.00
    3   11   13     -4.70      0.00
    5   11   13      3.11      0.00
    7   11   13     -0.46      0.00
    9   11   13     -0.29      0.00
   11   11   13     -1.51      0.00
   13   11   13      1.97      0.00
   15   11   13     -0.02      0.00
   17   11   13     -4.20      0.00
   19   11   13      5.96      0.00
   21   11   13     -1.35      0.00
  -22   12   13     -1.50      0.00
  -20   12   13      0.93      0.00
  -18   12   13      0.78      0.00
  -16   12   13     -1.08      0.00
  -14   12   13     -1.44      0.00
  -12   12   13      2.16      0.00
  -10   12   13     -2.40      0.00
   -8   12   13      4.55      0.00
   -6   12   13     -3.06      0.00
   -4   12   13     -0.50      0.00
   -2   12   13      1.65      0.00
    0   12   13     -1.30      0.00
    2   12   13     -1.90      0.00
    4   12   13      4.56      0.00
    6   12   13     -3.88      0.00
    8   12   13      4.48      0.00
   10   12   13     -3.07      0.00
   12   12   13      0.02      0.00
   14   12   13     -3.08      0.00
   16   12   13      3.62      0.00
   18   12   13      3.58      0.00
   20   12   13     -6.55      0.00
  -21   13   13     -1.99      0.00
  -19   13   13      0.43      0.00
  -17   13   13     -1.01      0.00
  -15   13   13      2.89      0.00
  -13   13   13     -2.88      0.00
  -11   13   13      1.44      0.00
   -9   13   13     -1.31      0.00
   -7   13   13      0.38      0.00
   -5   13   13      1.69      0.00
   -3   13   13      0.16      0.00
   -1   13   13     -4.56      0.00
    1   13   13      5.36      0.00
    3   13   13     -4.36      0.00
    5   13   13      4.80      0.00
    7   13   13     -3.24      0.00
    9   13   13      0.18      0.00
   11   13   13     -0.72      0.00
   13   13   13      2.69      0.00
   15   13   13     -1.01      0.00
   17   13   13     -2.22      0.00
   19   13   13      1.47      0.00
  -20   14   13     -0.36      0.00
  -18   14   13      1.04      0.00
  -16   14   13     -0.64      0.00
  -14   14   13     -0.66      0.00
  -12   14   13      2.57      0.00
  -10   14   13     -2.26      0.00
   -8   14   13      1.58      0.00
   -6   14   13     -2.79      0.00
   -4   14   13     -0.44      0.00
   -2   14   13      4.05      0.00
    0   14   13     -0.73      0.00
    2   14   13     -0.74      0.00
    4   14   13     -0.42      0.00
    6   14   13     -2.00      0.00
    8   14   13      2.34      0.00
   10   14   13     -0.89      0.00
   12   14   13      1.49      0.00
   14   14   13     -0.46      0.00
   16   14   13     -0.79      0.00
   18   14   13      2.30      0.00
  -21   15   13     -1.69      0.00
  -19   15   13      1.34      0.00
  -17   15   13     -1.22      0.00
  -15   15   13      1.57      0.00
  -13   15   13      0.38      0.00
  -11   15   13     -0.87      0.00
   -9   15   13     -1.33      0.00
   -7   15   13      0.46      0.00
   -5   15   13      1.40      0.00
   -3   15   13      0.20      0.00
   -1   15   13     -2.87      0.00
    1   15   13      3.59      0.00
    3   15   13     -1.63      0.00
    5   15   13      1.24      0.00
    7   15   13     -4.38      0.00
    9   15   13      4.54      0.00
   11   15   13     -2.35      0.00
   13   15   13      2.15      0.00
   15   15   13     -0.68      0.00
   17   15   13      0.48      0.00
  -18   16   13      1.10      0.00
  -16   16   13     -0.40      0.00
  -14   16   13     -2.74      0.00
  -12   16   13      2.47      0.00
  -10   16   13      0.19      0.00
   -8   16   13      1.10      0.00
   -6   16   13     -2.30      0.00
   -4   16   13     -0.35      0.00
   -2   16   13      1.84      0.00
    0   16   13      0.35      0.00
    2   16   13     -1.34      0.00
    4   16   13     -2.52      0.00
    6   16   13      5.47      0.00
    8   16   13     -2.67      0.00
   10   16   13     -0.66      0.00
   12   16   13      1.77      0.00
   14   16   13     -1.82      0.00
   16   16   13     -0.34      0.00
  -17   17   13     -2.09      0.00
  -15   17   13      2.44      0.00
  -13   17   13     -0.18      0.00
  -11   17   13     -2.88      0.00
   -9   17   13      1.27      0.00
   -7   17   13      1.09      0.00
   -5   17   13      1.78      0.00
   -3   17   13     -1.01      0.00
   -1   17   13     -3.06      0.00
    1   17   13     -0.53      0.00
    3   17   13      3.89      0.00
    5   17   13     -0.46      0.00
    7   17   13     -3.25      0.00
    9   17   13      7.35      0.00
   11   17   13     -7.45      0.00
   13   17   13      0.69      0.00
   15   17   13      1.02      0.00
  -16   18   13      0.27      0.00
  -14   18   13     -4.43      0.00
  -12   18   13      4.20      0.00
  -10   18   13     -0.40      0.00
   -8   18   13      0.98      0.00
   -6   18   13     -2.55      0.00
   -4   18   13      0.22      0.00
   -2   18   13      0.26      0.00
    0   18   13      2.78      0.00
    2   18   13     -3.17      0.00
    4   18   13     -1.64      0.00
    6   18   13      7.54      0.00
    8   18   13     -7.21      0.00
   10   18   13     -0.71      0.00
   12   18   13      7.14      0.00
   14   18   13     -5.54      0.00
  -15   19   13      5.90      0.00
  -13   19   13     -0.66      0.00
  -11   19   13     -3.32      0.00
   -9   19   13      1.29      0.00
   -7   19   13     -0.98      0.00
   -5   19   13      2.07      0.00
   -3   19   13     -0.61      0.00
   -1   19   13     -1.52      0.00
    1   19   13      1.10      0.00
    3   19   13      3.25      0.00
    5   19   13     -4.27      0.00
    7   19   13     -3.43      0.00
    9   19   13     10.08      0.00
   11   19   13     -7.81      0.00
   13   19   13      0.57      0.00
  -12   20   13      5.05      0.00
  -10   20   13     -1.30      0.00
   -8   20   13     -0.24      0.00
   -6   20   13     -0.90      0.00
   -4   20   13     -0.67      0.00
   -2   20   13      0.86      0.00
    0   20   13      3.19      0.00
    2   20   13     -3.65      0.00
    4   20   13     -0.20      0.00
    6   20   13      3.95      0.00
    8   20   13     -5.02      0.00
   10   20   13     -1.96      0.00
  -11   21   13     -3.51      0.00
   -9   21   13      2.28      0.00
   -7   21   13     -1.01      0.00
   -5   21   13      1.97      0.00
   -3   21   13      0.31      0.00
   -1   21   13     -3.14      0.00
    1   21   13      1.93      0.00
    3   21   13      0.22      0.00
    5   21   13     -1.02      0.00
    7   21   13     -2.00      0.00
    9   21   13      8.08      0.00
   -8   22   13     -2.51      0.00
   -6   22   13      2.14      0.00
   -4   22   13     -2.33      0.00
   -2   22   13      1.73      0.00
    0   22   13     -0.25      0.00
    2   22   13     -2.70      0.00
    4   22   13      2.58      0.00
  -24    0   14     -0.58      0.00
  -22    0   14     -5.26      0.00
  -20    0   14      5.17      0.00
  -18    0   14      3.20      0.00
  -16    0   14     -6.13      0.00
  -14    0   14      3.27      0.00
  -12    0   14     -1.73      0.00
  -10    0   14     -0.45      0.00
   -8    0   14      2.03      0.00
   -6    0   14     -1.33      0.00
   -4    0   14      0.15      0.00
   -2    0   14      1.28      0.00
    0    0   14     -0.54      0.00
    2    0   14     -1.63      0.00
    4    0   14      2.08      0.00
    6    0   14     -1.93      0.00
    8    0   14     -0.42      0.00
   10    0   14      3.21      0.00
   12    0   14     -0.62      0.00
   14    0   14     -2.04      0.00
   16    0   14      0.31      0.00
   18    0   14      1.40      0.00
   20    0   14     -2.30      0.00
   22    0   14      0.90      0.00
  -25    1   14     -1.96      0.00
  -23    1   14      1.79      0.00
  -21    1   14      3.29      0.00
  -19    1   14     -9.51      0.00
  -17    1   14      8.17      0.00
  -15    1   14     -1.34      0.00
  -13    1   14     -1.40      0.00
  -11    1   14      1.29      0.00
   -9    1   14     -2.05      0.00
   -7    1   14     -0.18      0.00
   -5    1   14      3.05      0.00
   -3    1   14     -1.70      0.00
   -1    1   14      0.48      0.00
    1    1   14     -1.09      0.00
    3    1   14      1.48      0.00
    5    1   14     -3.29      0.00
    7    1   14      4.28      0.00
    9    1   14     -1.96      0.00
   11    1   14      0.01      0.00
   13    1   14      0.32      0.00
   15    1   14      0.20      0.00
   17    1   14     -2.06      0.00
   19    1   14      2.29      0.00
   21    1   14      0.72      0.00
   23    1   14     -2.59      0.00
  -24    2   14      0.74      0.00
  -22    2   14     -4.79      0.00
  -20    2   14      5.17      0.00
  -18    2   14      0.22      0.00
  -16    2   14     -5.96      0.00
  -14    2   14      5.05      0.00
  -12    2   14     -2.43      0.00
  -10    2   14      1.53      0.00
   -8    2   14      1.91      0.00
   -6    2   14     -2.70      0.00
   -4    2   14     -0.83      0.00
   -2    2   14      0.20      0.00
    0    2   14      1.93      0.00
    2    2   14     -1.61      0.00
    4    2   14      2.35      0.00
    6    2   14     -1.17      0.00
    8    2   14     -1.73      0.00
   10    2   14      0.92      0.00
   12    2   14      0.57      0.00
   14    2   14     -0.84      0.00
   16    2   14      1.69      0.00
   18    2   14     -0.26      0.00
   20    2   14     -2.64      0.00
   22    2   14      2.05      0.00
  -25    3   14     -2.71      0.00
  -23    3   14      3.08      0.00
  -21    3   14      2.63      0.00
  -19    3   14     -8.18      0.00
  -17    3   14      5.67      0.00
  -15    3   14     -2.05      0.00
  -13    3   14      0.02      0.00
  -11    3   14      3.49      0.00
   -9    3   14     -4.13      0.00
   -7    3   14      1.43      0.00
   -5    3   14      0.50      0.00
   -3    3   14     -0.77      0.00
   -1    3   14     -0.45      0.00
    1    3   14      0.36      0.00
    3    3   14      1.33      0.00
    5    3   14     -1.73      0.00
    7    3   14      1.81      0.00
    9    3   14      0.01      0.00
   11    3   14     -3.61      0.00
   13    3   14      2.55      0.00
   15    3   14      0.85      0.00
   17    3   14     -1.45      0.00
   19    3   14      1.11      0.00
   21    3   14      1.14      0.00
   23    3   14     -3.41      0.00
  -24    4   14      2.09      0.00
  -22    4   14     -6.34      0.00
  -20    4   14      6.09      0.00
  -18    4   14     -0.04      0.00
  -16    4   14     -3.31      0.00
  -14    4   14      3.66      0.00
  -12    4   14     -4.89      0.00
  -10    4   14      3.09      0.00
   -8    4   14      1.63      0.00
   -6    4   14     -3.09      0.00
   -4    4   14      1.71      0.00
   -2    4   14     -1.43      0.00
    0    4   14      2.42      0.00
    2    4   14     -3.20      0.00
    4    4   14      2.11      0.00
    6    4   14      0.88      0.00
    8    4   14     -2.39      0.00
   10    4   14      0.79      0.00
   12    4   14      1.43      0.00
   14    4   14     -2.86      0.00
   16    4   14      2.95      0.00
   18    4   14     -0.35      0.00
   20    4   14     -2.16      0.00
   22    4   14      0.84      0.00
  -25    5   14     -4.13      0.00
  -23    5   14      2.53      0.00
  -21    5   14      1.10      0.00
  -19    5   14     -3.46      0.00
  -17    5   14      3.41      0.00
  -15    5   14     -1.10      0.00
  -13    5   14     -0.31      0.00
  -11    5   14      2.53      0.00
   -9    5   14     -5.46      0.00
   -7    5   14      2.30      0.00
   -5    5   14      1.33      0.00
   -3    5   14      1.02      0.00
   -1    5   14     -1.33      0.00
    1    5   14     -0.72      0.00
    3    5   14      0.76      0.00
    5    5   14     -1.27      0.00
    7    5   14     -0.42      0.00
    9    5   14      3.91      0.00
   11    5   14     -3.97      0.00
   13    5   14      3.72      0.00
   15    5   14     -3.33      0.00
   17    5   14      0.33      0.00
   19    5   14      0.23      0.00
   21    5   14      1.84      0.00
  -24    6   14      4.32      0.00
  -22    6   14     -6.87      0.00
  -20    6   14      4.18      0.00
  -18    6   14     -0.54      0.00
  -16    6   14      0.43      0.00
  -14    6   14      0.62      0.00
  -12    6   14     -2.76      0.00
  -10    6   14      1.17      0.00
   -8    6   14      2.05      0.00
   -6    6   14     -2.94      0.00
   -4    6   14      2.14      0.00
   -2    6   14     -2.34      0.00
    0    6   14      3.62      0.00
    2    6   14     -2.36      0.00
    4    6   14     -0.27      0.00
    6    6   14      0.96      0.00
    8    6   14     -2.45      0.00
   10    6   14      3.26      0.00
   12    6   14      0.20      0.00
   14    6   14     -2.67      0.00
   16    6   14      2.16      0.00
   18    6   14     -1.67      0.00
   20    6   14      0.42      0.00
   22    6   14     -0.22      0.00
  -23    7   14      3.43      0.00
  -21    7   14      0.76      0.00
  -19    7   14     -1.85      0.00
  -17    7   14     -1.84      0.00
  -15    7   14      1.79      0.00
  -13    7   14      0.75      0.00
  -11    7   14      0.46      0.00
   -9    7   14     -1.75      0.00
   -7    7   14      0.79      0.00
   -5    7   14     -0.07      0.00
   -3    7   14      0.16      0.00
   -1    7   14     -0.69      0.00
    1    7   14      0.20      0.00
    3    7   14      1.02      0.00
    5    7   14     -0.94      0.00
    7    7   14      0.20      0.00
    9    7   14      1.44      0.00
   11    7   14     -4.34      0.00
   13    7   14      5.68      0.00
   15    7   14     -4.37      0.00
   17    7   14      2.31      0.00
   19    7   14     -2.15      0.00
   21    7   14      3.08      0.00
  -24    8   14      5.29      0.00
  -22    8   14     -5.44      0.00
  -20    8   14      1.68      0.00
  -18    8   14      0.52      0.00
  -16    8   14      0.92      0.00
  -14    8   14     -3.48      0.00
  -12    8   14      1.80      0.00
  -10    8   14      0.24      0.00
   -8    8   14      2.12      0.00
   -6    8   14     -1.83      0.00
   -4    8   14     -0.11      0.00
   -2    8   14     -2.33      0.00
    0    8   14      3.19      0.00
    2    8   14     -1.40      0.00
    4    8   14      0.77      0.00
    6    8   14      1.06      0.00
    8    8   14     -2.47      0.00
   10    8   14      2.91      0.00
   12    8   14     -3.57      0.00
   14    8   14      0.05      0.00
   16    8   14      3.08      0.00
   18    8   14     -0.83      0.00
   20    8   14      1.23      0.00
  -23    9   14      3.05      0.00
  -21    9   14      1.25      0.00
  -19    9   14     -0.20      0.00
  -17    9   14     -2.71      0.00
  -15    9   14      2.20      0.00
  -13    9   14      0.60      0.00
  -11    9   14     -1.81      0.00
   -9    9   14      0.97      0.00
   -7    9   14     -0.46      0.00
   -5    9   14     -0.45      0.00
   -3    9   14      3.13      0.00
   -1    9   14     -3.38      0.00
    1    9   14      0.10      0.00
    3    9   14      0.56      0.00
    5    9   14      0.55      0.00
    7    9   14      1.86      0.00
    9    9   14     -2.77      0.00
   11    9   14     -1.63      0.00
   13    9   14      4.45      0.00
   15    9   14     -3.53      0.00
   17    9   14      3.03      0.00
   19    9   14     -3.18      0.00
   21    9   14      2.71      0.00
  -22   10   14     -3.47      0.00
  -20   10   14     -0.27      0.00
  -18   10   14      3.26      0.00
  -16   10   14     -0.28      0.00
  -14   10   14     -2.61      0.00
  -12   10   14      1.83      0.00
  -10   10   14     -0.18      0.00
   -8   10   14     -1.00      0.00
   -6   10   14      0.91      0.00
   -4   10   14     -0.69      0.00
   -2   10   14     -0.18      0.00
    0   10   14      2.67      0.00
    2   10   14     -2.20      0.00
    4   10   14      0.80      0.00
    6   10   14     -2.31      0.00
    8   10   14      0.21      0.00
   10   10   14      3.83      0.00
   12   10   14     -2.47      0.00
   14   10   14      0.31      0.00
   16   10   14     -0.08      0.00
   18   10   14     -0.67      0.00
   20   10   14      1.61      0.00
  -21   11   14      1.50      0.00
  -19   11   14     -1.43      0.00
  -17   11   14     -1.31      0.00
  -15   11   14      1.93      0.00
  -13   11   14      1.87      0.00
  -11   11   14     -2.40      0.00
   -9   11   14     -0.95      0.00
   -7   11   14      0.96      0.00
   -5   11   14     -1.94      0.00
   -3   11   14      5.57      0.00
   -1   11   14     -4.86      0.00
    1   11   14      2.50      0.00
    3   11   14     -1.66      0.00
    5   11   14     -0.25      0.00
    7   11   14      1.87      0.00
    9   11   14     -3.02      0.00
   11   11   14      2.77      0.00
   13   11   14      0.22      0.00
   15   11   14     -0.66      0.00
   17   11   14      0.28      0.00
   19   11   14     -3.87      0.00
  -20   12   14     -2.12      0.00
  -18   12   14      4.06      0.00
  -16   12   14     -2.92      0.00
  -14   12   14      0.48      0.00
  -12   12   14     -1.32      0.00
  -10   12   14      2.86      0.00
   -8   12   14     -1.19      0.00
   -6   12   14      1.17      0.00
   -4   12   14     -2.60      0.00
   -2   12   14     -0.26      0.00
    0   12   14      3.36      0.00
    2   12   14     -2.18      0.00
    4   12   14      1.21      0.00
    6   12   14     -2.45      0.00
    8   12   14      2.11      0.00
   10   12   14      0.16      0.00
   12   12   14     -0.89      0.00
   14   12   14      0.68      0.00
   16   12   14     -1.49      0.00
   18   12   14      0.44      0.00
  -19   13   14     -2.09      0.00
  -17   13   14     -0.30      0.00
  -15   13   14      0.77      0.00
  -13   13   14      0.04      0.00
  -11   13   14      0.37      0.00
   -9   13   14     -2.16      0.00
   -7   13   14      3.53      0.00
   -5   13   14     -2.86      0.00
   -3   13   14      4.28      0.00
   -1   13   14     -5.82      0.00
    1   13   14      1.55      0.00
    3   13   14      0.67      0.00
    5   13   14      0.98      0.00
    7   13   14      1.59      0.00
    9   13   14     -2.92      0.00
   11   13   14      2.07      0.00
   13   13   14     -5.01      0.00
   15   13   14      3.76      0.00
   17   13   14      1.67      0.00
  -18   14   14      4.97      0.00
  -16   14   14     -3.62      0.00
  -14   14   14      1.04      0.00
  -12   14   14     -2.73      0.00
  -10   14   14      3.51      0.00
   -8   14   14      0.05      0.00
   -6   14   14     -0.50      0.00
   -4   14   14     -1.07      0.00
   -2   14   14     -1.53      0.00
    0   14   14      3.86      0.00
    2   14   14     -3.02      0.00
    4   14   14      1.56      0.00
    6   14   14      0.34      0.00
    8   14   14     -0.52      0.00
   10   14   14     -1.76      0.00
   12   14   14      1.84      0.00
   14   14   14      0.75      0.00
   16   14   14     -1.99      0.00
  -17   15   14     -1.62      0.00
  -15   15   14      3.59      0.00
  -13   15   14     -1.21      0.00
  -11   15   14      1.97      0.00
   -9   15   14     -4.72      0.00
   -7   15   14      2.34      0.00
   -5   15   14     -1.30      0.00
   -3   15   14      3.77      0.00
   -1   15   14     -2.43      0.00
    1   15   14     -0.85      0.00
    3   15   14      2.78      0.00
    5   15   14     -3.21      0.00
    7   15   14      0.64      0.00
    9   15   14      0.62      0.00
   11   15   14      2.40      0.00
   13   15   14     -5.06      0.00
   15   15   14      4.17      0.00
  -16   16   14     -2.39      0.00
  -14   16   14      0.35      0.00
  -12   16   14     -0.29      0.00
  -10   16   14      0.51      0.00
   -8   16   14      0.30      0.00
   -6   16   14     -1.27      0.00
   -4   16   14      0.53      0.00
   -2   16   14     -1.95      0.00
    0   16   14      5.58      0.00
    2   16   14     -3.47      0.00
    4   16   14     -0.88      0.00
    6   16   14      1.49      0.00
    8   16   14     -1.74      0.00
   10   16   14     -0.84      0.00
   12   16   14      3.87      0.00
   14   16   14      0.30      0.00
  -15   17   14      4.32      0.00
  -13   17   14     -2.08      0.00
  -11   17   14      1.63      0.00
   -9   17   14     -2.57      0.00
   -7   17   14      1.35      0.00
   -5   17   14     -0.39      0.00
   -3   17   14      1.62      0.00
   -1   17   14     -0.66      0.00
    1   17   14     -2.43      0.00
    3   17   14      3.21      0.00
    5   17   14     -2.29      0.00
    7   17   14      0.15      0.00
    9   17   14      2.15      0.00
   11   17   14      0.60      0.00
   13   17   14     -5.12      0.00
  -14   18   14     -2.92      0.00
  -12   18   14      0.84      0.00
  -10   18   14      1.00      0.00
   -8   18   14      0.48      0.00
   -6   18   14      0.49      0.00
   -4   18   14     -0.30      0.00
   -2   18   14     -2.38      0.00
    0   18   14      1.56      0.00
    2   18   14     -0.53      0.00
    4   18   14      0.32      0.00
    6   18   14      1.35      0.00
    8   18   14      0.86      0.00
   10   18   14     -4.47      0.00
  -11   19   14     -0.47      0.00
   -9   19   14      0.42      0.00
   -7   19   14      0.26      0.00
   -5   19   14     -0.83      0.00
   -3   19   14      0.43      0.00
   -1   19   14      0.86      0.00
    1   19   14     -1.89      0.00
    3   19   14     -0.13      0.00
    5   19   14      3.25      0.00
    7   19   14     -3.02      0.00
    9   19   14      0.83      0.00
  -10   20   14      1.30      0.00
   -8   20   14     -2.35      0.00
   -6   20   14      1.54      0.00
   -4   20   14     -0.72      0.00
   -2   20   14      0.42      0.00
    0   20   14     -1.18      0.00
    2   20   14      3.34      0.00
    4   20   14     -2.01      0.00
    6   20   14     -3.08      0.00
   -5   21   14     -0.83      0.00
   -3   21   14     -0.40      0.00
   -1   21   14      2.55      0.00
    1   21   14     -0.60      0.00
    3   21   14     -3.01      0.00
  -23    1   15     -1.70      0.00
  -21    1   15      1.17      0.00
  -19    1   15      0.75      0.00
  -17    1   15      0.99      0.00
  -15    1   15     -2.26      0.00
  -13    1   15      1.52      0.00
  -11    1   15     -1.57      0.00
   -9    1   15      0.88      0.00
   -7    1   15     -0.56      0.00
   -5    1   15      0.77      0.00
   -3    1   15      0.56      0.00
   -1    1   15     -0.31      0.00
    1    1   15     -0.49      0.00
    3    1   15     -0.76      0.00
    5    1   15      0.95      0.00
    7    1   15     -1.58      0.00
    9    1   15      2.47      0.00
   11    1   15      0.10      0.00
   13    1   15     -0.88      0.00
   15    1   15     -1.47      0.00
   17    1   15      1.01      0.00
   19    1   15      0.48      0.00
   21    1   15     -0.98      0.00
  -24    2   15      6.27      0.00
  -22    2   15     -4.40      0.00
  -20    2   15      2.06      0.00
  -18    2   15     -2.52      0.00
  -16    2   15      3.97      0.00
  -14    2   15     -1.56      0.00
  -12    2   15     -1.13      0.00
  -10    2   15      0.35      0.00
   -8    2   15     -0.55      0.00
   -6    2   15      1.01      0.00
   -4    2   15      1.00      0.00
   -2    2   15     -1.85      0.00
    0    2   15      1.13      0.00
    2    2   15      0.29      0.00
    4    2   15     -2.49      0.00
    6    2   15      1.64      0.00
    8    2   15      0.72      0.00
   10    2   15     -0.45      0.00
   12    2   15      0.50      0.00
   14    2   15     -1.32      0.00
   16    2   15      1.24      0.00
   18    2   15     -2.35      0.00
   20    2   15      3.46      0.00
  -23    3   15     -1.25      0.00
  -21    3   15      2.05      0.00
  -19    3   15     -0.69      0.00
  -17    3   15      0.67      0.00
  -15    3   15     -3.54      0.00
  -13    3   15      4.55      0.00
  -11    3   15     -2.58      0.00
   -9    3   15      1.90      0.00
   -7    3   15     -0.89      0.00
   -5    3   15     -1.32      0.00
   -3    3   15      0.92      0.00
   -1    3   15      0.61      0.00
    1    3   15     -1.03      0.00
    3    3   15      0.67      0.00
    5    3   15      1.84      0.00
    7    3   15     -3.79      0.00
    9    3   15      1.97      0.00
   11    3   15     -0.16      0.00
   13    3   15      0.70      0.00
   15    3   15     -1.46      0.00
   17    3   15      1.55      0.00
   19    3   15     -0.86      0.00
   21    3   15     -1.12      0.00
  -22    4   15     -4.74      0.00
  -20    4   15      2.17      0.00
  -18    4   15     -4.39      0.00
  -16    4   15      4.10      0.00
  -14    4   15     -1.33      0.00
  -12    4   15      0.04      0.00
  -10    4   15      0.75      0.00
   -8    4   15     -0.42      0.00
   -6    4   15     -0.22      0.00
   -4    4   15      1.09      0.00
   -2    4   15     -3.58      0.00
    0    4   15      2.76      0.00
    2    4   15      1.24      0.00
    4    4   15     -2.62      0.00
    6    4   15      2.24      0.00
    8    4   15     -0.02      0.00
   10    4   15     -2.62      0.00
   12    4   15      0.52      0.00
   14    4   15      1.11      0.00
   16    4   15      1.80      0.00
   18    4   15     -3.95      0.00
   20    4   15      4.92      0.00
  -23    5   15      0.86      0.00
  -21    5   15      0.80      0.00
  -19    5   15      0.98      0.00
  -17    5   15      0.05      0.00
  -15    5   15     -3.05      0.00
  -13    5   15      2.56      0.00
  -11    5   15     -1.18      0.00
   -9    5   15      1.51      0.00
   -7    5   15     -0.05      0.00
   -5    5   15     -2.58      0.00
   -3    5   15      2.43      0.00
   -1    5   15      0.06      0.00
    1    5   15     -1.87      0.00
    3    5   15      0.04      0.00
    5    5   15      3.65      0.00
    7    5   15     -3.34      0.00
    9    5   15      0.39      0.00
   11    5   15      0.34      0.00
   13    5   15     -0.27      0.00
   15    5   15     -0.34      0.00
   17    5   15      2.51      0.00
   19    5   15     -2.10      0.00
  -22    6   15     -2.78      0.00
  -20    6   15      1.46      0.00
  -18    6   15     -0.61      0.00
  -16    6   15      1.35      0.00
  -14    6   15     -1.18      0.00
  -12    6   15      0.95      0.00
  -10    6   15     -1.55      0.00
   -8    6   15      0.02      0.00
   -6    6   15      0.06      0.00
   -4    6   15      3.17      0.00
   -2    6   15     -3.40      0.00
    0    6   15      0.50      0.00
    2    6   15      2.08      0.00
    4    6   15     -2.99      0.00
    6    6   15      0.39      0.00
    8    6   15      1.90      0.00
   10    6   15     -0.94      0.00
   12    6   15      0.42      0.00
   14    6   15     -0.13      0.00
   16    6   15     -0.30      0.00
   18    6   15     -1.73      0.00
   20    6   15      3.81      0.00
  -21    7   15     -1.88      0.00
  -19    7   15      1.42      0.00
  -17    7   15     -0.41      0.00
  -15    7   15      1.03      0.00
  -13    7   15     -0.94      0.00
  -11    7   15     -0.45      0.00
   -9    7   15      0.15      0.00
   -7    7   15      0.85      0.00
   -5    7   15     -1.98      0.00
   -3    7   15      1.81      0.00
   -1    7   15      1.19      0.00
    1    7   15     -1.05      0.00
    3    7   15     -2.60      0.00
    5    7   15      3.16      0.00
    7    7   15     -2.37      0.00
    9    7   15      1.04      0.00
   11    7   15      2.52      0.00
   13    7   15     -3.12      0.00
   15    7   15      0.85      0.00
   17    7   15      0.29      0.00
   19    7   15     -1.32      0.00
  -22    8   15      1.30      0.00
  -20    8   15     -2.11      0.00
  -18    8   15      1.49      0.00
  -16    8   15     -1.53      0.00
  -14    8   15      0.99      0.00
  -12    8   15      1.64      0.00
  -10    8   15     -2.74      0.00
   -8    8   15      1.42      0.00
   -6    8   15     -0.71      0.00
   -4    8   15      1.50      0.00
   -2    8   15     -1.48      0.00
    0    8   15     -1.76      0.00
    2    8   15      5.20      0.00
    4    8   15     -3.74      0.00
    6    8   15     -0.11      0.00
    8    8   15      1.36      0.00
   10    8   15     -1.38      0.00
   12    8   15      1.53      0.00
   14    8   15      0.66      0.00
   16    8   15     -2.85      0.00
   18    8   15      0.53      0.00
  -21    9   15     -1.98      0.00
  -19    9   15      0.72      0.00
  -17    9   15     -1.03      0.00
  -15    9   15      1.75      0.00
  -13    9   15     -2.58      0.00
  -11    9   15      1.53      0.00
   -9    9   15      0.89      0.00
   -7    9   15      0.31      0.00
   -5    9   15     -1.21      0.00
   -3    9   15     -2.08      0.00
   -1    9   15      3.51      0.00
    1    9   15     -1.29      0.00
    3    9   15     -2.03      0.00
    5    9   15      3.91      0.00
    7    9   15     -1.81      0.00
    9    9   15      0.11      0.00
   11    9   15      0.86      0.00
   13    9   15     -5.08      0.00
   15    9   15      5.04      0.00
   17    9   15      0.28      0.00
  -20   10   15     -2.34      0.00
  -18   10   15      2.80      0.00
  -16   10   15     -3.16      0.00
  -14   10   15      0.88      0.00
  -12   10   15      0.97      0.00
  -10   10   15     -1.09      0.00
   -8   10   15      1.30      0.00
   -6   10   15     -1.26      0.00
   -4   10   15      1.39      0.00
   -2   10   15      0.29      0.00
    0   10   15     -5.45      0.00
    2   10   15      6.82      0.00
    4   10   15     -3.22      0.00
    6   10   15      2.55      0.00
    8   10   15     -1.81      0.00
   10   10   15     -2.41      0.00
   12   10   15      2.41      0.00
   14   10   15      2.00      0.00
   16   10   15     -3.53      0.00
   18   10   15      1.53      0.00
  -19   11   15      0.35      0.00
  -17   11   15      0.19      0.00
  -15   11   15      0.76      0.00
  -13   11   15     -1.89      0.00
  -11   11   15      1.71      0.00
   -9   11   15     -0.87      0.00
   -7   11   15     -0.43      0.00
   -5   11   15      1.45      0.00
   -3   11   15     -3.55      0.00
   -1   11   15      5.87      0.00
    1   11   15     -3.07      0.00
    3   11   15     -1.20      0.00
    5   11   15      1.18      0.00
    7   11   15     -1.92      0.00
    9   11   15      3.54      0.00
   11   11   15      0.19      0.00
   13   11   15     -5.38      0.00
   15   11   15      4.58      0.00
   17   11   15      0.07      0.00
  -18   12   15      1.01      0.00
  -16   12   15     -1.29      0.00
  -14   12   15      2.37      0.00
  -12   12   15     -0.53      0.00
  -10   12   15     -1.63      0.00
   -8   12   15      0.13      0.00
   -6   12   15     -0.67      0.00
   -4   12   15      2.16      0.00
   -2   12   15      1.27      0.00
    0   12   15     -4.95      0.00
    2   12   15      5.27      0.00
    4   12   15     -4.07      0.00
    6   12   15      3.10      0.00
    8   12   15     -2.83      0.00
   10   12   15     -1.25      0.00
   12   12   15      5.07      0.00
   14   12   15      0.59      0.00
   16   12   15     -4.81      0.00
  -17   13   15      0.68      0.00
  -15   13   15      0.51      0.00
  -13   13   15     -2.05      0.00
  -11   13   15      2.52      0.00
   -9   13   15     -1.41      0.00
   -7   13   15      0.47      0.00
   -5   13   15      0.79      0.00
   -3   13   15     -4.31      0.00
   -1   13   15      5.82      0.00
    1   13   15     -1.65      0.00
    3   13   15     -1.30      0.00
    5   13   15     -0.01      0.00
    7   13   15     -2.45      0.00
    9   13   15      6.76      0.00
   11   13   15     -2.70      0.00
   13   13   15     -4.26      0.00
   15   13   15      3.57      0.00
  -16   14   15     -1.06      0.00
  -14   14   15      1.56      0.00
  -12   14   15     -0.86      0.00
  -10   14   15     -0.50      0.00
   -8   14   15      1.08      0.00
   -6   14   15     -0.22      0.00
   -4   14   15      0.99      0.00
   -2   14   15     -0.04      0.00
    0   14   15     -4.72      0.00
    2   14   15      3.86      0.00
    4   14   15      0.13      0.00
    6   14   15      1.74      0.00
    8   14   15     -0.88      0.00
   10   14   15     -5.52      0.00
   12   14   15      6.55      0.00
   14   14   15     -2.19      0.00
  -15   15   15     -0.53      0.00
  -13   15   15     -3.60      0.00
  -11   15   15      4.19      0.00
   -9   15   15     -0.75      0.00
   -7   15   15      1.04      0.00
   -5   15   15     -1.10      0.00
   -3   15   15     -2.88      0.00
   -1   15   15      3.25      0.00
    1   15   15      0.89      0.00
    3   15   15     -3.70      0.00
    5   15   15      4.16      0.00
    7   15   15     -4.61      0.00
    9   15   15      6.14      0.00
   11   15   15     -3.80      0.00
   13   15   15     -2.82      0.00
  -14   16   15      3.18      0.00
  -12   16   15     -1.08      0.00
  -10   16   15     -0.87      0.00
   -8   16   15     -1.00      0.00
   -6   16   15      0.44      0.00
   -4   16   15      1.68      0.00
   -2   16   15      1.13      0.00
    0   16   15     -4.94      0.00
    2   16   15      3.30      0.00
    4   16   15      1.51      0.00
    6   16   15     -4.11      0.00
    8   16   15      5.24      0.00
   10   16   15     -8.16      0.00
   12   16   15      8.54      0.00
  -13   17   15     -1.52      0.00
  -11   17   15      2.23      0.00
   -9   17   15     -1.57      0.00
   -7   17   15      1.55      0.00
   -5   17   15     -2.09      0.00
   -3   17   15     -1.02      0.00
   -1   17   15      3.45      0.00
    1   17   15      2.44      0.00
    3   17   15     -7.72      0.00
    5   17   15      6.24      0.00
    7   17   15     -5.31      0.00
    9   17   15      3.68      0.00
  -10   18   15      0.66      0.00
   -8   18   15     -2.29      0.00
   -6   18   15      1.31      0.00
   -4   18   15      2.01      0.00
   -2   18   15      0.04      0.00
    0   18   15     -4.53      0.00
    2   18   15      4.07      0.00
    4   18   15      1.06      0.00
    6   18   15     -6.89      0.00
    8   18   15      9.25      0.00
   -7   19   15      2.59      0.00
   -5   19   15     -2.74      0.00
   -3   19   15     -1.58      0.00
   -1   19   15      2.89      0.00
    1   19   15     -0.30      0.00
    3   19   15     -3.86      0.00
    5   19   15      5.84      0.00
  -22    0   16      7.66      0.00
  -20    0   16     -4.40      0.00
  -18    0   16     -2.24      0.00
  -16    0   16      1.34      0.00
  -14    0   16      0.53      0.00
  -12    0   16      1.46      0.00
   -8    0   16      0.22      0.00
   -6    0   16     -2.25      0.00
   -4    0   16      2.39      0.00
   -2    0   16     -2.10      0.00
    0    0   16      1.67      0.00
    2    0   16     -0.66      0.00
    4    0   16      1.58      0.00
    6    0   16     -0.48      0.00
    8    0   16     -2.13      0.00
   10    0   16      0.29      0.00
   12    0   16      0.80      0.00
   14    0   16      1.44      0.00
   16    0   16     -0.36      0.00
   18    0   16     -2.99      0.00
  -21    1   16     -3.74      0.00
  -19    1   16      5.42      0.00
  -17    1   16     -1.82      0.00
  -15    1   16      0.11      0.00
  -13    1   16     -0.92      0.00
  -11    1   16      0.18      0.00
   -9    1   16      0.55      0.00
   -7    1   16      1.07      0.00
   -5    1   16     -1.76      0.00
   -3    1   16      0.47      0.00
   -1    1   16     -0.61      0.00
    1    1   16      1.78      0.00
    3    1   16     -1.94      0.00
    5    1   16      1.21      0.00
    7    1   16      0.23      0.00
    9    1   16     -0.40      0.00
   11    1   16     -0.76      0.00
   13    1   16      0.05      0.00
   15    1   16      0.11      0.00
   17    1   16      1.98      0.00
   19    1   16     -0.99      0.00
  -22    2   16      6.28      0.00
  -20    2   16     -2.62      0.00
  -18    2   16     -0.40      0.00
  -16    2   16      0.12      0.00
  -14    2   16     -0.41      0.00
  -12    2   16      1.76      0.00
  -10    2   16     -1.89      0.00
   -8    2   16      0.81      0.00
   -6    2   16     -1.69      0.00
   -4    2   16      3.23      0.00
   -2    2   16     -1.26      0.00
    0    2   16     -0.62      0.00
    2    2   16     -0.52      0.00
    4    2   16      1.27      0.00
    6    2   16     -1.10      0.00
    8    2   16     -0.01      0.00
   10    2   16      1.40      0.00
   12    2   16     -0.28      0.00
   14    2   16     -0.30      0.00
   16    2   16     -0.55      0.00
   18    2   16     -1.50      0.00
  -21    3   16     -3.55      0.00
  -19    3   16      3.94      0.00
  -17    3   16     -0.36      0.00
  -15    3   16      1.10      0.00
  -13    3   16     -2.06      0.00
  -11    3   16     -0.79      0.00
   -9    3   16      0.62      0.00
   -7    3   16      0.83      0.00
   -5    3   16      0.80      0.00
   -3    3   16     -1.33      0.00
   -1    3   16      0.14      0.00
    1    3   16      1.85      0.00
    3    3   16     -3.29      0.00
    5    3   16      0.25      0.00
    7    3   16      1.98      0.00
    9    3   16      0.30      0.00
   11    3   16      0.32      0.00
   13    3   16     -2.59      0.00
   15    3   16      0.67      0.00
   17    3   16      0.94      0.00
  -20    4   16     -2.37      0.00
  -18    4   16      0.28      0.00
  -16    4   16     -1.06      0.00
  -14    4   16      0.18      0.00
  -12    4   16      2.72      0.00
  -10    4   16     -2.64      0.00
   -8    4   16      1.60      0.00
   -6    4   16     -2.39      0.00
   -4    4   16      1.54      0.00
   -2    4   16      1.17      0.00
    0    4   16     -2.29      0.00
    2    4   16      0.78      0.00
    4    4   16      2.13      0.00
    6    4   16     -2.60      0.00
    8    4   16     -0.21      0.00
   10    4   16      0.62      0.00
   12    4   16      1.57      0.00
   14    4   16     -0.48      0.00
   16    4   16     -1.33      0.00
   18    4   16     -0.76      0.00
  -21    5   16     -3.31      0.00
  -19    5   16      0.72      0.00
  -17    5   16     -0.20      0.00
  -15    5   16      2.29      0.00
  -13    5   16     -2.08      0.00
  -11    5   16     -0.07      0.00
   -9    5   16      0.94      0.00
   -7    5   16      0.28      0.00
   -5    5   16      0.42      0.00
   -3    5   16     -3.08      0.00
   -1    5   16      1.02      0.00
    1    5   16      3.41      0.00
    3    5   16     -3.29      0.00
    5    5   16      0.40      0.00
    7    5   16      1.78      0.00
    9    5   16     -1.01      0.00
   11    5   16     -0.86      0.00
   13    5   16     -1.51      0.00
   15    5   16      3.60      0.00
   17    5   16     -1.75      0.00
  -20    6   16     -0.62      0.00
  -18    6   16      0.96      0.00
  -16    6   16     -3.04      0.00
  -14    6   16     -0.09      0.00
  -12    6   16      2.77      0.00
  -10    6   16     -0.54      0.00
   -8    6   16      0.50      0.00
   -6    6   16     -2.57      0.00
   -4    6   16      0.76      0.00
   -2    6   16      3.09      0.00
    0    6   16     -4.41      0.00
    2    6   16      0.70      0.00
    4    6   16      4.01      0.00
    6    6   16     -2.00      0.00
    8    6   16     -1.35      0.00
   10    6   16     -1.61      0.00
   12    6   16      3.62      0.00
   14    6   16     -1.14      0.00
   16    6   16      0.33      0.00
  -19    7   16      1.29      0.00
  -17    7   16     -0.07      0.00
  -15    7   16      1.45      0.00
  -13    7   16     -2.21      0.00
  -11    7   16      0.95      0.00
   -9    7   16     -1.71      0.00
   -7    7   16      1.86      0.00
   -5    7   16      1.45      0.00
   -3    7   16     -2.99      0.00
   -1    7   16      0.31      0.00
    1    7   16      3.31      0.00
    3    7   16     -3.61      0.00
    5    7   16     -0.07      0.00
    7    7   16      1.03      0.00
    9    7   16      2.59      0.00
   11    7   16     -2.82      0.00
   13    7   16     -1.32      0.00
   15    7   16      3.06      0.00
   17    7   16     -2.25      0.00
  -20    8   16     -0.42      0.00
  -18    8   16      0.57      0.00
  -16    8   16     -1.10      0.00
  -14    8   16      0.85      0.00
  -12    8   16     -0.26      0.00
  -10    8   16      0.16      0.00
   -8    8   16     -0.12      0.00
   -6    8   16     -1.96      0.00
   -4    8   16      1.45      0.00
   -2    8   16      4.12      0.00
    0    8   16     -5.06      0.00
    2    8   16     -0.30      0.00
    4    8   16      3.02      0.00
    6    8   16     -1.63      0.00
    8    8   16     -0.37      0.00
   10    8   16     -0.92      0.00
   12    8   16      4.70      0.00
   14    8   16     -3.53      0.00
   16    8   16     -0.03      0.00
  -19    9   16      0.70      0.00
  -17    9   16     -0.04      0.00
  -15    9   16      1.93      0.00
  -13    9   16     -1.97      0.00
  -11    9   16      1.56      0.00
   -9    9   16     -3.73      0.00
   -7    9   16      3.65      0.00
   -5    9   16      1.41      0.00
   -3    9   16     -4.93      0.00
   -1    9   16      1.42      0.00
    1    9   16      4.37      0.00
    3    9   16     -3.61      0.00
    5    9   16     -1.21      0.00
    7    9   16     -0.09      0.00
    9    9   16      4.88      0.00
   11    9   16     -3.86      0.00
   13    9   16      0.40      0.00
   15    9   16      0.13      0.00
  -18   10   16     -1.63      0.00
  -16   10   16      0.76      0.00
  -14   10   16      0.12      0.00
  -12   10   16     -0.71      0.00
  -10   10   16      1.45      0.00
   -8   10   16      1.02      0.00
   -6   10   16     -3.50      0.00
   -4   10   16      0.59      0.00
   -2   10   16      4.29      0.00
    0   10   16     -4.66      0.00
    2   10   16     -0.86      0.00
    4   10   16      4.75      0.00
    6   10   16     -1.59      0.00
    8   10   16     -0.55      0.00
   10   10   16     -2.21      0.00
   12   10   16      3.18      0.00
   14   10   16     -1.84      0.00
  -17   11   16     -0.91      0.00
  -15   11   16     -0.12      0.00
  -13   11   16     -1.66      0.00
  -11   11   16      2.77      0.00
   -9   11   16     -2.29      0.00
   -7   11   16      2.01      0.00
   -5   11   16      1.96      0.00
   -3   11   16     -5.60      0.00
   -1   11   16      0.55      0.00
    1   11   16      4.82      0.00
    3   11   16     -2.58      0.00
    5   11   16     -0.59      0.00
    7   11   16      0.57      0.00
    9   11   16      1.76      0.00
   11   11   16     -3.97      0.00
   13   11   16      2.55      0.00
  -16   12   16      1.98      0.00
  -14   12   16     -1.20      0.00
  -12   12   16      1.09      0.00
  -10   12   16      0.04      0.00
   -8   12   16      0.02      0.00
   -6   12   16     -2.48      0.00
   -4   12   16      0.86      0.00
   -2   12   16      5.09      0.00
    0   12   16     -4.64      0.00
    2   12   16     -2.98      0.00
    4   12   16      6.96      0.00
    6   12   16     -4.42      0.00
    8   12   16      1.63      0.00
   10   12   16     -1.42      0.00
   12   12   16      1.36      0.00
  -15   13   16      0.49      0.00
  -13   13   16     -0.22      0.00
  -11   13   16     -0.93      0.00
   -9   13   16     -0.24      0.00
   -7   13   16      0.02      0.00
   -5   13   16      3.03      0.00
   -3   13   16     -3.73      0.00
   -1   13   16     -0.58      0.00
    1   13   16      5.91      0.00
    3   13   16     -4.66      0.00
    5   13   16     -1.02      0.00
    7   13   16      2.35      0.00
    9   13   16     -1.17      0.00
   11   13   16     -0.03      0.00
  -14   14   16     -0.51      0.00
  -12   14   16      1.34      0.00
  -10   14   16     -0.85      0.00
   -8   14   16     -1.04      0.00
   -6   14   16      0.05      0.00
   -4   14   16     -0.82      0.00
   -2   14   16      5.08      0.00
    0   14   16     -3.68      0.00
    2   14   16     -2.97      0.00
    4   14   16      6.92      0.00
    6   14   16     -7.89      0.00
    8   14   16      5.71      0.00
   10   14   16     -0.97      0.00
  -13   15   16      0.27      0.00
  -11   15   16     -2.30      0.00
   -9   15   16      3.15      0.00
   -7   15   16     -0.63      0.00
   -5   15   16      1.74      0.00
   -3   15   16     -3.34      0.00
   -1   15   16     -1.76      0.00
    1   15   16      6.26      0.00
    3   15   16     -4.94      0.00
    5   15   16      1.52      0.00
    7   15   16      2.95      0.00
    9   15   16     -5.13      0.00
  -10   16   16      1.31      0.00
   -8   16   16     -1.46      0.00
   -6   16   16      0.27      0.00
   -4   16   16     -1.53      0.00
   -2   16   16      3.89      0.00
    0   16   16     -3.69      0.00
    2   16   16     -0.98      0.00
    4   16   16      6.24      0.00
    6   16   16     -7.77      0.00
    8   16   16      6.34      0.00
   -7   17   16     -1.10      0.00
   -5   17   16      1.44      0.00
   -3   17   16     -1.36      0.00
   -1   17   16     -1.60      0.00
    1   17   16      4.26      0.00
    3   17   16     -3.86      0.00
    5   17   16      1.66      0.00
   -4   18   16     -0.61      0.00
   -2   18   16      3.04      0.00
    0   18   16     -1.17      0.00
  -19    1   17     -1.10      0.00
  -17    1   17     -0.28      0.00
  -15    1   17      1.22      0.00
  -13    1   17     -0.22      0.00
  -11    1   17      0.41      0.00
   -9    1   17     -0.56      0.00
   -7    1   17      0.71      0.00
   -5    1   17     -1.39      0.00
   -3    1   17      0.39      0.00
   -1    1   17     -0.25      0.00
    1    1   17      1.23      0.00
    3    1   17     -0.13      0.00
    5    1   17     -0.12      0.00
    7    1   17     -0.52      0.00
    9    1   17     -0.43      0.00
   11    1   17      0.17      0.00
   13    1   17      0.03      0.00
   15    1   17      1.32      0.00
  -18    2   17      1.35      0.00
  -16    2   17     -2.09      0.00
  -14    2   17      0.15      0.00
  -12    2   17      0.38      0.00
  -10    2   17      1.81      0.00
   -8    2   17     -1.77      0.00
   -6    2   17      0.26      0.00
   -4    2   17     -1.08      0.00
   -2    2   17      1.79      0.00
    0    2   17     -1.17      0.00
    2    2   17      0.18      0.00
    4    2   17      1.04      0.00
    6    2   17     -0.10      0.00
    8    2   17     -0.85      0.00
   10    2   17     -1.47      0.00
   12    2   17      1.69      0.00
   14    2   17      1.63      0.00
   16    2   17     -3.09      0.00
  -19    3   17     -1.01      0.00
  -17    3   17     -0.77      0.00
  -15    3   17      2.23      0.00
  -13    3   17     -1.31      0.00
  -11    3   17     -0.03      0.00
   -9    3   17     -0.99      0.00
   -7    3   17      1.94      0.00
   -5    3   17     -0.77      0.00
   -3    3   17      0.35      0.00
   -1    3   17     -0.90      0.00
    1    3   17      0.69      0.00
    3    3   17     -0.21      0.00
    5    3   17     -0.36      0.00
    7    3   17     -0.35      0.00
    9    3   17      2.13      0.00
   11    3   17     -0.98      0.00
   13    3   17     -2.08      0.00
   15    3   17      2.47      0.00
  -18    4   17      2.26      0.00
  -16    4   17     -1.69      0.00
  -14    4   17     -1.01      0.00
  -12    4   17      0.74      0.00
  -10    4   17      0.75      0.00
   -8    4   17     -2.23      0.00
   -6    4   17      2.30      0.00
   -4    4   17     -1.08      0.00
   -2    4   17      2.06      0.00
    0    4   17     -2.30      0.00
    2    4   17      0.26      0.00
    4    4   17     -0.77      0.00
    6    4   17      1.45      0.00
    8    4   17      0.24      0.00
   10    4   17     -0.99      0.00
   12    4   17      1.29      0.00
   14    4   17     -0.11      0.00
   16    4   17     -3.66      0.00
  -17    5   17     -0.44      0.00
  -15    5   17      3.36      0.00
  -13    5   17     -1.48      0.00
  -11    5   17     -1.66      0.00
   -9    5   17      0.58      0.00
   -7    5   17      1.23      0.00
   -5    5   17     -0.21      0.00
   -3    5   17     -1.02      0.00
   -1    5   17      0.60      0.00
    1    5   17     -0.04      0.00
    3    5   17      0.78      0.00
    5    5   17     -1.15      0.00
    7    5   17     -1.35      0.00
    9    5   17      3.39      0.00
   11    5   17     -1.20      0.00
   13    5   17     -1.29      0.00
   15    5   17      1.01      0.00
  -18    6   17     -0.33      0.00
  -16    6   17      0.76      0.00
  -14    6   17     -1.91      0.00
  -12    6   17      1.68      0.00
  -10    6   17      1.14      0.00
   -8    6   17     -2.35      0.00
   -6    6   17      1.53      0.00
   -4    6   17     -2.35      0.00
   -2    6   17      2.66      0.00
    0    6   17     -1.24      0.00
    2    6   17      0.72      0.00
    4    6   17     -1.03      0.00
    6    6   17      1.20      0.00
    8    6   17     -0.17      0.00
   10    6   17     -1.63      0.00
   12    6   17      1.20      0.00
   14    6   17      0.99      0.00
  -17    7   17     -1.03      0.00
  -15    7   17      0.36      0.00
  -13    7   17      0.47      0.00
  -11    7   17     -0.76      0.00
   -9    7   17      1.33      0.00
   -7    7   17     -0.50      0.00
   -5    7   17      0.02      0.00
   -3    7   17     -1.04      0.00
   -1    7   17      0.25      0.00
    1    7   17      0.06      0.00
    3    7   17      1.26      0.00
    5    7   17      0.34      0.00
    7    7   17     -1.50      0.00
    9    7   17     -0.17      0.00
   11    7   17     -0.49      0.00
   13    7   17      1.33      0.00
  -16    8   17      1.73      0.00
  -14    8   17     -1.66      0.00
  -12    8   17      0.81      0.00
  -10    8   17      1.77      0.00
   -8    8   17     -2.85      0.00
   -6    8   17      1.65      0.00
   -4    8   17     -1.51      0.00
   -2    8   17      2.57      0.00
    0    8   17     -1.45      0.00
    2    8   17     -0.80      0.00
    4    8   17      1.37      0.00
    6    8   17     -1.86      0.00
    8    8   17      2.65      0.00
   10    8   17     -1.19      0.00
   12    8   17     -1.09      0.00
   14    8   17      1.52      0.00
  -15    9   17     -1.20      0.00
  -13    9   17      1.13      0.00
  -11    9   17     -1.19      0.00
   -9    9   17     -0.55      0.00
   -7    9   17      0.83      0.00
   -5    9   17      0.91      0.00
   -3    9   17      0.23      0.00
   -1    9   17     -2.32      0.00
    1    9   17      2.13      0.00
    3    9   17     -1.71      0.00
    5    9   17      1.32      0.00
    7    9   17      0.59      0.00
    9    9   17     -2.99      0.00
   11    9   17      2.21      0.00
   13    9   17      1.69      0.00
  -14   10   17      0.79      0.00
  -12   10   17     -2.50      0.00
  -10   10   17      1.56      0.00
   -8   10   17     -1.10      0.00
   -6   10   17      1.06      0.00
   -4   10   17     -1.81      0.00
   -2   10   17      2.33      0.00
    0   10   17      0.00      0.00
    2   10   17     -1.92      0.00
    4   10   17      2.75      0.00
    6   10   17     -6.33      0.00
    8   10   17      6.34      0.00
   10   10   17      0.34      0.00
   12   10   17     -2.77      0.00
  -13   11   17      0.54      0.00
  -11   11   17      0.40      0.00
   -9   11   17     -1.01      0.00
   -7   11   17      1.15      0.00
   -5   11   17     -0.14      0.00
   -3   11   17      0.49      0.00
   -1   11   17     -3.03      0.00
    1   11   17      3.88      0.00
    3   11   17     -3.58      0.00
    5   11   17      2.91      0.00
    7   11   17      2.07      0.00
    9   11   17     -6.72      0.00
   11   11   17      3.52      0.00
  -12   12   17     -1.98      0.00
  -10   12   17      2.28      0.00
   -8   12   17      0.32      0.00
   -6   12   17     -1.33      0.00
   -4   12   17     -1.12      0.00
   -2   12   17      1.19      0.00
    0   12   17      0.24      0.00
    2   12   17     -0.50      0.00
    4   12   17      3.04      0.00
    6   12   17     -7.04      0.00
    8   12   17      6.09      0.00
   10   12   17      0.53      0.00
  -11   13   17      1.30      0.00
   -9   13   17     -1.51      0.00
   -7   13   17     -0.28      0.00
   -5   13   17      1.08      0.00
   -3   13   17      0.64      0.00
   -1   13   17     -1.74      0.00
    1   13   17      0.87      0.00
    3   13   17     -2.13      0.00
    5   13   17      3.30      0.00
    7   13   17      2.78      0.00
  -10   14   17      0.11      0.00
   -8   14   17      1.35      0.00
   -6   14   17     -1.70      0.00
   -4   14   17      0.93      0.00
   -2   14   17     -0.59      0.00
    0   14   17      0.94      0.00
    2   14   17      0.70      0.00
    4   14   17     -0.32      0.00
    6   14   17     -4.29      0.00
   -7   15   17     -0.36      0.00
   -5   15   17      1.59      0.00
   -3   15   17      0.09      0.00
   -1   15   17      0.57      0.00
    1   15   17     -2.44      0.00
    3   15   17      0.83      0.00
   -2   16   17     -2.76      0.00
  -16    0   18      4.76      0.00
  -14    0   18     -2.01      0.00
  -12    0   18     -0.59      0.00
  -10    0   18     -0.10      0.00
   -8    0   18     -1.03      0.00
   -4    0   18     -2.34      0.00
   -2    0   18      2.38      0.00
    0    0   18     -2.38      0.00
    2    0   18     -0.18      0.00
    4    0   18      0.03      0.00
    6    0   18      1.25      0.00
    8    0   18     -0.51      0.00
   10    0   18      1.53      0.00
   12    0   18     -1.75      0.00
  -15    1   18     -1.78      0.00
  -13    1   18      1.62      0.00
  -11    1   18     -1.00      0.00
   -9    1   18      0.92      0.00
   -7    1   18     -0.19      0.00
   -5    1   18     -0.25      0.00
   -3    1   18      0.55      0.00
   -1    1   18     -1.47      0.00
    1    1   18      1.52      0.00
    3    1   18     -0.19      0.00
    5    1   18     -0.80      0.00
    7    1   18      0.20      0.00
    9    1   18      1.20      0.00
   11    1   18     -1.74      0.00
   13    1   18      1.08      0.00
  -16    2   18      3.79      0.00
  -14    2   18     -1.27      0.00
  -12    2   18      0.48      0.00
  -10    2   18      0.19      0.00
   -8    2   18     -1.89      0.00
   -6    2   18      2.28      0.00
   -4    2   18     -2.64      0.00
   -2    2   18      2.48      0.00
    0    2   18     -0.86      0.00
    2    2   18      0.28      0.00
    4    2   18     -0.36      0.00
    6    2   18      0.41      0.00
    8    2   18     -1.21      0.00
   10    2   18      1.13      0.00
   12    2   18     -0.37      0.00
  -15    3   18     -0.76      0.00
  -13    3   18      0.33      0.00
  -11    3   18      0.41      0.00
   -9    3   18      1.77      0.00
   -7    3   18     -1.49      0.00
   -5    3   18     -1.62      0.00
   -3    3   18      1.43      0.00
   -1    3   18     -0.34      0.00
    1    3   18      0.50      0.00
    3    3   18      0.28      0.00
    5    3   18      0.44      0.00
    7    3   18     -0.98      0.00
    9    3   18     -0.85      0.00
   11    3   18     -0.32      0.00
   13    3   18      2.02      0.00
  -16    4   18      1.00      0.00
  -14    4   18      0.01      0.00
  -12    4   18      1.04      0.00
  -10    4   18     -0.52      0.00
   -8    4   18     -2.50      0.00
   -4    4   18     -1.22      0.00
   -2    4   18      0.36      0.00
    0    4   18     -0.91      0.00
    2    4   18      1.13      0.00
    4    4   18     -0.89      0.00
    6    4   18     -0.32      0.00
    8    4   18      1.13      0.00
   10    4   18      0.23      0.00
   12    4   18     -1.04      0.00
  -15    5   18     -0.32      0.00
  -13    5   18     -1.20      0.00
  -11    5   18     -0.48      0.00
   -9    5   18      2.02      0.00
   -7    5   18     -0.32      0.00
   -5    5   18     -0.71      0.00
   -3    5   18      0.65      0.00
   -1    5   18      0.15      0.00
    1    5   18     -1.23      0.00
    3    5   18     -0.44      0.00
    5    5   18      2.07      0.00
    7    5   18      0.02      0.00
    9    5   18     -2.18      0.00
   11    5   18      1.61      0.00
  -14    6   18      1.16      0.00
  -12    6   18     -0.59      0.00
  -10    6   18     -0.86      0.00
   -8    6   18     -1.50      0.00
   -4    6   18     -0.44      0.00
   -2    6   18     -0.97      0.00
    0    6   18     -0.53      0.00
    2    6   18      2.29      0.00
    4    6   18     -1.83      0.00
    6    6   18     -2.22      0.00
    8    6   18      3.80      0.00
   10    6   18      0.45      0.00
  -13    7   18     -0.79      0.00
  -11    7   18     -0.87      0.00
   -9    7   18      3.07      0.00
   -7    7   18     -1.43      0.00
   -5    7   18     -1.22      0.00
   -3    7   18      0.06      0.00
   -1    7   18      2.09      0.00
    1    7   18     -1.22      0.00
    3    7   18     -1.48      0.00
    5    7   18      2.51      0.00
    7    7   18      0.77      0.00
    9    7   18     -4.74      0.00
   11    7   18      3.77      0.00
  -12    8   18      0.99      0.00
  -10    8   18     -0.20      0.00
   -8    8   18     -1.81      0.00
   -4    8   18     -0.16      0.00
   -2    8   18     -0.83      0.00
    0    8   18     -0.39      0.00
    2    8   18      2.85      0.00
    4    8   18     -1.22      0.00
    6    8   18     -2.74      0.00
    8    8   18      2.77      0.00
   10    8   18      0.23      0.00
  -13    9   18      0.64      0.00
  -11    9   18     -1.06      0.00
   -9    9   18      3.35      0.00
   -7    9   18     -3.05      0.00
   -3    9   18      0.85      0.00
   -1    9   18      1.26      0.00
    1    9   18     -1.92      0.00
    3    9   18     -0.86      0.00
    5    9   18      2.67      0.00
    7    9   18      1.03      0.00
    9    9   18     -5.17      0.00
  -10   10   18     -1.63      0.00
   -8   10   18     -1.02      0.00
   -6   10   18      2.76      0.00
   -4   10   18     -0.03      0.00
   -2   10   18     -1.98      0.00
    0   10   18     -0.52      0.00
    2   10   18      3.44      0.00
    4   10   18     -2.47      0.00
    6   10   18     -0.57      0.00
    8   10   18      0.60      0.00
   -9   11   18      3.47      0.00
   -7   11   18     -2.18      0.00
   -5   11   18     -0.31      0.00
   -3   11   18      0.97      0.00
   -1   11   18      1.86      0.00
    1   11   18     -2.95      0.00
    3   11   18     -0.21      0.00
    5   11   18      1.85      0.00
   -8   12   18      0.14      0.00
   -6   12   18      1.95      0.00
   -4   12   18     -0.28      0.00
   -2   12   18     -2.63      0.00
    0   12   18      0.43      0.00
    2   12   18      4.54      0.00
    4   12   18     -5.80      0.00
   -5   13   18     -1.56      0.00
   -3   13   18      1.18      0.00
   -1   13   18      2.87      0.00
  -11    1   19      0.33      0.00
   -9    1   19      0.44      0.00
   -7    1   19      0.32      0.00
   -5    1   19      0.39      0.00
   -3    1   19     -0.32      0.00
   -1    1   19     -0.08      0.00
    1    1   19     -1.23      0.00
    3    1   19      0.99      0.00
    5    1   19     -0.37      0.00
    7    1   19      1.16      0.00
    9    1   19     -0.18      0.00
  -12    2   19     -0.32      0.00
  -10    2   19     -1.70      0.00
   -8    2   19      1.00      0.00
   -6    2   19      1.00      0.00
   -4    2   19      0.33      0.00
   -2    2   19     -2.24      0.00
    0    2   19      1.41      0.00
    2    2   19     -0.28      0.00
    4    2   19     -0.14      0.00
    6    2   19      0.07      0.00
    8    2   19      0.03      0.00
  -11    3   19      2.00      0.00
   -9    3   19      0.44      0.00
   -7    3   19     -1.09      0.00
   -5    3   19     -0.90      0.00
   -3    3   19      1.05      0.00
   -1    3   19      0.95      0.00
    1    3   19     -1.13      0.00
    3    3   19      0.42      0.00
    5    3   19     -0.85      0.00
    7    3   19      1.52      0.00
  -12    4   19     -0.87      0.00
  -10    4   19      0.14      0.00
   -8    4   19     -0.82      0.00
   -6    4   19      0.17      0.00
   -4    4   19      0.30      0.00
   -2    4   19     -1.03      0.00
    0    4   19      1.65      0.00
    2    4   19     -0.77      0.00
    4    4   19      1.25      0.00
    6    4   19     -1.82      0.00
    8    4   19     -0.21      0.00
  -11    5   19      2.11      0.00
   -9    5   19     -1.07      0.00
   -7    5   19     -0.18      0.00
   -3    5   19      2.21      0.00
   -1    5   19     -1.09      0.00
    1    5   19      0.91      0.00
    3    5   19     -1.28      0.00
    5    5   19      0.01      0.00
    7    5   19      1.96      0.00
  -10    6   19      1.30      0.00
   -8    6   19     -0.74      0.00
   -6    6   19      1.94      0.00
    0    6   19      0.42      0.00
    2    6   19     -0.86      0.00
    4    6   19      2.78      0.00
    6    6   19     -1.84      0.00
   -9    7   19     -0.59      0.00
   -7    7   19      1.53      0.00
   -5    7   19     -2.07      0.00
   -3    7   19      2.02      0.00
   -1    7   19     -1.68      0.00
    1    7   19      1.79      0.00
    3    7   19     -1.51      0.00
    5    7   19     -0.80      0.00
   -8    8   19     -0.42      0.00
   -6    8   19      1.09      0.00
   -4    8   19      0.04      0.00
   -2    8   19     -1.72      0.00
    0    8   19      1.48      0.00
    2    8   19     -1.06      0.00
    4    8   19      0.81      0.00
   -5    9   19     -2.69      0.00
   -3    9   19      2.47      0.00
   -1    9   19      0.73      0.00
    1    9   19     -0.91      0.00
   -4    0   20      0.86      0.00
   -2    0   20     -2.19      0.00
    0    0   20      2.92      0.00
   -3    1   20      1.86      0.00
   -1    1   20      0.51      0.00
   34    6    0      6.62      0.00
   34    8    0     20.52      0.00
   34   10    0     13.05      0.00
   33   11    0    -15.69      0.00
   32   12    0      6.16      0.00
   34   12    0      1.48      0.00
   33   13    0     -4.55      0.00
   32   14    0      8.62      0.00
   34   14    0     -2.59      0.00
   31   15    0     -5.41      0.00
   33   15    0     -0.95      0.00
   30   16    0     -6.28      0.00
   32   16    0      7.93      0.00
   29   17    0      6.29      0.00
   31   17    0     -2.50      0.00
   28   18    0      0.21      0.00
   30   18    0     -3.75      0.00
   27   19    0     -1.22      0.00
   29   19    0      1.57      0.00
   31   19    0     -1.55      0.00
   26   20    0      1.91      0.00
   28   20    0     -1.71      0.00
   30   20    0      1.10      0.00
   25   21    0     -2.30      0.00
   27   21    0      2.29      0.00
   29   21    0     -0.93      0.00
   24   22    0     -0.24      0.00
   26   22    0      2.22      0.00
   28   22    0     -3.97      0.00
   23   23    0      3.23      0.00
   25   23    0     -3.04      0.00
   27   23    0      2.14      0.00
   22   24    0      1.47      0.00
   24   24    0     -0.90      0.00
   26   24    0      2.34      0.00
   19   25    0      3.96      0.00
   21   25    0     -2.52      0.00
   23   25    0      0.78      0.00
   25   25    0     -1.43      0.00
   18   26    0      2.63      0.00
   20   26    0     -2.98      0.00
   22   26    0      2.88      0.00
   15   27    0      0.30      0.00
   17   27    0     -0.87      0.00
   19   27    0      2.19      0.00
   21   27    0     -1.06      0.00
   14   28    0      4.14      0.00
   16   28    0     -3.68      0.00
   18   28    0      2.50      0.00
   20   28    0     -4.06      0.00
   11   29    0      1.13      0.00
   13   29    0     -2.40      0.00
   15   29    0      0.83      0.00
   17   29    0      0.06      0.00
    4   30    0      5.68      0.00
    6   30    0     -3.46      0.00
    8   30    0      2.14      0.00
   10   30    0     -2.82      0.00
   12   30    0      0.76      0.00
   14   30    0      2.25      0.00
   16   30    0     -2.27      0.00
  -34    6    1     16.59      0.00
   34    6    1     11.13      0.00
  -34    8    1     12.83      0.00
   34    8    1     10.37      0.00
   33    9    1     -2.01      0.00
  -34   10    1     -3.09      0.00
   34   10    1     -1.64      0.00
  -33   11    1     -2.43      0.00
   33   11    1      4.11      0.00
  -34   12    1    -10.26      0.00
  -32   12    1     18.08      0.00
   32   12    1     10.36      0.00
   34   12    1    -10.30      0.00
  -33   13    1     -0.92      0.00
   33   13    1      2.31      0.00
  -34   14    1     -3.12      0.00
  -32   14    1     10.46      0.00
   32   14    1      6.50      0.00
   34   14    1     -4.48      0.00
  -33   15    1     -3.01      0.00
  -31   15    1     -1.19      0.00
   31   15    1      2.20      0.00
   33   15    1     -0.96      0.00
  -32   16    1      0.31      0.00
  -30   16    1     -1.70      0.00
   30   16    1      0.36      0.00
   32   16    1     -2.51      0.00
  -31   17    1      1.86      0.00
  -29   17    1      0.18      0.00
   29   17    1     -7.10      0.00
   31   17    1      5.26      0.00
  -30   18    1      5.57      0.00
  -28   18    1     -7.10      0.00
   28   18    1     -0.91      0.00
   30   18    1      5.35      0.00
  -31   19    1     -0.27      0.00
  -29   19    1     -2.33      0.00
  -27   19    1      3.55      0.00
   27   19    1      1.87      0.00
   29   19    1     -4.05      0.00
   31   19    1      2.41      0.00
  -30   20    1      4.42      0.00
  -28   20    1     -4.63      0.00
  -26   20    1      3.14      0.00
   26   20    1      1.36      0.00
   28   20    1     -1.69      0.00
   30   20    1      1.77      0.00
  -29   21    1     -1.33      0.00
  -27   21    1      3.50      0.00
  -25   21    1     -1.85      0.00
   25   21    1      1.38      0.00
   27   21    1     -0.30      0.00
   29   21    1      0.18      0.00
  -28   22    1     -0.61      0.00
  -26   22    1     -1.46      0.00
  -24   22    1      0.18      0.00
   24   22    1     -3.34      0.00
   26   22    1      1.33      0.00
   28   22    1      0.24      0.00
  -27   23    1      1.42      0.00
  -25   23    1     -0.17      0.00
  -23   23    1     -1.54      0.00
   23   23    1     -0.60      0.00
   25   23    1      0.93      0.00
   27   23    1     -0.94      0.00
  -26   24    1     -1.25      0.00
  -24   24    1      0.91      0.00
  -22   24    1      3.15      0.00
   22   24    1      4.72      0.00
   24   24    1     -1.11      0.00
   26   24    1     -0.30      0.00
  -25   25    1      0.43      0.00
  -23   25    1     -0.12      0.00
  -21   25    1     -2.01      0.00
  -19   25    1      2.34      0.00
   19   25    1      2.48      0.00
   21   25    1     -1.74      0.00
   23   25    1      0.36      0.00
  -22   26    1      3.17      0.00
  -20   26    1     -2.18      0.00
  -18   26    1     -0.43      0.00
   18   26    1     -2.39      0.00
   20   26    1     -1.66      0.00
   22   26    1      2.79      0.00
  -21   27    1     -1.49      0.00
  -19   27    1      3.13      0.00
  -17   27    1      0.09      0.00
  -15   27    1     -3.75      0.00
   15   27    1     -5.20      0.00
   17   27    1      1.16      0.00
   19   27    1      3.56      0.00
   21   27    1     -2.35      0.00
  -20   28    1     -1.04      0.00
  -18   28    1     -1.17      0.00
  -16   28    1      1.92      0.00
  -14   28    1     -1.52      0.00
   14   28    1     -1.58      0.00
   16   28    1      3.68      0.00
   18   28    1     -1.89      0.00
   20   28    1     -0.77      0.00
  -17   29    1     -0.22      0.00
  -15   29    1     -1.41      0.00
  -13   29    1      2.34      0.00
  -11   29    1     -2.48      0.00
   -9   29    1      2.29      0.00
    9   29    1      0.23      0.00
   11   29    1     -0.58      0.00
   13   29    1      2.36      0.00
   15   29    1     -1.30      0.00
   17   29    1     -1.44      0.00
  -16   30    1      2.73      0.00
  -14   30    1     -1.93      0.00
  -12   30    1      0.40      0.00
  -10   30    1      0.46      0.00
   -8   30    1     -1.69      0.00
   -6   30    1      2.00      0.00
   -4   30    1     -1.27      0.00
   -2   30    1      2.65      0.00
    2   30    1      2.18      0.00
    4   30    1     -0.57      0.00
    6   30    1      0.34      0.00
    8   30    1      0.03      0.00
   10   30    1      0.24      0.00
   12   30    1      0.03      0.00
   14   30    1     -1.82      0.00
   16   30    1      2.19      0.00
   34    4    2     -0.79      0.00
  -34    6    2      4.16      0.00
   34    6    2     -4.54      0.00
  -34    8    2    -12.76      0.00
   34    8    2    -13.46      0.00
   33    9    2      7.44      0.00
  -34   10    2     -8.73      0.00
   34   10    2     -8.41      0.00
  -33   11    2     13.52      0.00
   33   11    2      2.90      0.00
  -34   12    2     -2.02      0.00
  -32   12    2     -6.62      0.00
   32   12    2     -1.70      0.00
   34   12    2     -0.07      0.00
  -33   13    2      6.09      0.00
   31   13    2      5.94      0.00
   33   13    2     -3.27      0.00
  -34   14    2      0.08      0.00
  -32   14    2     -4.61      0.00
   32   14    2     -6.03      0.00
   34   14    2      2.14      0.00
  -33   15    2      1.11      0.00
  -31   15    2      2.15      0.00
   31   15    2      6.78      0.00
   33   15    2     -2.64      0.00
  -32   16    2     -4.59      0.00
  -30   16    2      4.92      0.00
   30   16    2      3.24      0.00
   32   16    2     -5.07      0.00
  -31   17    2      1.38      0.00
  -29   17    2     -5.37      0.00
   29   17    2     -4.30      0.00
   31   17    2      2.55      0.00
  -30   18    2      5.01      0.00
  -28   18    2     -1.45      0.00
   28   18    2     -0.28      0.00
   30   18    2      0.90      0.00
  -31   19    2      0.79      0.00
  -29   19    2     -4.21      0.00
  -27   19    2      4.19      0.00
   27   19    2     -0.05      0.00
   29   19    2      1.41      0.00
  -30   20    2      0.05      0.00
  -28   20    2      1.77      0.00
  -26   20    2     -3.12      0.00
   26   20    2      3.54      0.00
   28   20    2     -1.30      0.00
  -29   21    2     -0.38      0.00
  -27   21    2      0.28      0.00
  -25   21    2      0.76      0.00
   25   21    2     -2.91      0.00
   27   21    2     -2.59      0.00
   29   21    2      3.06      0.00
  -28   22    2      4.66      0.00
  -26   22    2     -3.99      0.00
  -24   22    2      2.22      0.00
   24   22    2     -3.89      0.00
   26   22    2      3.70      0.00
   28   22    2     -0.92      0.00
  -27   23    2     -3.04      0.00
  -25   23    2      2.56      0.00
  -23   23    2     -2.48      0.00
   23   23    2      2.16      0.00
   25   23    2      0.19      0.00
   27   23    2     -1.25      0.00
  -26   24    2     -1.75      0.00
  -24   24    2      0.59      0.00
  -22   24    2     -0.58      0.00
   22   24    2     -0.36      0.00
   24   24    2     -1.62      0.00
  -25   25    2      3.02      0.00
  -23   25    2     -1.55      0.00
  -21   25    2      1.45      0.00
  -19   25    2     -1.71      0.00
   19   25    2      0.29      0.00
   21   25    2     -0.35      0.00
   23   25    2      1.86      0.00
  -22   26    2     -0.27      0.00
  -20   26    2     -0.04      0.00
  -18   26    2     -1.78      0.00
   18   26    2     -2.36      0.00
   20   26    2      3.59      0.00
   22   26    2     -1.80      0.00
  -21   27    2      0.42      0.00
  -19   27    2      0.94      0.00
  -17   27    2     -1.80      0.00
  -15   27    2     -0.22      0.00
   15   27    2      0.72      0.00
   17   27    2      0.74      0.00
   19   27    2     -2.20      0.00
   21   27    2     -0.01      0.00
  -20   28    2      1.46      0.00
  -18   28    2     -3.20      0.00
  -16   28    2      6.37      0.00
  -14   28    2     -7.04      0.00
   12   28    2     -2.79      0.00
   14   28    2      0.07      0.00
   16   28    2      0.25      0.00
   18   28    2     -0.73      0.00
   20   28    2      3.78      0.00
  -17   29    2     -1.84      0.00
  -15   29    2     -1.42      0.00
  -13   29    2      3.98      0.00
  -11   29    2     -1.55      0.00
   -9   29    2     -0.83      0.00
    9   29    2     -3.41      0.00
   11   29    2      1.42      0.00
   13   29    2     -0.16      0.00
   15   29    2      0.05      0.00
   17   29    2      1.87      0.00
  -16   30    2      4.12      0.00
  -14   30    2     -3.60      0.00
  -12   30    2      0.00      0.00
  -10   30    2      1.77      0.00
   -8   30    2     -0.87      0.00
   -6   30    2      0.61      0.00
   -4   30    2     -0.85      0.00
   -2   30    2      0.95      0.00
    0   30    2     -3.29      0.00
    2   30    2      6.00      0.00
    4   30    2     -4.08      0.00
    6   30    2      0.38      0.00
    8   30    2     -1.01      0.00
   10   30    2      3.19      0.00
   12   30    2     -2.32      0.00
   14   30    2      0.93      0.00
   16   30    2     -0.78      0.00
   34    2    3      7.58      0.00
   34    4    3      2.88      0.00
  -34    6    3    -18.48      0.00
   34    6    3     -2.97      0.00
  -34    8    3    -13.06      0.00
   34    8    3     -4.52      0.00
  -33    9    3      6.62      0.00
   33    9    3     -2.47      0.00
  -34   10    3      1.95      0.00
   34   10    3     -0.63      0.00
  -33   11    3      4.47      0.00
   33   11    3     -4.20      0.00
  -34   12    3      5.74      0.00
  -32   12    3    -12.62      0.00
   32   12    3     -1.20      0.00
   34   12    3      4.19      0.00
  -33   13    3      1.75      0.00
   31   13    3      1.30      0.00
   33   13    3     -1.29      0.00
  -34   14    3      1.32      0.00
  -32   14    3     -7.13      0.00
   30   14    3     -1.89      0.00
   32   14    3     -0.84      0.00
  -33   15    3      3.54      0.00
  -31   15    3      4.22      0.00
   31   15    3     -2.15      0.00
   33   15    3      0.37      0.00
  -32   16    3     -4.25      0.00
  -30   16    3      1.24      0.00
   30   16    3     -2.44      0.00
   32   16    3      2.37      0.00
  -31   17    3      3.37      0.00
  -29   17    3     -7.87      0.00
   29   17    3      5.57      0.00
   31   17    3     -2.59      0.00
  -30   18    3     -1.73      0.00
  -28   18    3      8.97      0.00
   28   18    3     -1.87      0.00
   30   18    3     -3.45      0.00
  -31   19    3      4.01      0.00
  -29   19    3     -3.65      0.00
  -27   19    3      0.71      0.00
   27   19    3      1.83      0.00
   29   19    3      1.16      0.00
  -30   20    3     -3.22      0.00
  -28   20    3      4.68      0.00
  -26   20    3     -4.43      0.00
   26   20    3      1.95      0.00
   28   20    3     -1.34      0.00
  -29   21    3     -0.28      0.00
  -27   21    3     -1.36      0.00
  -25   21    3     -0.07      0.00
   25   21    3     -6.20      0.00
   27   21    3      3.52      0.00
  -28   22    3      0.54      0.00
  -26   22    3      2.24      0.00
  -24   22    3     -0.19      0.00
   24   22    3      3.61      0.00
   26   22    3     -0.74      0.00
  -27   23    3     -1.00      0.00
  -25   23    3     -1.76      0.00
  -23   23    3      3.47      0.00
   23   23    3      2.48      0.00
   25   23    3     -3.88      0.00
  -26   24    3      1.83      0.00
  -24   24    3     -0.83      0.00
  -22   24    3     -4.12      0.00
   20   24    3      3.77      0.00
   22   24    3     -6.81      0.00
   24   24    3      2.52      0.00
  -23   25    3      2.44      0.00
  -21   25    3      1.47      0.00
  -19   25    3     -3.82      0.00
   19   25    3     -6.37      0.00
   21   25    3      1.22      0.00
   23   25    3      1.14      0.00
  -22   26    3     -3.99      0.00
  -20   26    3      4.01      0.00
  -18   26    3     -2.23      0.00
   18   26    3      3.15      0.00
   20   26    3      2.80      0.00
   22   26    3     -3.34      0.00
  -21   27    3     -0.41      0.00
  -19   27    3     -1.78      0.00
  -17   27    3      0.75      0.00
  -15   27    3      1.50      0.00
   15   27    3      3.06      0.00
   17   27    3      1.35      0.00
   19   27    3     -4.39      0.00
   21   27    3      2.83      0.00
  -20   28    3      1.80      0.00
  -18   28    3     -1.10      0.00
  -16   28    3      2.47      0.00
  -14   28    3     -2.66      0.00
  -12   28    3      1.09      0.00
   12   28    3     -0.49      0.00
   14   28    3      3.83      0.00
   16   28    3     -5.53      0.00
   18   28    3      1.78      0.00
  -17   29    3     -1.73      0.00
  -15   29    3      0.67      0.00
  -13   29    3      0.58      0.00
  -11   29    3     -0.71      0.00
   -9   29    3      1.31      0.00
    9   29    3     -0.96      0.00
   11   29    3      1.29      0.00
   13   29    3     -2.11      0.00
   15   29    3     -0.06      0.00
   17   29    3      2.69      0.00
  -16   30    3      0.47      0.00
  -14   30    3     -1.32      0.00
  -12   30    3      1.38      0.00
  -10   30    3     -0.36      0.00
   -8   30    3     -0.19      0.00
   -6   30    3      1.18      0.00
   -4   30    3     -1.67      0.00
   -2   30    3     -0.54      0.00
    0   30    3      1.43      0.00
    2   30    3      0.30      0.00
    4   30    3     -0.06      0.00
    6   30    3     -0.90      0.00
    8   30    3      0.19      0.00
   10   30    3      0.45      0.00
   12   30    3     -1.86      0.00
   14   30    3      2.91      0.00
  -34    0    4    -19.48      0.00
   34    0    4      5.73      0.00
   34    2    4      3.06      0.00
  -34    4    4    -15.78      0.00
   34    4    4     -2.21      0.00
  -34    6    4     -3.08      0.00
   34    6    4     -1.75      0.00
   33    7    4     -1.37      0.00
  -34    8    4      7.09      0.00
   34    8    4      1.86      0.00
  -33    9    4      4.36      0.00
   33    9    4     -0.03      0.00
  -34   10    4      4.11      0.00
   32   10    4     -0.55      0.00
   34   10    4     -0.46      0.00
  -33   11    4     -1.95      0.00
   33   11    4      0.83      0.00
  -34   12    4     -0.12      0.00
  -32   12    4      0.87      0.00
   32   12    4      3.70      0.00
   34   12    4     -2.63      0.00
  -33   13    4      0.61      0.00
  -31   13    4     -4.43      0.00
   31   13    4     -1.62      0.00
   33   13    4      1.38      0.00
  -34   14    4     -2.71      0.00
  -32   14    4     -0.63      0.00
   30   14    4     -6.24      0.00
   32   14    4      4.27      0.00
  -33   15    4      6.00      0.00
  -31   15    4     -6.43      0.00
   29   15    4      0.96      0.00
   31   15    4      0.15      0.00
  -32   16    4      0.60      0.00
  -30   16    4      5.15      0.00
   28   16    4      3.88      0.00
   30   16    4     -3.62      0.00
   32   16    4      1.89      0.00
  -31   17    4     -6.62      0.00
  -29   17    4      4.58      0.00
   27   17    4     -0.07      0.00
   29   17    4      0.42      0.00
   31   17    4      0.51      0.00
  -30   18    4      0.63      0.00
  -28   18    4     -4.81      0.00
   28   18    4      3.96      0.00
   30   18    4     -1.31      0.00
  -29   19    4      5.32      0.00
  -27   19    4     -1.83      0.00
   27   19    4     -1.84      0.00
   29   19    4     -0.54      0.00
  -28   20    4     -4.42      0.00
  -26   20    4      4.41      0.00
   26   20    4     -8.38      0.00
   28   20    4      4.28      0.00
  -29   21    4      1.97      0.00
  -27   21    4     -1.18      0.00
  -25   21    4     -1.17      0.00
   25   21    4     10.30      0.00
   27   21    4     -1.37      0.00
  -28   22    4     -4.21      0.00
  -26   22    4      5.47      0.00
  -24   22    4     -3.22      0.00
   22   22    4     -1.60      0.00
   24   22    4      5.78      0.00
   26   22    4     -7.19      0.00
  -27   23    4      1.51      0.00
  -25   23    4     -1.52      0.00
  -23   23    4      1.28      0.00
   21   23    4      9.24      0.00
   23   23    4     -8.14      0.00
   25   23    4      3.50      0.00
  -24   24    4     -1.65      0.00
  -22   24    4      0.91      0.00
  -20   24    4     -0.82      0.00
   20   24    4      3.67      0.00
   22   24    4     -0.77      0.00
   24   24    4      2.59      0.00
  -23   25    4      0.86      0.00
  -21   25    4      0.20      0.00
  -19   25    4      0.49      0.00
   19   25    4     -5.05      0.00
   21   25    4      1.39      0.00
   23   25    4     -1.91      0.00
  -22   26    4      0.37      0.00
  -20   26    4     -0.39      0.00
  -18   26    4      1.27      0.00
   16   26    4      0.54      0.00
   18   26    4     -3.78      0.00
   20   26    4      1.10      0.00
   22   26    4     -1.46      0.00
  -21   27    4      0.56      0.00
  -19   27    4     -1.15      0.00
  -17   27    4      0.36      0.00
  -15   27    4      0.73      0.00
   15   27    4     -9.42      0.00
   17   27    4      6.47      0.00
   19   27    4     -0.72      0.00
  -18   28    4      2.90      0.00
  -16   28    4     -3.51      0.00
  -14   28    4      2.83      0.00
  -12   28    4     -0.48      0.00
   12   28    4     -4.35      0.00
   14   28    4      2.70      0.00
   16   28    4      1.62      0.00
   18   28    4     -4.09      0.00
  -17   29    4      0.81      0.00
  -15   29    4      1.50      0.00
  -13   29    4     -1.74      0.00
  -11   29    4     -1.87      0.00
   -9   29    4      3.46      0.00
   -7   29    4     -2.21      0.00
    7   29    4      0.24      0.00
    9   29    4      0.88      0.00
   11   29    4     -1.42      0.00
   13   29    4      4.28      0.00
   15   29    4     -5.96      0.00
   17   29    4      1.84      0.00
  -14   30    4      1.36      0.00
  -12   30    4      0.45      0.00
  -10   30    4     -0.05      0.00
   -8   30    4     -1.49      0.00
   -6   30    4      2.13      0.00
   -4   30    4     -1.63      0.00
   -2   30    4     -0.26      0.00
    0   30    4      2.84      0.00
    2   30    4     -3.24      0.00
    4   30    4      0.78      0.00
    6   30    4      1.04      0.00
    8   30    4     -0.62      0.00
   10   30    4      0.68      0.00
   12   30    4     -1.66      0.00
   14   30    4      0.46      0.00
  -34    2    5      1.04      0.00
   34    2    5     -2.83      0.00
   33    3    5      4.54      0.00
  -34    4    5      9.99      0.00
   34    4    5     -3.08      0.00
   33    5    5      3.34      0.00
  -34    6    5     13.41      0.00
   34    6    5     -3.05      0.00
  -33    7    5      2.52      0.00
   33    7    5      1.00      0.00
  -34    8    5      8.29      0.00
   32    8    5      0.91      0.00
   34    8    5     -1.89      0.00
  -33    9    5     -4.76      0.00
   33    9    5      1.64      0.00
  -34   10    5     -0.93      0.00
  -32   10    5      0.21      0.00
   32   10    5     -1.29      0.00
   34   10    5      0.52      0.00
  -33   11    5     -2.92      0.00
   31   11    5      3.61      0.00
   33   11    5      0.65      0.00
  -34   12    5     -0.71      0.00
  -32   12    5      2.83      0.00
   32   12    5     -3.31      0.00
  -33   13    5     -0.25      0.00
  -31   13    5      0.38      0.00
   31   13    5      4.03      0.00
   33   13    5     -0.32      0.00
  -32   14    5     -0.05      0.00
  -30   14    5     -1.22      0.00
   30   14    5      0.87      0.00
   32   14    5     -3.25      0.00
  -33   15    5     -1.69      0.00
  -31   15    5     -2.24      0.00
   29   15    5     -1.63      0.00
   31   15    5      1.14      0.00
  -32   16    5      4.39      0.00
  -30   16    5     -1.85      0.00
   28   16    5      1.97      0.00
   30   16    5      0.53      0.00
  -31   17    5     -4.05      0.00
  -29   17    5      8.83      0.00
   27   17    5     -4.93      0.00
   29   17    5      1.27      0.00
   31   17    5     -1.68      0.00
  -30   18    5     -2.82      0.00
  -28   18    5     -2.96      0.00
   26   18    5     -2.66      0.00
   28   18    5      2.15      0.00
   30   18    5      0.57      0.00
  -29   19    5      7.35      0.00
  -27   19    5     -7.39      0.00
   25   19    5      8.29      0.00
   27   19    5     -4.97      0.00
   29   19    5      3.43      0.00
  -28   20    5     -2.50      0.00
  -26   20    5      5.80      0.00
  -22   20    5     13.54      0.00
   24   20    5     -3.77      0.00
   26   20    5     -2.01      0.00
   28   20    5      1.70      0.00
  -27   21    5     -3.59      0.00
  -25   21    5      3.95      0.00
   23   21    5     -4.48      0.00
   25   21    5      5.20      0.00
   27   21    5     -3.14      0.00
  -26   22    5      0.97      0.00
  -24   22    5     -5.47      0.00
   22   22    5      5.10      0.00
   24   22    5     -0.20      0.00
   26   22    5      0.09      0.00
  -25   23    5      3.23      0.00
  -23   23    5     -2.13      0.00
  -21   23    5     -4.63      0.00
   21   23    5     -2.32      0.00
   23   23    5     -0.88      0.00
   25   23    5      1.13      0.00
  -24   24    5     -2.68      0.00
  -22   24    5      7.13      0.00
  -20   24    5     -6.93      0.00
   20   24    5     -2.33      0.00
   22   24    5      1.91      0.00
   24   24    5     -0.26      0.00
  -23   25    5     -2.11      0.00
  -21   25    5     -3.76      0.00
  -19   25    5      6.92      0.00
   17   25    5     -4.83      0.00
   19   25    5      5.83      0.00
   21   25    5      0.28      0.00
   23   25    5      0.05      0.00
  -22   26    5      4.80      0.00
  -20   26    5     -3.92      0.00
  -18   26    5      1.95      0.00
  -16   26    5     -2.29      0.00
   16   26    5      6.78      0.00
   18   26    5     -2.50      0.00
   20   26    5     -0.44      0.00
  -21   27    5     -0.97      0.00
  -19   27    5      2.77      0.00
  -17   27    5     -2.47      0.00
  -15   27    5      1.87      0.00
  -13   27    5     -3.26      0.00
   13   27    5      4.17      0.00
   15   27    5     -1.07      0.00
   17   27    5     -1.73      0.00
   19   27    5      1.66      0.00
  -18   28    5      0.52      0.00
  -16   28    5     -2.86      0.00
  -14   28    5      3.11      0.00
  -12   28    5     -0.52      0.00
  -10   28    5      0.04      0.00
   10   28    5     -1.19      0.00
   12   28    5      0.24      0.00
   14   28    5     -2.87      0.00
   16   28    5      4.89      0.00
   18   28    5     -2.24      0.00
  -17   29    5      0.60      0.00
  -15   29    5      1.41      0.00
  -13   29    5     -2.92      0.00
  -11   29    5      2.13      0.00
   -9   29    5     -2.52      0.00
   -7   29    5      2.86      0.00
   -5   29    5     -0.02      0.00
    3   29    5      2.48      0.00
    5   29    5      1.12      0.00
    7   29    5     -2.57      0.00
    9   29    5      0.19      0.00
   11   29    5      0.70      0.00
   13   29    5      0.90      0.00
   15   29    5     -0.57      0.00
  -14   30    5      0.39      0.00
  -12   30    5     -0.14      0.00
  -10   30    5     -0.49      0.00
   -8   30    5      1.17      0.00
   -6   30    5     -2.63      0.00
   -4   30    5      3.77      0.00
   -2   30    5     -1.96      0.00
    0   30    5     -0.19      0.00
    2   30    5      0.82      0.00
    4   30    5     -1.59      0.00
    6   30    5      0.36      0.00
    8   30    5      2.13      0.00
   10   30    5     -1.69      0.00
   12   30    5      1.04      0.00
  -34    0    6     -1.81      0.00
  -32    0    6     -7.74      0.00
   34    0    6     -6.26      0.00
   33    1    6      5.50      0.00
  -34    2    6     -4.15      0.00
   34    2    6     -4.98      0.00
   33    3    6      4.47      0.00
  -34    4    6     -7.96      0.00
   34    4    6     -4.46      0.00
   33    5    6      5.36      0.00
  -34    6    6    -12.68      0.00
   32    6    6      2.38      0.00
   34    6    6     -4.62      0.00
  -33    7    6     -7.67      0.00
   33    7    6      3.86      0.00
  -34    8    6    -11.59      0.00
   32    8    6      1.35      0.00
   34    8    6     -4.33      0.00
  -33    9    6     -0.63      0.00
   31    9    6     -2.13      0.00
   33    9    6      2.59      0.00
  -34   10    6     -7.14      0.00
  -32   10    6      5.82      0.00
   32   10    6     -0.40      0.00
   34   10    6     -0.73      0.00
  -33   11    6      3.21      0.00
   31   11    6     -2.16      0.00
   33   11    6      2.66      0.00
  -34   12    6     -1.78      0.00
  -32   12    6      2.34      0.00
   30   12    6      2.50      0.00
   32   12    6     -2.21      0.00
  -33   13    6      0.52      0.00
  -31   13    6      0.21      0.00
   29   13    6      2.10      0.00
   31   13    6     -3.28      0.00
  -32   14    6      2.44      0.00
  -30   14    6     -7.45      0.00
   28   14    6     -1.71      0.00
   30   14    6      2.74      0.00
   32   14    6     -1.24      0.00
  -31   15    6      3.88      0.00
  -29   15    6      2.56      0.00
   29   15    6      3.59      0.00
   31   15    6     -4.05      0.00
  -32   16    6      2.29      0.00
  -30   16    6     -8.40      0.00
   28   16    6     -0.22      0.00
   30   16    6      0.70      0.00
  -31   17    6      5.22      0.00
  -29   17    6      0.83      0.00
   27   17    6     -1.72      0.00
   29   17    6      0.84      0.00
  -30   18    6     -4.79      0.00
  -28   18    6      3.79      0.00
   26   18    6      3.64      0.00
   28   18    6     -2.37      0.00
  -29   19    6      1.20      0.00
  -27   19    6     -3.69      0.00
   25   19    6     -5.26      0.00
   27   19    6      2.29      0.00
  -28   20    6      2.11      0.00
  -26   20    6      2.01      0.00
   24   20    6     -3.56      0.00
   26   20    6      5.70      0.00
   28   20    6     -2.48      0.00
  -27   21    6     -1.96      0.00
  -25   21    6      0.74      0.00
  -23   21    6      1.55      0.00
   23   21    6      9.44      0.00
   25   21    6    -10.53      0.00
   27   21    6      4.75      0.00
  -26   22    6     -0.45      0.00
  -24   22    6     -0.30      0.00
  -22   22    6     -1.18      0.00
   22   22    6     -4.54      0.00
   24   22    6     -1.80      0.00
   26   22    6      4.52      0.00
  -25   23    6     -0.55      0.00
  -23   23    6      2.52      0.00
  -21   23    6     -0.76      0.00
   19   23    6     -2.93      0.00
   21   23    6     -2.37      0.00
   23   23    6      8.50      0.00
  -24   24    6      1.17      0.00
  -22   24    6     -3.08      0.00
  -20   24    6      4.00      0.00
   18   24    6      4.03      0.00
   20   24    6     -1.00      0.00
   22   24    6     -2.57      0.00
  -23   25    6      1.41      0.00
  -21   25    6     -1.48      0.00
  -19   25    6     -1.51      0.00
  -17   25    6      1.39      0.00
   17   25    6     -5.79      0.00
   19   25    6     -0.43      0.00
   21   25    6      0.47      0.00
  -22   26    6     -2.62      0.00
  -20   26    6      3.49      0.00
  -18   26    6     -1.94      0.00
  -16   26    6      0.99      0.00
   14   26    6     -6.14      0.00
   16   26    6     -4.04      0.00
   18   26    6      5.91      0.00
   20   26    6     -0.14      0.00
  -19   27    6     -0.03      0.00
  -17   27    6      1.37      0.00
  -15   27    6     -0.90      0.00
  -13   27    6     -0.35      0.00
   11   27    6      1.69      0.00
   13   27    6     -6.51      0.00
   15   27    6      8.23      0.00
   17   27    6     -4.17      0.00
   19   27    6     -0.23      0.00
  -18   28    6     -3.23      0.00
  -16   28    6      1.85      0.00
  -14   28    6     -0.78      0.00
  -12   28    6     -0.14      0.00
  -10   28    6      1.41      0.00
   -8   28    6      0.29      0.00
    8   28    6      4.15      0.00
   10   28    6     -5.09      0.00
   12   28    6      4.35      0.00
   14   28    6     -0.95      0.00
   16   28    6     -2.69      0.00
  -15   29    6     -1.58      0.00
  -13   29    6      1.51      0.00
  -11   29    6      0.99      0.00
   -9   29    6     -2.82      0.00
   -7   29    6      2.92      0.00
   -5   29    6     -1.74      0.00
   -3   29    6     -0.55      0.00
   -1   29    6      0.91      0.00
    1   29    6      0.95      0.00
    3   29    6     -1.87      0.00
    5   29    6      1.90      0.00
    7   29    6     -1.31      0.00
    9   29    6     -0.03      0.00
   11   29    6      1.17      0.00
   13   29    6     -3.72      0.00
   15   29    6      5.13      0.00
  -12   30    6     -0.08      0.00
  -10   30    6      0.22      0.00
   -8   30    6      0.81      0.00
   -6   30    6     -1.70      0.00
   -4   30    6      1.72      0.00
   -2   30    6     -1.13      0.00
    0   30    6     -0.23      0.00
    2   30    6      1.45      0.00
    4   30    6     -0.81      0.00
    6   30    6     -0.36      0.00
    8   30    6      0.16      0.00
   10   30    6     -0.27      0.00
   12   30    6      1.15      0.00
  -33    1    7     -1.06      0.00
   33    1    7     -0.04      0.00
  -34    2    7     -3.89      0.00
   32    2    7     -0.58      0.00
   34    2    7      0.18      0.00
  -33    3    7     -3.05      0.00
   33    3    7     -0.54      0.00
  -34    4    7     -5.40      0.00
   32    4    7     -2.00      0.00
   34    4    7      1.05      0.00
  -33    5    7     -3.46      0.00
   31    5    7      1.09      0.00
   33    5    7     -1.18      0.00
  -34    6    7     -3.52      0.00
   32    6    7     -0.43      0.00
   34    6    7      1.82      0.00
  -33    7    7      0.37      0.00
   31    7    7     -0.98      0.00
   33    7    7     -1.04      0.00
  -34    8    7      1.53      0.00
  -32    8    7     -2.32      0.00
   32    8    7      1.07      0.00
   34    8    7      2.30      0.00
  -33    9    7      5.98      0.00
   31    9    7     -4.56      0.00
   33    9    7     -1.36      0.00
  -34   10    7      3.55      0.00
  -32   10    7     -5.24      0.00
   30   10    7     -2.53      0.00
   32   10    7      4.70      0.00
  -33   11    7      2.13      0.00
  -31   11    7     -4.16      0.00
   31   11    7     -6.93      0.00
   33   11    7     -1.16      0.00
  -32   12    7     -0.87      0.00
  -30   12    7      0.87      0.00
   30   12    7     -3.61      0.00
   32   12    7      5.95      0.00
  -33   13    7      0.48      0.00
  -31   13    7     -1.80      0.00
   29   13    7     10.30      0.00
   31   13    7     -5.80      0.00
  -32   14    7      2.97      0.00
  -30   14    7     -0.92      0.00
   28   14    7     -7.46      0.00
   30   14    7     -0.69      0.00
  -31   15    7     -0.41      0.00
  -29   15    7     -1.82      0.00
   27   15    7      1.08      0.00
   29   15    7      3.27      0.00
   31   15    7     -1.47      0.00
  -30   16    7      2.41      0.00
  -28   16    7     -0.61      0.00
   26   16    7      6.58      0.00
   28   16    7     -5.99      0.00
   30   16    7      1.13      0.00
  -31   17    7      1.31      0.00
  -29   17    7     -4.74      0.00
  -27   17    7     10.39      0.00
   25   17    7    -10.56      0.00
   27   17    7      7.82      0.00
   29   17    7     -1.26      0.00
  -30   18    7      3.07      0.00
  -28   18    7     -1.66      0.00
  -26   18    7     -4.70      0.00
   24   18    7      1.56      0.00
   26   18    7      3.41      0.00
   28   18    7     -4.66      0.00
  -29   19    7     -4.91      0.00
  -27   19    7      5.60      0.00
  -25   19    7     -6.22      0.00
   23   19    7      7.04      0.00
   25   19    7     -8.98      0.00
   27   19    7      5.46      0.00
  -28   20    7      0.98      0.00
  -26   20    7     -4.37      0.00
  -24   20    7      8.51      0.00
   22   20    7     -6.36      0.00
   24   20    7      5.16      0.00
   26   20    7      0.59      0.00
  -27   21    7      2.92      0.00
  -25   21    7     -1.75      0.00
  -23   21    7     -1.87      0.00
   21   21    7      1.81      0.00
   23   21    7      1.91      0.00
   25   21    7     -4.01      0.00
  -26   22    7     -2.94      0.00
  -24   22    7      6.47      0.00
  -22   22    7     -9.09      0.00
   20   22    7      6.54      0.00
   22   22    7     -4.46      0.00
   24   22    7      1.01      0.00
  -25   23    7     -0.36      0.00
  -23   23    7     -2.09      0.00
  -21   23    7      7.75      0.00
   19   23    7     -3.00      0.00
   21   23    7      1.52      0.00
   23   23    7     -1.92      0.00
  -24   24    7      3.97      0.00
  -22   24    7     -5.12      0.00
  -20   24    7      2.76      0.00
  -18   24    7      2.31      0.00
   16   24    7     -2.41      0.00
   18   24    7     -2.24      0.00
   20   24    7      0.50      0.00
   22   24    7      1.52      0.00
  -21   25    7      5.25      0.00
  -19   25    7     -5.85      0.00
  -17   25    7      2.14      0.00
   15   25    7      0.23      0.00
   17   25    7      3.67      0.00
   19   25    7     -2.39      0.00
   21   25    7     -0.58      0.00
  -20   26    7     -0.04      0.00
  -18   26    7      0.93      0.00
  -16   26    7      0.61      0.00
  -14   26    7     -0.69      0.00
   12   26    7      0.81      0.00
   14   26    7      3.77      0.00
   16   26    7     -3.24      0.00
   18   26    7      0.09      0.00
  -19   27    7     -2.01      0.00
  -17   27    7      1.50      0.00
  -15   27    7     -1.29      0.00
  -13   27    7      1.40      0.00
  -11   27    7     -1.37      0.00
    9   27    7      2.53      0.00
   11   27    7      1.80      0.00
   13   27    7     -3.80      0.00
   15   27    7     -0.28      0.00
   17   27    7      1.64      0.00
  -16   28    7     -0.25      0.00
  -14   28    7     -0.50      0.00
  -12   28    7      0.35      0.00
  -10   28    7     -1.43      0.00
   -8   28    7      0.35      0.00
   -6   28    7      1.95      0.00
    4   28    7      0.24      0.00
    6   28    7      1.56      0.00
    8   28    7     -1.04      0.00
   10   28    7     -1.56      0.00
   12   28    7      1.40      0.00
   14   28    7      1.66      0.00
   16   28    7     -3.38      0.00
  -15   29    7     -0.24      0.00
  -13   29    7      0.55      0.00
  -11   29    7      0.04      0.00
   -9   29    7      1.51      0.00
   -7   29    7     -2.50      0.00
   -5   29    7     -0.49      0.00
   -3   29    7      2.30      0.00
   -1   29    7     -0.26      0.00
    1   29    7     -0.66      0.00
    3   29    7      0.28      0.00
    5   29    7     -0.93      0.00
    7   29    7      0.14      0.00
    9   29    7      1.56      0.00
   11   29    7     -0.29      0.00
   13   29    7     -2.08      0.00
  -12   30    7     -0.19      0.00
  -10   30    7     -0.61      0.00
   -8   30    7     -0.26      0.00
   -6   30    7      1.67      0.00
   -4   30    7     -1.73      0.00
   -2   30    7     -0.50      0.00
    0   30    7      1.92      0.00
    2   30    7     -0.84      0.00
    4   30    7     -0.12      0.00
    6   30    7      0.89      0.00
    8   30    7     -1.06      0.00
   10   30    7     -1.02      0.00
  -34    0    8     -0.56      0.00
   32    0    8     -5.00      0.00
   34    0    8      3.40      0.00
  -33    1    8     -2.09      0.00
   31    1    8      6.06      0.00
   33    1    8     -1.89      0.00
  -34    2    8      2.66      0.00
   32    2    8     -4.71      0.00
   34    2    8      2.59      0.00
  -33    3    8     -4.04      0.00
   31    3    8      4.39      0.00
   33    3    8     -0.59      0.00
  -34    4    8      9.84      0.00
   32    4    8     -4.84      0.00
   34    4    8      3.67      0.00
  -33    5    8     -1.24      0.00
   31    5    8      2.60      0.00
   33    5    8      0.13      0.00
  -34    6    8     11.16      0.00
  -32    6    8    -11.68      0.00
   32    6    8     -4.45      0.00
  -33    7    8     -0.25      0.00
   31    7    8      3.55      0.00
   33    7    8     -0.81      0.00
  -34    8    8      5.18      0.00
  -32    8    8     -6.57      0.00
   30    8    8     -0.33      0.00
   32    8    8     -3.47      0.00
  -33    9    8     -1.02      0.00
  -31    9    8     -1.38      0.00
   31    9    8      2.02      0.00
   33    9    8     -0.61      0.00
  -34   10    8      2.66      0.00
  -32   10    8      2.52      0.00
   30   10    8      1.57      0.00
   32   10    8     -1.68      0.00
  -33   11    8     -3.03      0.00
  -31   11    8     -1.54      0.00
   29   11    8     -0.94      0.00
   31   11    8      1.31      0.00
  -32   12    8      2.63      0.00
  -30   12    8      0.27      0.00
   28   12    8     -6.04      0.00
   30   12    8      3.89      0.00
  -31   13    8     -1.71      0.00
  -29   13    8      2.55      0.00
   27   13    8      5.54      0.00
   29   13    8     -1.61      0.00
   31   13    8     -1.39      0.00
  -32   14    8      1.86      0.00
  -30   14    8      2.62      0.00
   28   14    8     -8.11      0.00
   30   14    8      4.24      0.00
  -31   15    8     -2.26      0.00
  -29   15    8     -0.03      0.00
   27   15    8      4.44      0.00
   29   15    8     -0.55      0.00
  -30   16    8      2.99      0.00
  -28   16    8     -6.70      0.00
   26   16    8      5.29      0.00
   28   16    8     -7.37      0.00
  -29   17    8      1.31      0.00
  -27   17    8      2.30      0.00
   25   17    8     -5.51      0.00
   27   17    8      2.91      0.00
  -28   18    8     -1.27      0.00
  -26   18    8      2.92      0.00
   24   18    8     -0.78      0.00
   26   18    8      3.67      0.00
   28   18    8     -2.91      0.00
  -27   19    8      1.44      0.00
  -25   19    8     -2.35      0.00
   23   19    8     -0.63      0.00
   25   19    8     -0.65      0.00
   27   19    8      0.36      0.00
  -26   20    8     -1.97      0.00
  -24   20    8      2.80      0.00
   22   20    8      3.24      0.00
   24   20    8     -0.57      0.00
   26   20    8      0.22      0.00
  -25   21    8     -0.38      0.00
  -23   21    8      0.56      0.00
   21   21    8     -4.03      0.00
   23   21    8     -0.33      0.00
   25   21    8      2.23      0.00
  -24   22    8      0.56      0.00
  -22   22    8     -0.55      0.00
  -20   22    8      1.13      0.00
   20   22    8     -3.07      0.00
   22   22    8      5.53      0.00
   24   22    8     -1.45      0.00
  -23   23    8     -1.56      0.00
  -21   23    8     -1.04      0.00
  -19   23    8      0.17      0.00
   17   23    8     -5.11      0.00
   19   23    8     10.96      0.00
   21   23    8     -4.56      0.00
   23   23    8     -2.09      0.00
  -22   24    8      2.86      0.00
  -20   24    8     -1.57      0.00
  -18   24    8     -1.21      0.00
   16   24    8      7.66      0.00
   18   24    8     -3.37      0.00
   20   24    8     -1.30      0.00
  -21   25    8     -0.83      0.00
  -19   25    8      1.88      0.00
  -17   25    8      0.58      0.00
  -15   25    8     -3.85      0.00
   13   25    8      2.37      0.00
   15   25    8     -1.65      0.00
   17   25    8     -3.20      0.00
   19   25    8      4.50      0.00
  -20   26    8     -1.98      0.00
  -18   26    8     -0.24      0.00
  -16   26    8      0.28      0.00
  -14   26    8      0.02      0.00
  -12   26    8      0.88      0.00
   10   26    8     -0.92      0.00
   12   26    8     -1.45      0.00
   14   26    8      0.29      0.00
   16   26    8      3.62      0.00
   18   26    8     -2.67      0.00
  -17   27    8     -0.93      0.00
  -15   27    8     -0.03      0.00
  -13   27    8      0.95      0.00
  -11   27    8     -2.76      0.00
   -9   27    8      3.93      0.00
    7   27    8      1.75      0.00
    9   27    8     -1.62      0.00
   11   27    8      1.03      0.00
   13   27    8      1.03      0.00
   15   27    8     -0.53      0.00
  -16   28    8      0.30      0.00
  -14   28    8     -1.25      0.00
  -12   28    8      1.49      0.00
  -10   28    8     -1.07      0.00
   -8   28    8     -1.25      0.00
   -6   28    8      2.40      0.00
   -4   28    8      0.60      0.00
   -2   28    8     -2.83      0.00
    0   28    8      1.50      0.00
    2   28    8     -1.09      0.00
    4   28    8      1.96      0.00
    6   28    8     -1.43      0.00
    8   28    8      0.48      0.00
   10   28    8      0.34      0.00
   12   28    8     -0.41      0.00
   14   28    8     -0.97      0.00
  -13   29    8     -0.49      0.00
  -11   29    8     -1.96      0.00
   -9   29    8      2.78      0.00
   -7   29    8     -1.24      0.00
   -5   29    8     -0.16      0.00
   -3   29    8      0.64      0.00
   -1   29    8     -0.17      0.00
    1   29    8     -0.96      0.00
    3   29    8      1.33      0.00
    5   29    8     -1.17      0.00
    7   29    8      1.08      0.00
    9   29    8     -0.93      0.00
   11   29    8      1.07      0.00
  -10   30    8     -0.68      0.00
   -8   30    8     -1.83      0.00
   -6   30    8      1.72      0.00
   -4   30    8      0.62      0.00
   -2   30    8     -0.86      0.00
    0   30    8      0.54      0.00
    2   30    8     -1.76      0.00
    4   30    8      1.79      0.00
    6   30    8     -0.99      0.00
    8   30    8      1.59      0.00
  -33    1    9     -1.20      0.00
   31    1    9     -0.75      0.00
   33    1    9      0.99      0.00
  -34    2    9      4.96      0.00
  -32    2    9     -7.87      0.00
   30    2    9     -0.93      0.00
   32    2    9      0.82      0.00
  -33    3    9     -2.31      0.00
   31    3    9     -0.97      0.00
   33    3    9      0.28      0.00
  -34    4    9      3.62      0.00
  -32    4    9     -8.42      0.00
   30    4    9     -1.53      0.00
   32    4    9      0.61      0.00
  -33    5    9      0.01      0.00
   31    5    9     -0.13      0.00
   33    5    9     -0.04      0.00
  -34    6    9      1.17      0.00
  -32    6    9     -2.22      0.00
   30    6    9     -0.42      0.00
   32    6    9      0.18      0.00
  -33    7    9     -0.10      0.00
  -31    7    9     -1.33      0.00
   31    7    9      2.01      0.00
  -34    8    9     -3.72      0.00
  -32    8    9      3.29      0.00
   30    8    9      4.34      0.00
   32    8    9     -2.32      0.00
  -33    9    9     -2.60      0.00
  -31    9    9      0.22      0.00
   29    9    9     -9.21      0.00
   31    9    9      1.65      0.00
  -32   10    9      2.58      0.00
  -30   10    9     -0.70      0.00
   28   10    9     -2.74      0.00
   30   10    9      6.42      0.00
  -33   11    9      0.80      0.00
  -31   11    9      1.96      0.00
   29   11    9    -10.20      0.00
   31   11    9      1.88      0.00
  -32   12    9     -1.90      0.00
  -30   12    9      1.85      0.00
   28   12    9     -1.81      0.00
   30   12    9      7.63      0.00
  -31   13    9      2.47      0.00
  -29   13    9     -4.83      0.00
   27   13    9      8.73      0.00
   29   13    9     -6.24      0.00
  -30   14    9      2.94      0.00
  -28   14    9      1.82      0.00
   26   14    9     -3.37      0.00
   28   14    9      0.31      0.00
  -31   15    9      1.40      0.00
  -29   15    9     -1.71      0.00
  -27   15    9      1.76      0.00
   25   15    9      0.95      0.00
   27   15    9      2.60      0.00
   29   15    9     -1.77      0.00
  -30   16    9     -1.50      0.00
  -28   16    9      1.48      0.00
  -26   16    9     -3.70      0.00
   24   16    9      1.53      0.00
   26   16    9     -2.73      0.00
   28   16    9      1.71      0.00
  -29   17    9     -0.31      0.00
  -27   17    9     -2.38      0.00
  -25   17    9      2.72      0.00
   23   17    9     -0.32      0.00
   25   17    9      2.06      0.00
   27   17    9     -3.90      0.00
  -28   18    9      3.02      0.00
  -26   18    9     -4.07      0.00
  -24   18    9      4.52      0.00
   22   18    9      2.02      0.00
   24   18    9     -1.95      0.00
   26   18    9     -0.66      0.00
  -27   19    9      0.62      0.00
  -25   19    9      1.42      0.00
  -23   19    9     -4.16      0.00
   21   19    9     -4.25      0.00
   23   19    9      0.03      0.00
   25   19    9      4.13      0.00
  -26   20    9     -1.50      0.00
  -24   20    9      1.52      0.00
  -22   20    9     -0.99      0.00
   20   20    9     -1.03      0.00
   22   20    9      2.02      0.00
   24   20    9     -4.34      0.00
  -25   21    9     -0.32      0.00
  -23   21    9      0.55      0.00
  -21   21    9     -1.60      0.00
   19   21    9      6.99      0.00
   21   21    9     -4.66      0.00
   23   21    9      1.56      0.00
  -24   22    9     -0.91      0.00
  -22   22    9      2.43      0.00
  -20   22    9      1.15      0.00
   18   22    9     -1.72      0.00
   20   22    9     -0.38      0.00
   22   22    9      3.05      0.00
  -23   23    9      1.75      0.00
  -21   23    9     -3.10      0.00
  -19   23    9      1.24      0.00
  -17   23    9      2.19      0.00
   15   23    9      6.20      0.00
   17   23    9     -6.77      0.00
   19   23    9      2.00      0.00
   21   23    9     -1.77      0.00
  -22   24    9      0.50      0.00
  -20   24    9      0.78      0.00
  -18   24    9     -1.25      0.00
  -16   24    9     -0.67      0.00
   14   24    9     -7.35      0.00
   16   24    9      2.28      0.00
   18   24    9      1.28      0.00
   20   24    9      0.53      0.00
  -19   25    9     -0.40      0.00
  -17   25    9      2.87      0.00
  -15   25    9     -1.56      0.00
  -13   25    9      0.28      0.00
   11   25    9     -1.36      0.00
   13   25    9     -0.28      0.00
   15   25    9      2.57      0.00
   17   25    9     -1.38      0.00
   19   25    9     -0.12      0.00
  -18   26    9     -0.81      0.00
  -16   26    9     -2.24      0.00
  -14   26    9      3.32      0.00
  -12   26    9     -2.58      0.00
  -10   26    9      2.61      0.00
    8   26    9      0.40      0.00
   10   26    9      0.23      0.00
   12   26    9      1.89      0.00
   14   26    9     -3.19      0.00
   16   26    9      0.04      0.00
  -17   27    9      1.71      0.00
  -15   27    9     -0.98      0.00
  -13   27    9     -0.35      0.00
  -11   27    9      1.60      0.00
   -9   27    9     -1.53      0.00
   -7   27    9      0.16      0.00
   -5   27    9     -0.29      0.00
   -3   27    9      2.14      0.00
   -1   27    9     -2.24      0.00
    1   27    9      0.92      0.00
    3   27    9     -0.67      0.00
    5   27    9      0.07      0.00
    7   27    9      1.65      0.00
    9   27    9     -1.24      0.00
   11   27    9     -1.34      0.00
   13   27    9      1.17      0.00
   15   27    9      1.80      0.00
  -14   28    9      1.70      0.00
  -12   28    9     -1.99      0.00
  -10   28    9      1.92      0.00
   -8   28    9     -0.22      0.00
   -6   28    9      0.24      0.00
   -4   28    9     -3.04      0.00
   -2   28    9      2.24      0.00
    0   28    9      1.46      0.00
    2   28    9     -1.39      0.00
    4   28    9     -0.06      0.00
    6   28    9     -0.53      0.00
    8   28    9      0.27      0.00
   10   28    9      0.40      0.00
   12   28    9      0.53      0.00
  -11   29    9      1.07      0.00
   -9   29    9     -0.87      0.00
   -7   29    9      0.34      0.00
   -5   29    9      0.50      0.00
   -3   29    9      0.61      0.00
   -1   29    9     -2.87      0.00
    1   29    9      2.13      0.00
    3   29    9     -0.19      0.00
    5   29    9      0.62      0.00
    7   29    9     -1.12      0.00
    9   29    9      0.49      0.00
   -6   30    9      0.82      0.00
   -4   30    9     -1.75      0.00
   -2   30    9      1.37      0.00
    0   30    9     -0.30      0.00
    2   30    9     -0.17      0.00
    4   30    9     -0.74      0.00
  -34    0   10      4.39      0.00
  -32    0   10      2.51      0.00
   30    0   10      2.47      0.00
   32    0   10     -1.64      0.00
  -33    1   10    -11.53      0.00
  -31    1   10     11.92      0.00
   29    1   10      4.46      0.00
   31    1   10     -4.25      0.00
  -34    2   10      2.55      0.00
  -32    2   10      4.58      0.00
   30    2   10      0.66      0.00
   32    2   10      0.48      0.00
  -33    3   10     -8.91      0.00
  -31    3   10      4.31      0.00
   29    3   10      3.23      0.00
   31    3   10     -1.07      0.00
  -34    4   10     -3.32      0.00
  -32    4   10     10.49      0.00
   30    4   10     -1.31      0.00
   32    4   10      0.75      0.00
  -33    5   10     -8.52      0.00
  -31    5   10      3.53      0.00
   29    5   10      1.33      0.00
   31    5   10     -0.43      0.00
  -34    6   10     -3.15      0.00
  -32    6   10     11.46      0.00
   30    6   10     -0.67      0.00
   32    6   10      0.53      0.00
  -33    7   10     -8.31      0.00
  -31    7   10      5.23      0.00
   29    7   10     -0.59      0.00
   31    7   10     -0.31      0.00
  -32    8   10      5.84      0.00
  -30    8   10    -13.50      0.00
   28    8   10     -4.00      0.00
   30    8   10      3.37      0.00
  -33    9   10     -8.16      0.00
  -31    9   10      8.77      0.00
   29    9   10      0.06      0.00
   31    9   10     -0.97      0.00
  -32   10   10      1.23      0.00
  -30   10   10     -7.44      0.00
   28   10   10     -2.01      0.00
   30   10   10      0.84      0.00
  -31   11   10      6.70      0.00
  -29   11   10     -0.66      0.00
   27   11   10      1.64      0.00
   29   11   10     -1.59      0.00
  -30   12   10     -7.77      0.00
  -28   12   10      7.12      0.00
   26   12   10     -5.08      0.00
   28   12   10      3.55      0.00
   30   12   10     -2.26      0.00
  -31   13   10      2.74      0.00
  -29   13   10      0.23      0.00
  -27   13   10     -6.10      0.00
   25   13   10      1.59      0.00
   27   13   10     -1.84      0.00
   29   13   10      0.82      0.00
  -30   14   10     -4.97      0.00
  -28   14   10      6.39      0.00
   24   14   10      7.48      0.00
   26   14   10     -8.47      0.00
   28   14   10      6.36      0.00
  -29   15   10      1.88      0.00
  -27   15   10     -3.07      0.00
   25   15   10      4.23      0.00
   27   15   10     -1.53      0.00
  -28   16   10      6.17      0.00
  -26   16   10     -5.42      0.00
   24   16   10      6.11      0.00
   26   16   10     -3.48      0.00
  -27   17   10     -1.06      0.00
  -25   17   10      4.91      0.00
   23   17   10      0.35      0.00
   25   17   10      1.16      0.00
  -26   18   10     -4.79      0.00
  -24   18   10      0.99      0.00
   22   18   10     -2.87      0.00
   24   18   10      0.62      0.00
   26   18   10     -2.76      0.00
  -27   19   10     -1.58      0.00
  -25   19   10      3.82      0.00
  -23   19   10     -2.23      0.00
   21   19   10     -1.88      0.00
   23   19   10      2.72      0.00
   25   19   10     -1.61      0.00
  -26   20   10     -0.67      0.00
  -24   20   10     -2.76      0.00
  -22   20   10      5.02      0.00
   18   20   10     -1.21      0.00
   20   20   10      3.59      0.00
   22   20   10     -2.42      0.00
   24   20   10      1.60      0.00
  -25   21   10      2.67      0.00
  -23   21   10     -1.83      0.00
  -21   21   10     -3.24      0.00
  -19   21   10      5.24      0.00
   17   21   10      3.60      0.00
   19   21   10     -3.65      0.00
   21   21   10     -0.64      0.00
   23   21   10     -0.31      0.00
  -22   22   10      3.55      0.00
  -20   22   10     -2.35      0.00
  -18   22   10     -0.10      0.00
   16   22   10     -9.11      0.00
   18   22   10      3.59      0.00
   20   22   10      1.80      0.00
  -21   23   10     -1.10      0.00
  -19   23   10      3.57      0.00
  -17   23   10     -4.49      0.00
  -15   23   10      1.79      0.00
   13   23   10    -10.32      0.00
   15   23   10      2.79      0.00
   17   23   10      4.65      0.00
   19   23   10     -5.51      0.00
  -20   24   10     -1.17      0.00
  -18   24   10     -0.18      0.00
  -16   24   10      1.75      0.00
  -14   24   10     -1.86      0.00
   12   24   10     -2.20      0.00
   14   24   10      8.92      0.00
   16   24   10     -8.00      0.00
   18   24   10      1.69      0.00
  -19   25   10      2.24      0.00
  -17   25   10     -3.41      0.00
  -15   25   10      3.37      0.00
  -13   25   10     -3.07      0.00
  -11   25   10      3.33      0.00
    9   25   10     -3.72      0.00
   11   25   10      6.44      0.00
   13   25   10     -4.90      0.00
   15   25   10     -0.22      0.00
   17   25   10      3.67      0.00
  -16   26   10      1.50      0.00
  -14   26   10     -1.36      0.00
  -12   26   10      1.21      0.00
  -10   26   10     -3.20      0.00
   -8   26   10      3.20      0.00
   -6   26   10      0.97      0.00
   -4   26   10     -3.36      0.00
    2   26   10      2.79      0.00
    4   26   10     -0.36      0.00
    6   26   10     -2.23      0.00
    8   26   10      1.91      0.00
   10   26   10     -0.21      0.00
   12   26   10     -2.23      0.00
   14   26   10      3.53      0.00
  -15   27   10      1.90      0.00
  -13   27   10     -1.92      0.00
  -11   27   10      2.16      0.00
   -9   27   10     -1.28      0.00
   -7   27   10     -1.70      0.00
   -5   27   10      2.06      0.00
   -3   27   10      1.48      0.00
   -1   27   10     -2.64      0.00
    1   27   10      1.42      0.00
    3   27   10     -2.38      0.00
    5   27   10      3.15      0.00
    7   27   10     -1.45      0.00
    9   27   10     -0.49      0.00
   11   27   10      1.66      0.00
   13   27   10     -0.93      0.00
  -12   28   10      0.72      0.00
  -10   28   10     -1.37      0.00
   -8   28   10      0.53      0.00
   -6   28   10      1.37      0.00
   -4   28   10     -2.58      0.00
   -2   28   10      2.32      0.00
    0   28   10     -1.43      0.00
    2   28   10      1.21      0.00
    4   28   10     -1.17      0.00
    6   28   10      0.25      0.00
    8   28   10      0.50      0.00
   10   28   10     -0.11      0.00
   -7   29   10     -1.11      0.00
   -5   29   10     -1.04      0.00
   -3   29   10      2.08      0.00
   -1   29   10     -1.17      0.00
    1   29   10      1.44      0.00
    3   29   10     -2.20      0.00
    5   29   10      1.78      0.00
  -33    1   11      0.76      0.00
  -31    1   11     -1.05      0.00
   29    1   11     -0.09      0.00
   31    1   11     -0.28      0.00
  -32    2   11      5.21      0.00
  -30    2   11     -4.01      0.00
   28    2   11     -0.34      0.00
   30    2   11     -0.84      0.00
  -33    3   11      0.39      0.00
  -31    3   11     -4.84      0.00
   29    3   11     -0.70      0.00
   31    3   11      1.38      0.00
  -32    4   11      5.35      0.00
  -30    4   11     -7.20      0.00
   28    4   11     -2.36      0.00
   30    4   11      1.90      0.00
  -33    5   11     -0.90      0.00
  -31    5   11     -2.78      0.00
   29    5   11     -0.20      0.00
   31    5   11     -0.33      0.00
  -32    6   11      4.61      0.00
  -30    6   11     -2.08      0.00
   28    6   11     -2.66      0.00
   30    6   11      1.62      0.00
  -33    7   11     -0.23      0.00
  -31    7   11     -1.68      0.00
  -29    7   11      2.74      0.00
   27    7   11      1.86      0.00
   29    7   11     -0.44      0.00
  -32    8   11      1.24      0.00
  -30    8   11      0.12      0.00
   28    8   11     -1.00      0.00
   30    8   11     -0.13      0.00
  -31    9   11     -4.44      0.00
  -29    9   11      1.98      0.00
   27    9   11     -2.55      0.00
   29    9   11      3.57      0.00
  -32   10   11      1.30      0.00
  -30   10   11      1.79      0.00
  -28   10   11     -5.00      0.00
   26   10   11     -1.32      0.00
   28   10   11      3.22      0.00
  -31   11   11     -2.84      0.00
  -29   11   11      5.29      0.00
  -27   11   11     -0.36      0.00
   25   11   11      3.26      0.00
   27   11   11     -5.02      0.00
   29   11   11      3.44      0.00
  -30   12   11      1.08      0.00
  -28   12   11     -1.95      0.00
   24   12   11      1.93      0.00
   26   12   11      0.61      0.00
   28   12   11      1.35      0.00
  -29   13   11      1.73      0.00
  -27   13   11      0.43      0.00
   25   13   11      2.52      0.00
   27   13   11     -3.28      0.00
  -28   14   11     -2.39      0.00
  -26   14   11      0.54      0.00
   24   14   11     -2.03      0.00
   26   14   11     -0.68      0.00
  -29   15   11     -0.99      0.00
  -27   15   11      1.71      0.00
  -25   15   11     -2.97      0.00
   23   15   11      0.29      0.00
   25   15   11     -1.35      0.00
   27   15   11      0.82      0.00
  -28   16   11     -1.51      0.00
  -26   16   11      0.99      0.00
  -24   16   11     -0.41      0.00
   22   16   11      2.90      0.00
   24   16   11      0.14      0.00
   26   16   11     -1.20      0.00
  -27   17   11      2.82      0.00
  -25   17   11     -3.92      0.00
  -23   17   11      3.28      0.00
   21   17   11     -1.94      0.00
   23   17   11     -0.80      0.00
   25   17   11      1.28      0.00
  -26   18   11      3.07      0.00
  -24   18   11     -1.98      0.00
  -22   18   11     -0.88      0.00
   20   18   11     -5.42      0.00
   22   18   11      2.31      0.00
   24   18   11      1.78      0.00
  -25   19   11     -1.34      0.00
  -23   19   11      2.67      0.00
  -21   19   11     -0.35      0.00
   19   19   11     -0.80      0.00
   21   19   11      4.49      0.00
   23   19   11     -4.18      0.00
  -24   20   11     -0.90      0.00
  -22   20   11      1.06      0.00
  -20   20   11     -1.41      0.00
   18   20   11      5.26      0.00
   20   20   11     -4.40      0.00
   22   20   11      2.42      0.00
  -23   21   11     -0.36      0.00
  -21   21   11      0.78      0.00
  -19   21   11      0.71      0.00
  -17   21   11     -2.06      0.00
   15   21   11     -4.53      0.00
   17   21   11      5.09      0.00
   19   21   11     -4.64      0.00
   21   21   11      5.15      0.00
  -22   22   11     -0.10      0.00
  -20   22   11     -2.07      0.00
  -18   22   11      0.81      0.00
  -16   22   11      2.42      0.00
   14   22   11     13.16      0.00
   16   22   11     -7.54      0.00
   18   22   11      5.13      0.00
   20   22   11     -4.96      0.00
  -21   23   11      0.45      0.00
  -19   23   11      2.42      0.00
  -17   23   11     -3.68      0.00
  -15   23   11      2.31      0.00
  -13   23   11     -1.94      0.00
   11   23   11      9.09      0.00
   13   23   11     -3.34      0.00
   15   23   11     -3.77      0.00
   17   23   11      3.98      0.00
   19   23   11     -2.18      0.00
  -18   24   11     -0.02      0.00
  -16   24   11      2.63      0.00
  -14   24   11     -3.64      0.00
  -12   24   11      3.93      0.00
  -10   24   11     -5.18      0.00
    8   24   11      3.80      0.00
   10   24   11     -0.66      0.00
   12   24   11     -6.75      0.00
   14   24   11      7.43      0.00
   16   24   11     -3.81      0.00
  -17   25   11     -4.14      0.00
  -15   25   11      2.37      0.00
  -13   25   11     -1.68      0.00
  -11   25   11      1.44      0.00
   -9   25   11      0.80      0.00
   -7   25   11     -2.15      0.00
   -5   25   11      1.80      0.00
    3   25   11     -1.99      0.00
    5   25   11      3.26      0.00
    7   25   11     -1.57      0.00
    9   25   11     -2.28      0.00
   11   25   11      3.76      0.00
   13   25   11     -0.43      0.00
   15   25   11     -1.94      0.00
  -14   26   11     -3.82      0.00
  -12   26   11      3.88      0.00
  -10   26   11     -3.40      0.00
   -8   26   11      3.67      0.00
   -6   26   11     -3.51      0.00
   -4   26   11      1.76      0.00
   -2   26   11     -0.07      0.00
    0   26   11     -1.01      0.00
    2   26   11      1.84      0.00
    4   26   11     -1.42      0.00
    6   26   11     -0.37      0.00
    8   26   11      1.83      0.00
   10   26   11     -0.76      0.00
   12   26   11     -2.10      0.00
  -13   27   11      0.45      0.00
  -11   27   11     -1.71      0.00
   -9   27   11      1.54      0.00
   -7   27   11     -0.80      0.00
   -5   27   11      1.72      0.00
   -3   27   11     -3.32      0.00
   -1   27   11      2.17      0.00
    1   27   11     -0.01      0.00
    3   27   11     -0.36      0.00
    5   27   11      1.20      0.00
    7   27   11     -2.28      0.00
    9   27   11      0.93      0.00
   11   27   11      0.56      0.00
   -8   28   11      0.27      0.00
   -6   28   11     -0.44      0.00
   -4   28   11      2.09      0.00
   -2   28   11     -0.77      0.00
    0   28   11     -1.73      0.00
    2   28   11      1.19      0.00
    4   28   11     -0.25      0.00
    6   28   11      0.53      0.00
   -1   29   11      1.35      0.00
  -32    0   12     -4.64      0.00
  -30    0   12      0.99      0.00
   28    0   12     -0.19      0.00
   30    0   12     -0.87      0.00
  -33    1   12      1.67      0.00
  -31    1   12      0.41      0.00
  -29    1   12     -1.79      0.00
   27    1   12      0.67      0.00
   29    1   12      1.15      0.00
  -32    2   12     -2.90      0.00
  -30    2   12      2.76      0.00
   28    2   12     -1.54      0.00
   30    2   12     -0.60      0.00
  -31    3   12      2.43      0.00
  -29    3   12     -3.33      0.00
   27    3   12      3.73      0.00
   29    3   12     -0.90      0.00
  -32    4   12     -4.56      0.00
  -30    4   12      3.04      0.00
   28    4   12     -4.28      0.00
   30    4   12      3.22      0.00
  -31    5   12     -0.06      0.00
  -29    5   12     -4.07      0.00
   27    5   12      3.17      0.00
   29    5   12     -0.15      0.00
  -32    6   12     -4.34      0.00
  -30    6   12      4.38      0.00
  -28    6   12     -0.96      0.00
   26    6   12      1.13      0.00
   28    6   12     -1.70      0.00
   30    6   12      2.67      0.00
  -31    7   12      0.83      0.00
  -29    7   12     -1.80      0.00
   27    7   12      0.42      0.00
   29    7   12      0.11      0.00
  -30    8   12      3.99      0.00
  -28    8   12      0.52      0.00
   26    8   12      0.99      0.00
   28    8   12     -0.35      0.00
  -31    9   12     -0.18      0.00
  -29    9   12     -2.50      0.00
  -27    9   12     -0.97      0.00
   25    9   12      2.79      0.00
   27    9   12     -3.56      0.00
   29    9   12      1.00      0.00
  -30   10   12      0.26      0.00
  -28   10   12      2.69      0.00
   26   10   12      1.90      0.00
   28   10   12      0.31      0.00
  -29   11   12     -4.96      0.00
  -27   11   12     -0.31      0.00
   25   11   12     -0.03      0.00
   27   11   12     -1.24      0.00
  -30   12   12      1.83      0.00
  -28   12   12      3.93      0.00
  -26   12   12     -4.69      0.00
   24   12   12     -7.21      0.00
   26   12   12      5.01      0.00
  -29   13   12     -4.68      0.00
  -27   13   12      2.65      0.00
  -25   13   12      1.06      0.00
   23   13   12      4.65      0.00
   25   13   12     -0.03      0.00
   27   13   12     -0.09      0.00
  -28   14   12      2.82      0.00
  -26   14   12     -2.57      0.00
  -24   14   12     -0.39      0.00
   22   14   12      9.31      0.00
   24   14   12     -6.06      0.00
   26   14   12      5.05      0.00
  -27   15   12      1.99      0.00
  -25   15   12      0.48      0.00
  -23   15   12     -0.61      0.00
   21   15   12     -1.97      0.00
   23   15   12     -0.70      0.00
   25   15   12     -0.62      0.00
  -26   16   12     -0.44      0.00
  -24   16   12      0.73      0.00
  -22   16   12      2.51      0.00
   20   16   12     -9.37      0.00
   22   16   12      7.50      0.00
   24   16   12     -6.07      0.00
  -25   17   12     -0.19      0.00
  -23   17   12     -1.09      0.00
  -21   17   12      1.15      0.00
   19   17   12     -0.98      0.00
   21   17   12      4.93      0.00
   23   17   12     -3.92      0.00
  -24   18   12     -0.51      0.00
  -22   18   12      0.82      0.00
  -20   18   12     -3.16      0.00
   18   18   12      8.22      0.00
   20   18   12     -9.41      0.00
   22   18   12      4.17      0.00
  -23   19   12     -2.51      0.00
  -21   19   12      2.37      0.00
  -19   19   12      0.49      0.00
   17   19   12      1.67      0.00
   19   19   12     -5.26      0.00
   21   19   12      5.43      0.00
  -22   20   12      0.38      0.00
  -20   20   12     -2.23      0.00
  -18   20   12      2.66      0.00
   14   20   12      0.25      0.00
   16   20   12     -1.69      0.00
   18   20   12      4.96      0.00
   20   20   12     -2.09      0.00
  -21   21   12      2.80      0.00
  -19   21   12     -1.44      0.00
  -17   21   12     -1.25      0.00
  -15   21   12      2.69      0.00
   13   21   12      8.79      0.00
   15   21   12     -3.92      0.00
   17   21   12      1.57      0.00
   19   21   12     -2.55      0.00
  -20   22   12     -1.72      0.00
  -18   22   12      2.76      0.00
  -16   22   12     -2.40      0.00
  -14   22   12     -0.42      0.00
   10   22   12      7.26      0.00
   12   22   12     -0.19      0.00
   14   22   12     -3.93      0.00
   16   22   12      2.62      0.00
   18   22   12     -1.27      0.00
  -19   23   12     -1.87      0.00
  -17   23   12      0.79      0.00
  -15   23   12      1.58      0.00
  -13   23   12     -0.70      0.00
  -11   23   12     -1.45      0.00
    7   23   12     -2.08      0.00
    9   23   12      7.49      0.00
   11   23   12    -10.43      0.00
   13   23   12      8.19      0.00
   15   23   12     -2.21      0.00
   17   23   12      0.93      0.00
  -16   24   12     -2.19      0.00
  -14   24   12      1.42      0.00
  -12   24   12     -0.38      0.00
  -10   24   12      0.51      0.00
   -8   24   12     -1.36      0.00
   -6   24   12      0.65      0.00
   -4   24   12      0.93      0.00
    2   24   12     -0.37      0.00
    4   24   12     -2.18      0.00
    6   24   12      4.27      0.00
    8   24   12     -6.08      0.00
   10   24   12      3.97      0.00
   12   24   12      1.99      0.00
   14   24   12     -4.82      0.00
  -15   25   12     -1.32      0.00
  -13   25   12      1.65      0.00
  -11   25   12     -2.22      0.00
   -9   25   12      0.72      0.00
   -7   25   12      0.36      0.00
   -5   25   12      0.21      0.00
   -3   25   12      0.45      0.00
   -1   25   12     -0.39      0.00
    1   25   12     -1.48      0.00
    3   25   12      1.28      0.00
    5   25   12      0.10      0.00
    7   25   12     -1.47      0.00
    9   25   12      4.71      0.00
   11   25   12     -6.22      0.00
   13   25   12      3.38      0.00
  -12   26   12     -2.24      0.00
  -10   26   12      3.16      0.00
   -8   26   12     -1.88      0.00
   -6   26   12     -0.04      0.00
   -4   26   12      0.34      0.00
   -2   26   12     -0.30      0.00
    0   26   12      0.98      0.00
    2   26   12     -0.97      0.00
    4   26   12     -0.56      0.00
    6   26   12      1.79      0.00
    8   26   12     -1.52      0.00
   10   26   12     -0.01      0.00
   -9   27   12     -0.39      0.00
   -7   27   12      0.22      0.00
   -5   27   12     -0.65      0.00
   -3   27   12     -0.06      0.00
   -1   27   12      0.95      0.00
    1   27   12     -0.69      0.00
    3   27   12      0.20      0.00
    5   27   12      0.15      0.00
    7   27   12     -0.78      0.00
   -4   28   12      0.43      0.00
   -2   28   12     -0.55      0.00
    0   28   12      0.55      0.00
  -31    1   13     -2.57      0.00
  -29    1   13      1.26      0.00
   27    1   13     -0.25      0.00
   29    1   13     -0.02      0.00
  -30    2   13      2.94      0.00
  -28    2   13     -5.24      0.00
   26    2   13     -2.10      0.00
   28    2   13      1.86      0.00
  -31    3   13     -3.11      0.00
  -29    3   13      2.51      0.00
   25    3   13      2.79      0.00
   27    3   13     -0.06      0.00
   29    3   13     -1.62      0.00
  -30    4   13      4.43      0.00
  -28    4   13     -6.54      0.00
   26    4   13     -1.54      0.00
   28    4   13      2.36      0.00
  -31    5   13     -2.62      0.00
  -29    5   13      1.64      0.00
  -27    5   13     -1.26      0.00
   25    5   13      4.06      0.00
   27    5   13     -2.93      0.00
  -30    6   13      1.04      0.00
  -28    6   13     -1.42      0.00
   26    6   13     -0.85      0.00
   28    6   13      2.26      0.00
  -31    7   13      0.41      0.00
  -29    7   13     -0.18      0.00
  -27    7   13     -2.93      0.00
   25    7   13      2.62      0.00
   27    7   13     -1.79      0.00
  -30    8   13     -0.49      0.00
  -28    8   13      2.86      0.00
  -26    8   13     -1.29      0.00
   24    8   13     -4.98      0.00
   26    8   13      2.51      0.00
   28    8   13     -0.02      0.00
  -29    9   13     -0.89      0.00
  -27    9   13     -1.98      0.00
   23    9   13      1.50      0.00
   25    9   13      1.15      0.00
   27    9   13      0.00      0.00
  -28   10   13      2.91      0.00
  -26   10   13     -0.81      0.00
   24   10   13     -2.91      0.00
   26   10   13      1.05      0.00
  -29   11   13     -1.30      0.00
  -27   11   13      0.75      0.00
  -25   11   13     -1.44      0.00
   23   11   13     -1.83      0.00
   25   11   13     -0.13      0.00
  -28   12   13     -1.21      0.00
  -26   12   13      2.14      0.00
  -24   12   13      0.23      0.00
   22   12   13      4.39      0.00
   24   12   13     -2.40      0.00
   26   12   13     -0.59      0.00
  -27   13   13     -0.08      0.00
  -25   13   13     -2.92      0.00
  -23   13   13      3.82      0.00
   21   13   13      3.09      0.00
   23   13   13     -4.89      0.00
   25   13   13      1.87      0.00
  -26   14   13      2.89      0.00
  -24   14   13     -3.16      0.00
  -22   14   13      0.90      0.00
   20   14   13     -5.13      0.00
   22   14   13      2.73      0.00
   24   14   13      1.72      0.00
  -25   15   13     -1.33      0.00
  -23   15   13      1.31      0.00
   19   15   13     -4.07      0.00
   21   15   13      4.37      0.00
   23   15   13     -2.26      0.00
  -26   16   13      1.66      0.00
  -24   16   13     -2.60      0.00
  -22   16   13      2.47      0.00
  -20   16   13     -1.15      0.00
   18   16   13      1.38      0.00
   20   16   13      0.99      0.00
   22   16   13     -2.08      0.00
  -25   17   13      1.01      0.00
  -23   17   13      1.32      0.00
  -21   17   13     -1.64      0.00
  -19   17   13      1.22      0.00
   17   17   13      1.95      0.00
   19   17   13     -1.34      0.00
   21   17   13      1.16      0.00
  -24   18   13     -0.56      0.00
  -22   18   13      1.75      0.00
  -20   18   13     -1.59      0.00
  -18   18   13      1.53      0.00
   16   18   13      1.62      0.00
   18   18   13     -2.60      0.00
   20   18   13      5.25      0.00
  -23   19   13      0.65      0.00
  -21   19   13     -2.05      0.00
  -19   19   13      1.68      0.00
  -17   19   13     -3.97      0.00
   15   19   13      4.07      0.00
   17   19   13     -1.93      0.00
   19   19   13     -0.35      0.00
  -22   20   13      0.17      0.00
  -20   20   13     -0.25      0.00
  -18   20   13      1.90      0.00
  -16   20   13      0.01      0.00
  -14   20   13     -4.43      0.00
   12   20   13     10.00      0.00
   14   20   13     -7.55      0.00
   16   20   13      3.53      0.00
   18   20   13     -4.88      0.00
  -19   21   13      1.85      0.00
  -17   21   13     -3.77      0.00
  -15   21   13      4.61      0.00
  -13   21   13     -0.61      0.00
   11   21   13     -6.69      0.00
   13   21   13     -1.84      0.00
   15   21   13      4.37      0.00
   17   21   13     -1.68      0.00
  -18   22   13      0.64      0.00
  -16   22   13      0.13      0.00
  -14   22   13     -3.77      0.00
  -12   22   13      2.36      0.00
  -10   22   13      1.97      0.00
    6   22   13      1.86      0.00
    8   22   13     -1.88      0.00
   10   22   13     -3.90      0.00
   12   22   13      7.55      0.00
   14   22   13     -5.66      0.00
   16   22   13      2.12      0.00
  -17   23   13     -1.42      0.00
  -15   23   13      0.78      0.00
  -13   23   13      2.04      0.00
  -11   23   13     -3.60      0.00
   -9   23   13      2.79      0.00
   -7   23   13     -0.87      0.00
   -5   23   13     -0.81      0.00
   -3   23   13      1.80      0.00
   -1   23   13     -2.35      0.00
    1   23   13      2.40      0.00
    3   23   13     -1.62      0.00
    5   23   13      0.32      0.00
    7   23   13     -1.01      0.00
    9   23   13      3.83      0.00
   11   23   13     -2.98      0.00
   13   23   13     -1.57      0.00
   15   23   13      2.45      0.00
  -14   24   13     -1.43      0.00
  -12   24   13     -0.36      0.00
  -10   24   13      3.38      0.00
   -8   24   13     -4.56      0.00
   -6   24   13      3.80      0.00
   -4   24   13     -3.30      0.00
   -2   24   13      1.82      0.00
    0   24   13      0.00      0.00
    2   24   13     -0.44      0.00
    4   24   13      1.16      0.00
    6   24   13     -0.70      0.00
    8   24   13     -0.66      0.00
   10   24   13     -1.78      0.00
   12   24   13      3.71      0.00
  -13   25   13      2.77      0.00
  -11   25   13     -3.51      0.00
   -9   25   13      1.11      0.00
   -7   25   13      0.69      0.00
   -5   25   13     -1.10      0.00
   -3   25   13      1.45      0.00
   -1   25   13     -1.70      0.00
    1   25   13      1.80      0.00
    3   25   13     -0.55      0.00
    5   25   13     -1.17      0.00
    7   25   13      0.40      0.00
    9   25   13      1.04      0.00
   -8   26   13     -2.48      0.00
   -6   26   13      2.92      0.00
   -4   26   13     -1.40      0.00
   -2   26   13      0.55      0.00
    0   26   13     -0.93      0.00
    2   26   13     -0.03      0.00
    4   26   13      1.05      0.00
    6   26   13     -0.21      0.00
   -3   27   13      0.69      0.00
   -1   27   13     -0.07      0.00
    1   27   13      0.13      0.00
  -30    0   14      1.93      0.00
  -28    0   14     -3.93      0.00
  -26    0   14      3.05      0.00
   24    0   14      2.86      0.00
   26    0   14     -2.72      0.00
   28    0   14      0.62      0.00
  -29    1   14      1.38      0.00
  -27    1   14      0.29      0.00
   25    1   14      0.55      0.00
   27    1   14      2.35      0.00
  -30    2   14      2.06      0.00
  -28    2   14     -2.86      0.00
  -26    2   14      2.60      0.00
   24    2   14      1.55      0.00
   26    2   14     -3.65      0.00
   28    2   14      2.02      0.00
  -29    3   14      0.03      0.00
  -27    3   14      1.39      0.00
   25    3   14      1.37      0.00
   27    3   14      0.05      0.00
  -30    4   14      2.33      0.00
  -28    4   14     -1.57      0.00
  -26    4   14      0.24      0.00
   24    4   14      1.27      0.00
   26    4   14     -1.09      0.00
  -29    5   14     -2.04      0.00
  -27    5   14      2.46      0.00
   23    5   14     -2.37      0.00
   25    5   14      2.09      0.00
   27    5   14     -1.46      0.00
  -30    6   14      1.18      0.00
  -28    6   14     -0.25      0.00
  -26    6   14     -1.04      0.00
   24    6   14      1.42      0.00
   26    6   14     -0.19      0.00
  -29    7   14     -2.55      0.00
  -27    7   14      4.63      0.00
  -25    7   14     -4.97      0.00
   23    7   14     -0.91      0.00
   25    7   14     -1.54      0.00
   27    7   14     -0.77      0.00
  -28    8   14     -1.57      0.00
  -26    8   14     -0.62      0.00
   22    8   14     -3.77      0.00
   24    8   14      1.71      0.00
   26    8   14      0.49      0.00
  -29    9   14     -1.34      0.00
  -27    9   14      4.62      0.00
  -25    9   14     -6.63      0.00
   23    9   14     -0.95      0.00
   25    9   14     -1.19      0.00
  -28   10   14     -3.33      0.00
  -26   10   14      0.63      0.00
  -24   10   14      2.62      0.00
   22   10   14     -3.71      0.00
   24   10   14      4.14      0.00
  -27   11   14      3.52      0.00
  -25   11   14     -5.45      0.00
  -23   11   14      1.88      0.00
   21   11   14      4.22      0.00
   23   11   14     -0.25      0.00
   25   11   14     -0.35      0.00
  -26   12   14      2.09      0.00
  -24   12   14      0.63      0.00
  -22   12   14     -0.62      0.00
   20   12   14      2.81      0.00
   22   12   14     -4.21      0.00
   24   12   14      3.60      0.00
  -25   13   14     -1.21      0.00
  -23   13   14      0.91      0.00
  -21   13   14      1.61      0.00
   19   13   14     -1.99      0.00
   21   13   14      1.55      0.00
   23   13   14     -2.02      0.00
  -26   14   14      0.75      0.00
  -24   14   14      0.41      0.00
  -22   14   14      0.15      0.00
  -20   14   14     -2.59      0.00
   18   14   14     -0.34      0.00
   20   14   14      4.33      0.00
   22   14   14     -5.21      0.00
  -25   15   14     -0.06      0.00
  -23   15   14     -0.67      0.00
  -21   15   14      1.87      0.00
  -19   15   14     -1.72      0.00
   17   15   14     -0.48      0.00
   19   15   14     -1.45      0.00
   21   15   14     -0.57      0.00
  -24   16   14      0.01      0.00
  -22   16   14     -1.05      0.00
  -20   16   14     -1.15      0.00
  -18   16   14      3.92      0.00
   16   16   14     -1.70      0.00
   18   16   14     -3.87      0.00
   20   16   14      4.50      0.00
  -23   17   14     -0.28      0.00
  -21   17   14      1.89      0.00
  -19   17   14     -0.49      0.00
  -17   17   14     -3.39      0.00
   15   17   14      3.52      0.00
   17   17   14     -0.32      0.00
   19   17   14      1.36      0.00
  -22   18   14     -1.49      0.00
  -20   18   14      0.11      0.00
  -18   18   14      1.87      0.00
  -16   18   14     -0.15      0.00
   12   18   14      3.09      0.00
   14   18   14     -0.77      0.00
   16   18   14      0.42      0.00
   18   18   14     -1.44      0.00
  -21   19   14      0.46      0.00
  -19   19   14     -0.13      0.00
  -17   19   14     -2.40      0.00
  -15   19   14      2.08      0.00
  -13   19   14     -0.16      0.00
   11   19   14      2.19      0.00
   13   19   14     -4.60      0.00
   15   19   14      2.56      0.00
   17   19   14     -0.67      0.00
  -20   20   14      0.34      0.00
  -18   20   14     -0.62      0.00
  -16   20   14      2.39      0.00
  -14   20   14     -2.21      0.00
  -12   20   14      0.61      0.00
    8   20   14      6.13      0.00
   10   20   14     -6.38      0.00
   12   20   14      3.69      0.00
   14   20   14      0.55      0.00
   16   20   14     -0.60      0.00
  -17   21   14     -0.43      0.00
  -15   21   14     -0.18      0.00
  -13   21   14      2.43      0.00
  -11   21   14     -2.44      0.00
   -9   21   14      0.31      0.00
   -7   21   14      0.50      0.00
    5   21   14      4.66      0.00
    7   21   14     -4.38      0.00
    9   21   14     -0.23      0.00
   11   21   14      4.76      0.00
   13   21   14     -3.42      0.00
   15   21   14      1.61      0.00
  -16   22   14      1.83      0.00
  -14   22   14     -1.25      0.00
  -12   22   14     -0.40      0.00
  -10   22   14      1.07      0.00
   -8   22   14     -1.59      0.00
   -6   22   14      1.29      0.00
   -4   22   14      0.33      0.00
   -2   22   14     -0.04      0.00
    0   22   14     -2.42      0.00
    2   22   14      3.77      0.00
    4   22   14     -1.93      0.00
    6   22   14     -3.17      0.00
    8   22   14      7.10      0.00
   10   22   14     -5.33      0.00
   12   22   14      1.17      0.00
   14   22   14      0.50      0.00
  -15   23   14     -1.56      0.00
  -13   23   14      0.97      0.00
  -11   23   14     -0.31      0.00
   -9   23   14     -0.06      0.00
   -7   23   14      1.14      0.00
   -5   23   14     -0.52      0.00
   -3   23   14     -1.01      0.00
   -1   23   14      1.79      0.00
    1   23   14     -2.26      0.00
    3   23   14      0.04      0.00
    5   23   14      2.95      0.00
    7   23   14     -1.45      0.00
    9   23   14     -2.00      0.00
   11   23   14      3.27      0.00
  -12   24   14      0.30      0.00
  -10   24   14      0.48      0.00
   -8   24   14      0.55      0.00
   -6   24   14     -2.13      0.00
   -4   24   14      1.68      0.00
   -2   24   14     -0.34      0.00
    0   24   14     -0.34      0.00
    2   24   14      0.71      0.00
    4   24   14     -1.02      0.00
    6   24   14     -0.34      0.00
    8   24   14      2.80      0.00
   -9   25   14     -1.40      0.00
   -7   25   14      0.82      0.00
   -5   25   14      0.12      0.00
   -3   25   14     -1.33      0.00
   -1   25   14      1.76      0.00
    1   25   14     -2.01      0.00
    3   25   14      2.59      0.00
    5   25   14     -1.46      0.00
  -29    1   15     -2.75      0.00
  -27    1   15      2.17      0.00
  -25    1   15     -0.81      0.00
   23    1   15      1.60      0.00
   25    1   15     -0.76      0.00
  -28    2   15      2.75      0.00
  -26    2   15     -5.47      0.00
   22    2   15     -2.47      0.00
   24    2   15      0.20      0.00
   26    2   15      2.48      0.00
  -29    3   15     -4.79      0.00
  -27    3   15      5.25      0.00
  -25    3   15     -2.25      0.00
   23    3   15      3.74      0.00
   25    3   15     -4.21      0.00
  -28    4   15      2.16      0.00
  -26    4   15     -5.68      0.00
  -24    4   15      8.08      0.00
   22    4   15     -4.27      0.00
   24    4   15      0.16      0.00
   26    4   15      2.32      0.00
  -27    5   15      4.93      0.00
  -25    5   15     -4.71      0.00
   21    5   15     -1.40      0.00
   23    5   15      3.34      0.00
   25    5   15     -2.68      0.00
  -28    6   15     -1.56      0.00
  -26    6   15     -1.12      0.00
  -24    6   15      2.98      0.00
   22    6   15     -3.68      0.00
   24    6   15      1.94      0.00
  -27    7   15      3.16      0.00
  -25    7   15     -4.71      0.00
  -23    7   15      2.79      0.00
   21    7   15      0.72      0.00
   23    7   15      1.07      0.00
   25    7   15     -0.20      0.00
  -26    8   15      3.50      0.00
  -24    8   15     -1.44      0.00
   20    8   15      2.29      0.00
   22    8   15     -1.24      0.00
   24    8   15      0.42      0.00
  -27    9   15     -0.05      0.00
  -25    9   15     -1.39      0.00
  -23    9   15      2.63      0.00
   19    9   15     -0.90      0.00
   21    9   15     -0.30      0.00
   23    9   15     -1.22      0.00
  -26   10   15      3.19      0.00
  -24   10   15     -3.58      0.00
  -22   10   15      3.35      0.00
   20   10   15      0.94      0.00
   22   10   15     -1.49      0.00
   24   10   15      0.56      0.00
  -25   11   15      1.43      0.00
  -23   11   15     -0.44      0.00
  -21   11   15     -0.31      0.00
   19   11   15     -1.21      0.00
   21   11   15     -1.27      0.00
   23   11   15      1.22      0.00
  -24   12   15     -2.84      0.00
  -22   12   15      1.96      0.00
  -20   12   15     -1.22      0.00
   18   12   15     -0.53      0.00
   20   12   15      2.77      0.00
   22   12   15     -0.42      0.00
  -25   13   15      2.03      0.00
  -23   13   15     -1.34      0.00
  -21   13   15      1.06      0.00
  -19   13   15     -1.10      0.00
   17   13   15      0.20      0.00
   19   13   15     -0.20      0.00
   21   13   15     -1.45      0.00
  -24   14   15     -0.10      0.00
  -22   14   15     -0.30      0.00
  -20   14   15      0.67      0.00
  -18   14   15     -0.39      0.00
   16   14   15     -1.02      0.00
   18   14   15      0.74      0.00
   20   14   15      1.52      0.00
  -23   15   15     -0.37      0.00
  -21   15   15      1.02      0.00
  -19   15   15     -1.30      0.00
  -17   15   15      1.57      0.00
   15   15   15      3.61      0.00
   17   15   15      0.19      0.00
   19   15   15      0.48      0.00
  -22   16   15     -1.65      0.00
  -20   16   15      1.31      0.00
  -18   16   15     -1.00      0.00
  -16   16   15     -0.95      0.00
   14   16   15     -3.36      0.00
   16   16   15     -0.48      0.00
   18   16   15      0.54      0.00
  -21   17   15      1.09      0.00
  -19   17   15     -2.03      0.00
  -17   17   15      3.09      0.00
  -15   17   15     -1.19      0.00
   11   17   15      0.27      0.00
   13   17   15     -1.35      0.00
   15   17   15      1.48      0.00
   17   17   15     -1.18      0.00
  -20   18   15      1.54      0.00
  -18   18   15     -1.13      0.00
  -16   18   15     -1.80      0.00
  -14   18   15      4.47      0.00
  -12   18   15     -2.62      0.00
   10   18   15     -7.43      0.00
   12   18   15      4.68      0.00
   14   18   15     -1.87      0.00
   16   18   15     -0.60      0.00
  -19   19   15     -2.16      0.00
  -17   19   15      4.30      0.00
  -15   19   15     -4.22      0.00
  -13   19   15     -0.07      0.00
  -11   19   15      0.97      0.00
   -9   19   15      0.17      0.00
    7   19   15     -2.24      0.00
    9   19   15     -1.65      0.00
   11   19   15      2.01      0.00
   13   19   15     -1.25      0.00
   15   19   15     -0.70      0.00
  -16   20   15     -2.75      0.00
  -14   20   15      4.10      0.00
  -12   20   15     -3.00      0.00
  -10   20   15      2.45      0.00
   -8   20   15     -1.88      0.00
   -6   20   15     -0.25      0.00
   -4   20   15      2.83      0.00
   -2   20   15     -2.11      0.00
    0   20   15     -1.82      0.00
    2   20   15      2.67      0.00
    4   20   15      0.60      0.00
    6   20   15     -3.95      0.00
    8   20   15      5.74      0.00
   10   20   15     -3.63      0.00
   12   20   15     -0.14      0.00
   14   20   15      0.22      0.00
  -15   21   15     -2.49      0.00
  -13   21   15      0.20      0.00
  -11   21   15      1.01      0.00
   -9   21   15     -1.00      0.00
   -7   21   15      1.77      0.00
   -5   21   15     -2.05      0.00
   -3   21   15     -0.71      0.00
   -1   21   15      3.60      0.00
    1   21   15     -3.42      0.00
    3   21   15      1.54      0.00
    5   21   15      0.07      0.00
    7   21   15      0.85      0.00
    9   21   15     -3.37      0.00
   11   21   15      2.38      0.00
   13   21   15      0.79      0.00
  -14   22   15      4.06      0.00
  -12   22   15     -2.37      0.00
  -10   22   15      0.06      0.00
   -8   22   15      0.23      0.00
   -6   22   15     -1.79      0.00
   -4   22   15      3.35      0.00
   -2   22   15     -3.08      0.00
    0   22   15      2.38      0.00
    2   22   15      0.04      0.00
    4   22   15     -1.55      0.00
    6   22   15     -0.56      0.00
    8   22   15      1.16      0.00
   10   22   15      0.35      0.00
  -11   23   15      1.86      0.00
   -9   23   15     -2.29      0.00
   -7   23   15      2.09      0.00
   -5   23   15     -0.49      0.00
   -3   23   15     -0.69      0.00
   -1   23   15      1.87      0.00
    1   23   15     -3.52      0.00
    3   23   15      3.83      0.00
    5   23   15     -2.51      0.00
    7   23   15      1.26      0.00
   -6   24   15     -2.32      0.00
   -4   24   15      2.36      0.00
   -2   24   15     -2.71      0.00
    0   24   15      2.33      0.00
    2   24   15     -0.84      0.00
    4   24   15     -1.10      0.00
  -26    0   16     -0.81      0.00
  -24    0   16     -2.89      0.00
  -10    0   16     -0.80      0.00
   20    0   16      3.22      0.00
   22    0   16     -0.13      0.00
   24    0   16     -2.47      0.00
  -27    1   16     -1.02      0.00
  -25    1   16      3.49      0.00
  -23    1   16     -2.06      0.00
   21    1   16     -1.96      0.00
   23    1   16      1.26      0.00
  -26    2   16     -0.33      0.00
  -24    2   16     -3.87      0.00
   20    2   16      2.56      0.00
   22    2   16      0.13      0.00
   24    2   16     -1.27      0.00
  -27    3   16     -0.82      0.00
  -25    3   16      2.37      0.00
  -23    3   16     -1.13      0.00
   19    3   16      0.86      0.00
   21    3   16     -2.61      0.00
   23    3   16      1.59      0.00
  -26    4   16      1.55      0.00
  -24    4   16     -3.75      0.00
  -22    4   16      4.69      0.00
   20    4   16      1.59      0.00
   22    4   16      1.37      0.00
   24    4   16     -1.98      0.00
  -27    5   16     -1.31      0.00
  -25    5   16      1.47      0.00
  -23    5   16      1.59      0.00
   19    5   16      2.31      0.00
   21    5   16     -3.15      0.00
   23    5   16      0.24      0.00
  -26    6   16      2.67      0.00
  -24    6   16     -4.59      0.00
  -22    6   16      3.99      0.00
   18    6   16     -0.60      0.00
   20    6   16     -1.14      0.00
   22    6   16      2.21      0.00
  -25    7   16      0.70      0.00
  -23    7   16      1.24      0.00
  -21    7   16     -2.25      0.00
   19    7   16      2.73      0.00
   21    7   16     -2.78      0.00
   23    7   16      0.03      0.00
  -26    8   16      2.79      0.00
  -24    8   16     -4.43      0.00
  -22    8   16      2.75      0.00
   18    8   16     -0.20      0.00
   20    8   16     -0.86      0.00
   22    8   16      2.56      0.00
  -25    9   16      1.96      0.00
  -23    9   16      0.17      0.00
  -21    9   16     -2.13      0.00
   17    9   16     -0.87      0.00
   19    9   16      1.78      0.00
   21    9   16     -0.08      0.00
  -24   10   16     -1.87      0.00
  -22   10   16      1.94      0.00
  -20   10   16     -0.16      0.00
   16   10   16      0.71      0.00
   18   10   16      0.65      0.00
   20   10   16     -1.07      0.00
   22   10   16      0.56      0.00
  -23   11   16     -0.59      0.00
  -21   11   16     -1.01      0.00
  -19   11   16      1.98      0.00
   15   11   16     -1.11      0.00
   17   11   16      2.13      0.00
   19   11   16     -1.62      0.00
   21   11   16      0.82      0.00
  -24   12   16     -0.65      0.00
  -22   12   16      0.61      0.00
  -20   12   16      1.29      0.00
  -18   12   16     -2.74      0.00
   14   12   16     -0.58      0.00
   16   12   16      0.15      0.00
   18   12   16      0.77      0.00
   20   12   16     -1.49      0.00
  -23   13   16     -0.15      0.00
  -21   13   16     -1.69      0.00
  -19   13   16      1.82      0.00
  -17   13   16     -0.13      0.00
   13   13   16      3.15      0.00
   15   13   16     -3.46      0.00
   17   13   16      1.55      0.00
   19   13   16     -2.92      0.00
  -22   14   16      0.51      0.00
  -20   14   16      1.45      0.00
  -18   14   16     -3.21      0.00
  -16   14   16      2.10      0.00
   12   14   16     -0.42      0.00
   14   14   16     -0.74      0.00
   16   14   16     -0.17      0.00
   18   14   16      1.05      0.00
  -21   15   16     -2.09      0.00
  -19   15   16      1.08      0.00
  -17   15   16      1.24      0.00
  -15   15   16     -1.31      0.00
   11   15   16      2.09      0.00
   13   15   16      1.44      0.00
   15   15   16     -2.45      0.00
   17   15   16      2.41      0.00
  -20   16   16      1.73      0.00
  -18   16   16     -1.57      0.00
  -16   16   16     -1.33      0.00
  -14   16   16      0.79      0.00
  -12   16   16      0.42      0.00
   10   16   16     -1.81      0.00
   12   16   16     -2.06      0.00
   14   16   16      0.08      0.00
   16   16   16      1.35      0.00
  -19   17   16     -0.78      0.00
  -17   17   16      3.19      0.00
  -15   17   16     -1.71      0.00
  -13   17   16      0.07      0.00
  -11   17   16     -1.03      0.00
   -9   17   16      1.72      0.00
    7   17   16      2.73      0.00
    9   17   16     -6.61      0.00
   11   17   16      4.12      0.00
   13   17   16      0.71      0.00
   15   17   16     -1.19      0.00
  -18   18   16     -0.20      0.00
  -16   18   16     -3.02      0.00
  -14   18   16      4.49      0.00
  -12   18   16     -1.71      0.00
  -10   18   16      0.04      0.00
   -8   18   16     -0.87      0.00
   -6   18   16     -0.04      0.00
    2   18   16     -1.87      0.00
    4   18   16      3.24      0.00
    6   18   16     -5.21      0.00
    8   18   16      3.82      0.00
   10   18   16      0.67      0.00
   12   18   16     -1.87      0.00
   14   18   16      0.77      0.00
  -15   19   16     -0.47      0.00
  -13   19   16     -1.59      0.00
  -11   19   16      1.02      0.00
   -9   19   16     -0.72      0.00
   -7   19   16      0.02      0.00
   -5   19   16      0.97      0.00
   -3   19   16      0.32      0.00
   -1   19   16     -2.72      0.00
    1   19   16      3.48      0.00
    3   19   16     -1.63      0.00
    5   19   16     -1.40      0.00
    7   19   16      3.53      0.00
    9   19   16     -4.72      0.00
   11   19   16      3.81      0.00
   13   19   16     -0.73      0.00
  -14   20   16      3.55      0.00
  -12   20   16     -1.82      0.00
  -10   20   16     -0.05      0.00
   -8   20   16      1.16      0.00
   -6   20   16     -0.10      0.00
   -4   20   16     -1.27      0.00
   -2   20   16      0.82      0.00
    0   20   16      1.15      0.00
    2   20   16     -3.32      0.00
    4   20   16      3.24      0.00
    6   20   16     -1.48      0.00
    8   20   16      0.16      0.00
   10   20   16      1.70      0.00
  -11   21   16      3.10      0.00
   -9   21   16     -1.03      0.00
   -7   21   16     -0.01      0.00
   -5   21   16     -0.51      0.00
   -3   21   16      2.10      0.00
   -1   21   16     -4.33      0.00
    1   21   16      3.49      0.00
    3   21   16     -0.28      0.00
    5   21   16     -1.52      0.00
    7   21   16      2.41      0.00
    9   21   16     -2.45      0.00
   -8   22   16      0.34      0.00
   -6   22   16      0.13      0.00
   -4   22   16     -0.93      0.00
   -2   22   16      0.71      0.00
    0   22   16      1.19      0.00
    2   22   16     -3.03      0.00
    4   22   16      2.44      0.00
    6   22   16      0.20      0.00
   -5   23   16     -1.00      0.00
   -3   23   16      2.04      0.00
   -1   23   16     -2.69      0.00
    1   23   16      3.25      0.00
  -25    1   17      0.08      0.00
  -23    1   17      1.81      0.00
  -21    1   17     -0.75      0.00
   17    1   17     -0.67      0.00
   19    1   17     -0.47      0.00
   21    1   17      0.51      0.00
  -26    2   17      2.75      0.00
  -24    2   17     -2.12      0.00
  -22    2   17     -0.15      0.00
  -20    2   17      0.53      0.00
   18    2   17      3.03      0.00
   20    2   17     -2.89      0.00
   22    2   17      1.68      0.00
  -25    3   17     -0.49      0.00
  -23    3   17      2.35      0.00
  -21    3   17     -0.13      0.00
   17    3   17     -0.68      0.00
   19    3   17     -0.90      0.00
   21    3   17      1.46      0.00
  -24    4   17     -2.42      0.00
  -22    4   17     -1.31      0.00
  -20    4   17      1.29      0.00
   18    4   17      4.93      0.00
   20    4   17     -3.36      0.00
   22    4   17      1.80      0.00
  -25    5   17      0.69      0.00
  -23    5   17      1.15      0.00
  -21    5   17     -0.29      0.00
  -19    5   17     -1.50      0.00
   17    5   17     -0.09      0.00
   19    5   17     -1.20      0.00
   21    5   17      2.42      0.00
  -24    6   17      0.10      0.00
  -22    6   17     -1.48      0.00
  -20    6   17      0.92      0.00
   16    6   17     -2.88      0.00
   18    6   17      3.71      0.00
   20    6   17     -1.70      0.00
  -23    7   17     -0.04      0.00
  -21    7   17      0.36      0.00
  -19    7   17     -0.03      0.00
   15    7   17     -0.25      0.00
   17    7   17      1.85      0.00
   19    7   17     -4.19      0.00
   21    7   17      3.00      0.00
  -24    8   17      0.09      0.00
  -22    8   17     -0.47      0.00
  -20    8   17      2.60      0.00
  -18    8   17     -2.90      0.00
   16    8   17     -1.53      0.00
   18    8   17      1.89      0.00
   20    8   17     -0.34      0.00
  -23    9   17     -0.51      0.00
  -21    9   17     -1.36      0.00
  -19    9   17      1.61      0.00
  -17    9   17      0.50      0.00
   15    9   17     -2.98      0.00
   17    9   17      2.59      0.00
   19    9   17     -4.56      0.00
  -22   10   17     -0.04      0.00
  -20   10   17      1.50      0.00
  -18   10   17     -3.50      0.00
  -16   10   17      2.87      0.00
   14   10   17      0.00      0.00
   16   10   17     -0.44      0.00
   18   10   17      1.26      0.00
   20   10   17      1.19      0.00
  -21   11   17     -3.06      0.00
  -19   11   17      1.79      0.00
  -17   11   17      0.93      0.00
  -15   11   17     -1.62      0.00
   13   11   17      1.67      0.00
   15   11   17     -2.36      0.00
   17   11   17      1.84      0.00
   19   11   17     -2.48      0.00
  -20   12   17      1.63      0.00
  -18   12   17     -2.38      0.00
  -16   12   17     -0.15      0.00
  -14   12   17      1.40      0.00
   12   12   17     -4.23      0.00
   14   12   17      0.69      0.00
   16   12   17      1.77      0.00
   18   12   17      0.00      0.00
  -21   13   17     -2.88      0.00
  -19   13   17      1.90      0.00
  -17   13   17      0.40      0.00
  -15   13   17     -1.80      0.00
  -13   13   17      0.74      0.00
    9   13   17     -9.15      0.00
   11   13   17      5.21      0.00
   13   13   17      1.16      0.00
   15   13   17     -1.02      0.00
   17   13   17      0.09      0.00
  -20   14   17      0.89      0.00
  -18   14   17     -1.18      0.00
  -16   14   17      0.00      0.00
  -14   14   17      1.87      0.00
  -12   14   17     -1.96      0.00
    8   14   17      3.22      0.00
   10   14   17      3.92      0.00
   12   14   17     -5.73      0.00
   14   14   17      2.43      0.00
   16   14   17     -0.11      0.00
  -19   15   17      0.59      0.00
  -17   15   17      0.88      0.00
  -15   15   17     -0.59      0.00
  -13   15   17      0.83      0.00
  -11   15   17     -0.21      0.00
   -9   15   17     -1.20      0.00
    5   15   17     -0.09      0.00
    7   15   17      4.25      0.00
    9   15   17     -8.14      0.00
   11   15   17      5.80      0.00
   13   15   17     -0.24      0.00
   15   15   17     -1.25      0.00
  -18   16   17     -0.92      0.00
  -16   16   17      0.27      0.00
  -14   16   17      0.52      0.00
  -12   16   17     -1.41      0.00
  -10   16   17     -0.18      0.00
   -8   16   17      2.73      0.00
   -6   16   17     -1.83      0.00
   -4   16   17      0.66      0.00
    0   16   17      3.13      0.00
    2   16   17      0.44      0.00
    4   16   17     -2.26      0.00
    6   16   17      0.63      0.00
    8   16   17     -1.60      0.00
   10   16   17      6.58      0.00
   12   16   17     -7.92      0.00
   14   16   17      3.80      0.00
  -15   17   17     -1.49      0.00
  -13   17   17      0.46      0.00
  -11   17   17      1.56      0.00
   -9   17   17     -0.84      0.00
   -7   17   17     -0.55      0.00
   -5   17   17      0.20      0.00
   -3   17   17      0.91      0.00
   -1   17   17     -0.24      0.00
    1   17   17     -2.85      0.00
    3   17   17      3.79      0.00
    5   17   17     -2.48      0.00
    7   17   17      3.98      0.00
    9   17   17     -5.04      0.00
   11   17   17      2.28      0.00
   13   17   17     -0.26      0.00
  -14   18   17     -0.12      0.00
  -12   18   17     -0.25      0.00
  -10   18   17     -0.51      0.00
   -8   18   17      1.99      0.00
   -6   18   17     -1.65      0.00
   -4   18   17      0.86      0.00
   -2   18   17     -2.46      0.00
    0   18   17      3.43      0.00
    2   18   17     -1.30      0.00
    4   18   17     -1.50      0.00
    6   18   17      3.75      0.00
    8   18   17     -5.60      0.00
   10   18   17      6.14      0.00
  -13   19   17     -0.10      0.00
  -11   19   17      1.55      0.00
   -9   19   17     -2.15      0.00
   -7   19   17      0.41      0.00
   -5   19   17     -0.57      0.00
   -3   19   17      2.41      0.00
   -1   19   17     -1.67      0.00
    1   19   17     -0.53      0.00
    3   19   17      1.92      0.00
    5   19   17     -2.05      0.00
    7   19   17      0.85      0.00
    9   19   17      0.24      0.00
  -10   20   17     -1.06      0.00
   -8   20   17      1.45      0.00
   -6   20   17     -0.52      0.00
   -4   20   17      0.33      0.00
   -2   20   17     -0.95      0.00
    0   20   17      1.93      0.00
    2   20   17     -1.40      0.00
    4   20   17     -1.18      0.00
    6   20   17      3.35      0.00
   -7   21   17      1.24      0.00
   -5   21   17     -1.07      0.00
   -3   21   17      1.22      0.00
   -1   21   17     -1.87      0.00
    1   21   17      1.76      0.00
    3   21   17     -0.81      0.00
  -24    0   18      2.20      0.00
  -22    0   18     -3.50      0.00
  -20    0   18      3.17      0.00
  -18    0   18     -3.96      0.00
   -6    0   18      3.20      0.00
   14    0   18      0.23      0.00
   16    0   18     -2.10      0.00
   18    0   18      3.32      0.00
   20    0   18     -0.93      0.00
  -23    1   18      1.76      0.00
  -21    1   18     -1.22      0.00
  -19    1   18      2.08      0.00
  -17    1   18     -0.61      0.00
   15    1   18     -0.18      0.00
   17    1   18      0.44      0.00
   19    1   18     -1.51      0.00
  -22    2   18     -2.20      0.00
  -20    2   18      1.28      0.00
  -18    2   18     -3.33      0.00
   14    2   18      0.74      0.00
   16    2   18     -1.96      0.00
   18    2   18      2.56      0.00
   20    2   18     -0.88      0.00
  -23    3   18      0.55      0.00
  -21    3   18     -0.58      0.00
  -19    3   18      1.78      0.00
  -17    3   18     -1.31      0.00
   15    3   18      0.23      0.00
   17    3   18     -0.18      0.00
   19    3   18     -2.31      0.00
  -22    4   18      0.55      0.00
  -20    4   18      0.34      0.00
  -18    4   18     -1.90      0.00
   -6    4   18      3.28      0.00
   14    4   18      0.23      0.00
   16    4   18     -0.87      0.00
   18    4   18      1.92      0.00
   20    4   18     -0.65      0.00
  -23    5   18     -1.36      0.00
  -21    5   18      0.09      0.00
  -19    5   18      1.65      0.00
  -17    5   18     -0.13      0.00
   13    5   18     -0.28      0.00
   15    5   18      0.22      0.00
   17    5   18      0.06      0.00
   19    5   18     -2.18      0.00
  -22    6   18      0.36      0.00
  -20    6   18     -0.64      0.00
  -18    6   18     -0.63      0.00
  -16    6   18      0.75      0.00
   -6    6   18      3.04      0.00
   12    6   18     -1.90      0.00
   14    6   18     -0.52      0.00
   16    6   18     -0.67      0.00
   18    6   18      2.15      0.00
  -21    7   18     -0.29      0.00
  -19    7   18     -0.21      0.00
  -17    7   18      1.58      0.00
  -15    7   18     -0.61      0.00
   13    7   18     -1.24      0.00
   15    7   18      1.17      0.00
   17    7   18     -0.54      0.00
   19    7   18     -1.20      0.00
  -22    8   18     -0.12      0.00
  -20    8   18      0.43      0.00
  -18    8   18     -0.58      0.00
  -16    8   18     -1.24      0.00
  -14    8   18      1.18      0.00
   -6    8   18      1.47      0.00
   12    8   18     -1.66      0.00
   14    8   18      0.60      0.00
   16    8   18     -0.05      0.00
   18    8   18      0.83      0.00
  -21    9   18      1.21      0.00
  -19    9   18     -1.13      0.00
  -17    9   18      0.61      0.00
  -15    9   18     -1.07      0.00
   -5    9   18     -0.06      0.00
   11    9   18      3.65      0.00
   13    9   18     -1.37      0.00
   15    9   18      2.24      0.00
   17    9   18     -1.76      0.00
  -20   10   18      0.68      0.00
  -18   10   18      1.09      0.00
  -16   10   18     -1.65      0.00
  -14   10   18      0.70      0.00
  -12   10   18      1.06      0.00
   10   10   18      1.54      0.00
   12   10   18     -1.37      0.00
   14   10   18      0.28      0.00
   16   10   18     -0.19      0.00
  -19   11   18     -2.10      0.00
  -17   11   18      1.46      0.00
  -15   11   18      0.72      0.00
  -13   11   18     -0.43      0.00
  -11   11   18     -2.26      0.00
    7   11   18     -0.23      0.00
    9   11   18     -1.38      0.00
   11   11   18      2.02      0.00
   13   11   18     -1.66      0.00
   15   11   18      1.14      0.00
  -18   12   18      1.90      0.00
  -16   12   18     -1.28      0.00
  -14   12   18      0.52      0.00
  -12   12   18      0.14      0.00
  -10   12   18     -1.23      0.00
    6   12   18      3.52      0.00
    8   12   18     -1.90      0.00
   10   12   18      2.04      0.00
   12   12   18     -1.86      0.00
   14   12   18      0.70      0.00
  -17   13   18      0.70      0.00
  -15   13   18     -0.75      0.00
  -13   13   18      0.22      0.00
  -11   13   18      0.22      0.00
   -9   13   18      1.78      0.00
   -7   13   18     -1.68      0.00
    1   13   18     -4.04      0.00
    3   13   18      0.96      0.00
    5   13   18      2.03      0.00
    7   13   18     -2.51      0.00
    9   13   18      2.06      0.00
   11   13   18     -0.94      0.00
   13   13   18     -0.73      0.00
  -16   14   18     -1.05      0.00
  -14   14   18      0.62      0.00
  -12   14   18      0.00      0.00
  -10   14   18     -0.17      0.00
   -8   14   18     -0.46      0.00
   -6   14   18      0.94      0.00
   -4   14   18      0.90      0.00
   -2   14   18     -2.68      0.00
    0   14   18     -0.11      0.00
    2   14   18      4.49      0.00
    4   14   18     -5.97      0.00
    6   14   18      5.84      0.00
    8   14   18     -4.42      0.00
   10   14   18      1.82      0.00
   12   14   18     -1.34      0.00
  -15   15   18     -1.50      0.00
  -13   15   18      1.22      0.00
  -11   15   18      0.35      0.00
   -9   15   18     -0.47      0.00
   -7   15   18     -0.15      0.00
   -5   15   18     -1.30      0.00
   -3   15   18      1.57      0.00
   -1   15   18      1.44      0.00
    1   15   18     -2.86      0.00
    3   15   18      1.07      0.00
    5   15   18      1.49      0.00
    7   15   18     -3.82      0.00
    9   15   18      3.95      0.00
   11   15   18     -1.93      0.00
  -14   16   18     -0.01      0.00
  -12   16   18     -1.38      0.00
  -10   16   18     -0.09      0.00
   -8   16   18     -0.05      0.00
   -6   16   18      1.24      0.00
   -4   16   18      0.09      0.00
   -2   16   18     -1.33      0.00
    0   16   18      0.05      0.00
    2   16   18      1.96      0.00
    4   16   18     -3.57      0.00
    6   16   18      4.58      0.00
    8   16   18     -3.90      0.00
   10   16   18      1.52      0.00
  -11   17   18     -0.45      0.00
   -9   17   18     -0.13      0.00
   -7   17   18      0.60      0.00
   -5   17   18     -1.24      0.00
   -3   17   18      1.06      0.00
   -1   17   18     -0.25      0.00
    1   17   18      0.18      0.00
    3   17   18     -0.30      0.00
    5   17   18      0.29      0.00
    7   17   18     -2.18      0.00
    9   17   18      4.24      0.00
  -10   18   18      0.77      0.00
   -8   18   18     -0.19      0.00
   -6   18   18      0.66      0.00
   -4   18   18     -0.95      0.00
   -2   18   18      0.22      0.00
    0   18   18     -0.03      0.00
    2   18   18      0.00      0.00
    4   18   18     -0.54      0.00
    6   18   18      2.05      0.00
   -7   19   18     -0.53      0.00
   -5   19   18      0.15      0.00
   -3   19   18      0.36      0.00
   -1   19   18     -0.46      0.00
    1   19   18      0.37      0.00
    3   19   18      0.19      0.00
  -21    1   19      0.54      0.00
  -19    1   19     -0.45      0.00
  -17    1   19      0.68      0.00
  -15    1   19      0.67      0.00
  -13    1   19     -1.92      0.00
   11    1   19     -0.83      0.00
   13    1   19      0.04      0.00
   15    1   19      0.21      0.00
   17    1   19     -0.51      0.00
  -20    2   19     -0.58      0.00
  -18    2   19      1.43      0.00
  -16    2   19     -2.19      0.00
  -14    2   19      1.90      0.00
   10    2   19      0.70      0.00
   12    2   19      0.41      0.00
   14    2   19     -3.16      0.00
   16    2   19      2.96      0.00
  -21    3   19      0.27      0.00
  -19    3   19     -1.43      0.00
  -17    3   19      1.78      0.00
  -15    3   19      0.70      0.00
  -13    3   19     -2.72      0.00
    9    3   19     -1.32      0.00
   11    3   19     -0.26      0.00
   13    3   19      1.01      0.00
   15    3   19      0.69      0.00
   17    3   19     -1.81      0.00
  -20    4   19     -0.94      0.00
  -18    4   19      1.15      0.00
  -16    4   19     -3.40      0.00
  -14    4   19      3.59      0.00
   10    4   19      0.60      0.00
   12    4   19      1.60      0.00
   14    4   19     -3.13      0.00
   16    4   19      3.45      0.00
  -19    5   19     -1.69      0.00
  -17    5   19      1.52      0.00
  -15    5   19     -1.44      0.00
  -13    5   19     -0.18      0.00
   -5    5   19     -1.34      0.00
    9    5   19     -2.02      0.00
   11    5   19     -0.09      0.00
   13    5   19      0.93      0.00
   15    5   19      1.07      0.00
   17    5   19     -2.36      0.00
  -20    6   19     -0.42      0.00
  -18    6   19      0.97      0.00
  -16    6   19     -2.22      0.00
  -14    6   19      3.41      0.00
  -12    6   19     -3.41      0.00
   -4    6   19     -0.13      0.00
   -2    6   19     -1.71      0.00
    8    6   19     -0.45      0.00
   10    6   19      0.99      0.00
   12    6   19      0.73      0.00
   14    6   19     -2.75      0.00
   16    6   19      2.76      0.00
  -19    7   19     -1.43      0.00
  -17    7   19      2.38      0.00
  -15    7   19     -1.91      0.00
  -13    7   19      0.47      0.00
  -11    7   19      0.13      0.00
    7    7   19      1.96      0.00
    9    7   19      0.04      0.00
   11    7   19     -1.10      0.00
   13    7   19      0.46      0.00
   15    7   19      0.09      0.00
  -18    8   19      1.21      0.00
  -16    8   19      0.14      0.00
  -14    8   19      1.07      0.00
  -12    8   19     -2.68      0.00
  -10    8   19      1.29      0.00
    6    8   19      0.94      0.00
    8    8   19     -2.43      0.00
   10    8   19      1.75      0.00
   12    8   19     -0.18      0.00
   14    8   19     -1.32      0.00
  -17    9   19      0.49      0.00
  -15    9   19     -1.67      0.00
  -13    9   19      1.94      0.00
  -11    9   19     -0.14      0.00
   -9    9   19      0.37      0.00
   -7    9   19     -0.28      0.00
    3    9   19      0.59      0.00
    5    9   19     -1.80      0.00
    7    9   19      0.64      0.00
    9    9   19      1.96      0.00
   11    9   19     -2.19      0.00
   13    9   19      1.03      0.00
   15    9   19     -0.44      0.00
  -18   10   19     -0.37      0.00
  -16   10   19      0.46      0.00
  -14   10   19     -0.76      0.00
  -12   10   19      0.92      0.00
  -10   10   19      0.07      0.00
   -8   10   19     -1.66      0.00
   -6   10   19      1.15      0.00
   -4   10   19      1.75      0.00
   -2   10   19     -3.11      0.00
    0   10   19      1.56      0.00
    2   10   19     -0.21      0.00
    4   10   19     -1.09      0.00
    6   10   19      3.79      0.00
    8   10   19     -4.17      0.00
   10   10   19      1.51      0.00
   12   10   19     -0.72      0.00
   14   10   19      1.19      0.00
  -17   11   19     -0.09      0.00
  -15   11   19     -1.40      0.00
  -13   11   19      2.44      0.00
  -11   11   19     -1.89      0.00
   -9   11   19      1.32      0.00
   -7   11   19      0.36      0.00
   -5   11   19     -2.46      0.00
   -3   11   19      1.55      0.00
   -1   11   19      1.18      0.00
    1   11   19     -2.55      0.00
    3   11   19      2.97      0.00
    5   11   19     -1.85      0.00
    7   11   19     -1.46      0.00
    9   11   19      2.81      0.00
   11   11   19     -1.22      0.00
   13   11   19      0.91      0.00
  -16   12   19      2.04      0.00
  -14   12   19     -1.53      0.00
  -12   12   19     -0.15      0.00
  -10   12   19      0.64      0.00
   -8   12   19     -1.96      0.00
   -6   12   19      2.30      0.00
   -4   12   19      1.13      0.00
   -2   12   19     -3.29      0.00
    0   12   19      1.56      0.00
    2   12   19      0.07      0.00
    4   12   19     -1.46      0.00
    6   12   19      3.51      0.00
    8   12   19     -3.06      0.00
   10   12   19      0.78      0.00
   12   12   19     -0.80      0.00
  -13   13   19      1.88      0.00
  -11   13   19     -2.48      0.00
   -9   13   19      1.49      0.00
   -7   13   19      1.70      0.00
   -5   13   19     -3.42      0.00
   -3   13   19      1.45      0.00
   -1   13   19      0.73      0.00
    1   13   19     -0.92      0.00
    3   13   19      1.29      0.00
    5   13   19     -1.18      0.00
    7   13   19     -1.45      0.00
    9   13   19      3.05      0.00
   11   13   19     -1.29      0.00
  -12   14   19     -1.08      0.00
  -10   14   19      2.54      0.00
   -8   14   19     -3.14      0.00
   -6   14   19      1.79      0.00
   -4   14   19      0.14      0.00
   -2   14   19     -0.48      0.00
    0   14   19      0.54      0.00
    2   14   19     -1.18      0.00
    4   14   19     -0.17      0.00
    6   14   19      1.90      0.00
    8   14   19     -0.42      0.00
  -11   15   19     -0.49      0.00
   -9   15   19     -0.66      0.00
   -7   15   19      1.59      0.00
   -5   15   19     -2.01      0.00
   -3   15   19      1.14      0.00
   -1   15   19     -0.83      0.00
    1   15   19      1.30      0.00
    3   15   19     -0.47      0.00
    5   15   19     -0.14      0.00
    7   15   19     -1.44      0.00
   -8   16   19     -2.05      0.00
   -6   16   19      0.78      0.00
   -4   16   19     -0.32      0.00
   -2   16   19      1.48      0.00
    0   16   19     -1.52      0.00
    2   16   19     -0.43      0.00
    4   16   19      1.42      0.00
   -5   17   19      0.40      0.00
   -3   17   19     -1.05      0.00
   -1   17   19     -0.31      0.00
    1   17   19      1.59      0.00
  -18    0   20      3.60      0.00
  -16    0   20     -4.21      0.00
  -14    0   20      1.98      0.00
  -12    0   20      1.29      0.00
  -10    0   20     -1.92      0.00
   -8    0   20      0.56      0.00
   -6    0   20     -0.34      0.00
    2    0   20     -0.87      0.00
    4    0   20      0.84      0.00
    6    0   20     -3.80      0.00
    8    0   20      3.68      0.00
   10    0   20     -1.68      0.00
   12    0   20      1.53      0.00
   14    0   20     -2.22      0.00
  -17    1   20     -0.10      0.00
  -15    1   20      2.54      0.00
  -13    1   20     -3.18      0.00
  -11    1   20      3.15      0.00
   -9    1   20     -0.82      0.00
   -7    1   20     -1.32      0.00
   -5    1   20     -0.56      0.00
    1    1   20     -1.54      0.00
    3    1   20     -0.38      0.00
    5    1   20      1.31      0.00
    7    1   20      0.64      0.00
    9    1   20     -3.14      0.00
   11    1   20      2.69      0.00
   13    1   20     -0.81      0.00
  -18    2   20      2.64      0.00
  -16    2   20     -2.37      0.00
  -14    2   20      1.12      0.00
  -12    2   20     -0.49      0.00
  -10    2   20     -1.94      0.00
   -8    2   20      2.55      0.00
   -6    2   20      0.58      0.00
   -4    2   20     -0.18      0.00
   -2    2   20     -2.52      0.00
    0    2   20      1.21      0.00
    2    2   20      0.13      0.00
    4    2   20      1.44      0.00
    6    2   20     -3.13      0.00
    8    2   20      3.46      0.00
   10    2   20     -1.53      0.00
   12    2   20      0.17      0.00
   14    2   20     -1.66      0.00
  -17    3   20      0.73      0.00
  -15    3   20      0.41      0.00
  -13    3   20     -1.64      0.00
  -11    3   20      1.56      0.00
   -9    3   20     -0.37      0.00
   -7    3   20     -0.51      0.00
   -5    3   20      1.02      0.00
   -3    3   20     -0.46      0.00
   -1    3   20     -0.36      0.00
    1    3   20      0.43      0.00
    3    3   20     -1.42      0.00
    5    3   20      1.69      0.00
    7    3   20      0.57      0.00
    9    3   20     -2.03      0.00
   11    3   20      1.59      0.00
   13    3   20     -0.71      0.00
  -16    4   20      0.35      0.00
  -14    4   20      0.15      0.00
  -12    4   20     -0.89      0.00
  -10    4   20     -1.59      0.00
   -8    4   20      3.14      0.00
   -6    4   20     -1.02      0.00
   -4    4   20     -0.95      0.00
   -2    4   20      0.92      0.00
    0    4   20     -0.67      0.00
    2    4   20      0.34      0.00
    4    4   20      0.98      0.00
    6    4   20     -2.30      0.00
    8    4   20      2.07      0.00
   10    4   20     -0.35      0.00
   12    4   20     -0.95      0.00
   14    4   20      0.36      0.00
  -17    5   20      0.22      0.00
  -15    5   20     -1.19      0.00
  -13    5   20      0.77      0.00
  -11    5   20      2.29      0.00
   -9    5   20     -0.96      0.00
   -7    5   20     -3.32      0.00
   -5    5   20      2.40      0.00
   -3    5   20     -0.04      0.00
   -1    5   20      0.11      0.00
    1    5   20      1.50      0.00
    3    5   20     -2.91      0.00
    5    5   20      1.67      0.00
    7    5   20     -0.49      0.00
    9    5   20     -0.51      0.00
   11    5   20      0.65      0.00
   13    5   20      0.70      0.00
  -16    6   20      0.21      0.00
  -14    6   20      0.74      0.00
  -12    6   20      0.42      0.00
  -10    6   20     -2.82      0.00
   -8    6   20      3.11      0.00
   -6    6   20     -1.20      0.00
   -4    6   20     -1.09      0.00
   -2    6   20      2.39      0.00
    0    6   20     -2.01      0.00
    2    6   20      0.71      0.00
    4    6   20      0.38      0.00
    6    6   20     -0.78      0.00
    8    6   20      0.64      0.00
   10    6   20     -0.07      0.00
   12    6   20     -1.14      0.00
  -15    7   20     -0.97      0.00
  -13    7   20     -0.20      0.00
  -11    7   20      2.00      0.00
   -9    7   20     -0.42      0.00
   -7    7   20     -2.43      0.00
   -5    7   20      3.03      0.00
   -3    7   20     -1.35      0.00
   -1    7   20     -0.71      0.00
    1    7   20      1.42      0.00
    3    7   20     -1.43      0.00
    5    7   20      2.08      0.00
    7    7   20     -2.38      0.00
    9    7   20      1.20      0.00
   11    7   20     -0.09      0.00
  -14    8   20      0.79      0.00
  -12    8   20     -0.75      0.00
  -10    8   20     -2.57      0.00
   -8    8   20      3.89      0.00
   -6    8   20     -0.40      0.00
   -4    8   20     -1.51      0.00
   -2    8   20      0.68      0.00
    0    8   20     -1.27      0.00
    2    8   20      1.91      0.00
    4    8   20     -1.11      0.00
    6    8   20      0.19      0.00
    8    8   20      0.77      0.00
   10    8   20     -0.69      0.00
   12    8   20     -0.74      0.00
  -15    9   20     -1.01      0.00
  -13    9   20     -1.44      0.00
  -11    9   20      1.69      0.00
   -9    9   20      0.06      0.00
   -7    9   20     -1.11      0.00
   -5    9   20      1.06      0.00
   -3    9   20     -0.98      0.00
   -1    9   20      0.94      0.00
    1    9   20     -0.50      0.00
    3    9   20     -0.69      0.00
    5    9   20      2.46      0.00
    7    9   20     -3.23      0.00
    9    9   20      1.96      0.00
   11    9   20     -0.31      0.00
  -14   10   20      1.61      0.00
  -12   10   20     -0.75      0.00
  -10   10   20     -0.62      0.00
   -8   10   20      0.91      0.00
   -6   10   20     -0.94      0.00
   -4   10   20      0.42      0.00
   -2   10   20      0.43      0.00
    0   10   20     -0.37      0.00
    2   10   20      1.02      0.00
    4   10   20     -2.38      0.00
    6   10   20      0.91      0.00
    8   10   20      2.17      0.00
   10   10   20     -2.08      0.00
  -11   11   20      1.00      0.00
   -9   11   20     -1.23      0.00
   -7   11   20     -0.03      0.00
   -5   11   20      0.36      0.00
   -3   11   20     -0.17      0.00
   -1   11   20      1.29      0.00
    1   11   20     -1.89      0.00
    3   11   20      0.05      0.00
    5   11   20      2.25      0.00
    7   11   20     -2.65      0.00
    9   11   20      1.40      0.00
  -10   12   20      0.60      0.00
   -8   12   20     -0.40      0.00
   -6   12   20     -0.49      0.00
   -4   12   20      0.92      0.00
   -2   12   20     -0.77      0.00
    0   12   20      0.06      0.00
    2   12   20      1.14      0.00
    4   12   20     -1.08      0.00
    6   12   20     -0.66      0.00
   -9   13   20     -0.53      0.00
   -7   13   20      1.10      0.00
   -5   13   20      0.05      0.00
   -3   13   20     -1.26      0.00
   -1   13   20      0.83      0.00
    1   13   20     -0.93      0.00
    3   13   20      1.22      0.00
    5   13   20      0.62      0.00
   -6   14   20     -1.27      0.00
   -4   14   20      0.71      0.00
   -2   14   20     -0.44      0.00
    0   14   20      0.37      0.00
    2   14   20      0.15      0.00
    0    0    0      0.00      0.00
# SQUEEZE RESULTS (Version =  30715)
# Note: Data are Listed for all Voids in the P1 Unit Cell
# i.e. Centre of Gravity, Solvent Accessible Volume,
# Recovered number of Electrons in the Void and
# Details about the Squeezed Material
loop_
  _platon_squeeze_void_nr
  _platon_squeeze_void_average_x
  _platon_squeeze_void_average_y
  _platon_squeeze_void_average_z
  _platon_squeeze_void_volume
  _platon_squeeze_void_count_electrons
  _platon_squeeze_void_content
   1  0.193  0.520  0.232       140        31 ' '
   2  0.693  0.020  0.232       140        31 ' '
   3  0.307  1.020  0.268       140        31 ' '
   4  0.807  0.520  0.268       140        31 ' '
   5  0.397  0.310  0.206        11         1 ' '
   6  0.897  0.810  0.206        11         1 ' '
   7  0.103  0.810  0.294        11         1 ' '
   8  0.603  0.310  0.294        11         1 ' '
   9  0.193  0.480  0.732       140        31 ' '
  10  0.693  0.980  0.732       140        31 ' '
  11  0.307 -0.020  0.768       140        31 ' '
  12  0.807  0.480  0.768       140        31 ' '
  13  0.397  0.690  0.706        11         1 ' '
  14  0.897  0.190  0.706        11         1 ' '
  15  0.103  0.190  0.794        11         1 ' '
  16  0.603  0.690  0.794        11         1 ' '
_platon_squeeze_void_probe_radius                  1.20
_platon_squeeze_details
)
TITL ZC012909mmC4Co_0m_a.res in C2/c
CELL   29.0600   25.5350   17.0290     90.00     93.26     90.00
SPGR C2/c
# Solvent Accessible Volume =    1269.9
# Electrons Found in S.A.V. =     253.0
# Note: Atoms in Void as Cxxx and Qxxx all others
C101 0.202 0.470 0.264 !       1.99 eA-3
Q102 1.000 0.422 0.246 !       1.92 eA-3
Q103 0.943 0.094 0.094 !       1.71 eA-3
C104 0.301 0.048 0.171 !       1.71 eA-3
Q105 0.833 0.405 0.473 !       1.58 eA-3
C106 0.337 0.030 0.331 !       1.51 eA-3
C107 0.180 0.492 0.248 !       1.50 eA-3
Q108 0.115 0.071 0.404 !       1.50 eA-3
Q109 0.657 0.720 0.454 !       1.44 eA-3
Q110 0.157 0.220 0.454 !       1.44 eA-3
C111 0.727 0.047 0.295 !       1.38 eA-3
Q112 0.745 0.115 0.341 !       1.33 eA-3
C113 0.296 0.009 0.220 !       1.33 eA-3
C114 0.207 0.482 0.141 !       1.30 eA-3
Q115 0.699 0.056 0.378 !       1.28 eA-3
Q116 0.975 0.053 0.224 !       1.28 eA-3
C117 0.312 0.032 0.251 !       1.28 eA-3
Q118 0.372 0.438 0.184 !       1.27 eA-3
C119 0.820 0.468 0.393 !       1.27 eA-3
C120 0.308 0.060 0.219 !       1.26 eA-3
Q121 0.110 0.118 0.419 !       1.23 eA-3
Q122 0.353 0.385 0.208 !       1.23 eA-3
Q123 0.972 0.030 0.264 !       1.18 eA-3
C124 0.366 0.034 0.296 !       1.17 eA-3
Q125 0.602 0.256 0.032 !       1.16 eA-3
Q126 0.936 0.203-0.001 !       1.16 eA-3
Q127 0.635 0.250-0.003 !       1.15 eA-3
Q128 0.388 0.119 0.250 !       1.15 eA-3
C129 0.328 0.032 0.123 !       1.15 eA-3
C130 0.278 0.078 0.221 !       1.14 eA-3
Q131 0.900 0.226 0.017 !       1.14 eA-3
C132 0.755 0.053 0.282 !       1.14 eA-3
C133 0.673 0.015 0.219 !       1.13 eA-3
Q134 0.217 0.437 0.157 !       1.13 eA-3
Q135 0.145 0.070 0.359 !       1.12 eA-3
C136 0.282 0.046 0.264 !       1.12 eA-3
C137 0.707 0.006 0.092 !       1.12 eA-3
C138 0.748 0.008 0.204 !       1.11 eA-3
C139 0.807 0.493 0.171 !       1.11 eA-3
Q140 0.930 0.368 0.061 !       1.10 eA-3
Q141 0.709 0.125 0.280 !       1.08 eA-3
Q142 0.977 0.243 0.192 !       1.08 eA-3
Q143 0.295 0.040 0.081 !       1.08 eA-3
C144 0.317 0.063 0.293 !       1.07 eA-3
Q145 0.033 0.093 0.485 !       1.07 eA-3
Q146 0.140 0.382 0.472 !       1.07 eA-3
C147 0.704 0.023 0.175 !       1.06 eA-3
C148 0.218 0.500 0.218 !       1.06 eA-3
Q149 0.456 0.249 0.454 !       1.05 eA-3
C150 0.767 0.481 0.250 !       1.03 eA-3
C151 0.217 0.069 0.267 !       1.03 eA-3
Q152 0.982 0.250 0.298 !       1.03 eA-3
C153 0.276 0.016 0.172 !       1.03 eA-3
C154 0.722 0.071 0.341 !       1.02 eA-3
C155 0.291 0.110 0.248 !       1.02 eA-3
Q156 0.243 0.007 0.206 !       1.02 eA-3
C157 0.635 0.018 0.157 !       1.02 eA-3
C158 0.758 0.064 0.186 !       0.99 eA-3
Q159 0.884 0.029 0.051 !       0.98 eA-3
Q160 0.922 0.109 0.435 !       0.98 eA-3
Q161 0.800 0.132 0.264 !       0.98 eA-3
Q162 0.018 0.072 0.407 !       0.96 eA-3
C163 0.239 0.500 0.141 !       0.96 eA-3
Q164 0.982 0.387 0.142 !       0.95 eA-3
Q165 0.917 0.133 0.123 !       0.94 eA-3
Q166 0.570 0.239 0.233 !       0.93 eA-3
Q167 0.006 0.079 0.093 !       0.92 eA-3
Q168 0.777 0.033 0.203 !       0.92 eA-3
Q169 0.898 0.116 0.375 !       0.92 eA-3
Q170 0.566 0.197 0.005 !       0.91 eA-3
Q171 0.113 0.102 0.343 !       0.91 eA-3
Q172 0.995 0.117 0.451 !       0.91 eA-3
Q173 0.730 0.079 0.158 !       0.90 eA-3
Q174 0.755 0.476 0.312 !       0.89 eA-3
Q175 0.732 0.040 0.108 !       0.89 eA-3
Q176 0.037 0.198 0.279 !       0.89 eA-3
C177 0.758 0.492 0.404 !       0.88 eA-3
Q178 0.718 0.118 0.344 !       0.88 eA-3
Q179 0.292 0.111 0.314 !       0.88 eA-3
Q180 0.858 0.205 0.109 !       0.88 eA-3
Q181 0.923 0.354 0.031 !       0.88 eA-3
Q182 0.690 0.004 0.030 !       0.88 eA-3
Q183 0.680 0.255 0.157 !       0.87 eA-3
Q184 0.226 0.431 0.239 !       0.87 eA-3
Q185 0.646 0.110 0.248 !       0.87 eA-3
Q186 0.096 0.197 0.452 !       0.85 eA-3
C187 0.654 0.061 0.231 !       0.85 eA-3
Q188 0.998 0.048 0.062 !       0.85 eA-3
Q189 0.225 0.217 0.469 !       0.84 eA-3
Q190 0.083 0.171 0.218 !       0.84 eA-3
Q191 0.320 0.432 0.120 !       0.84 eA-3
C192 0.854 0.483 0.404 !       0.83 eA-3
C193 0.334 0.038 0.187 !       0.83 eA-3
Q194 0.192 0.243 0.453 !       0.83 eA-3
Q195 0.508 0.238 0.064 !       0.83 eA-3
Q196 0.716 0.069 0.204 !       0.83 eA-3
Q197 0.834 0.147 0.282 !       0.82 eA-3
Q198 0.230 0.101 0.283 !       0.82 eA-3
Q199 0.986 0.162 0.266 !       0.82 eA-3
)
;
_shelx_fab_checksum              50947
loop_
_space_group_symop_operation_xyz
'x, y, z'
'-x, y, -z+1/2'
'x+1/2, y+1/2, z'
'-x+1/2, y+1/2, -z+1/2'
'-x, -y, -z'
'x, -y, z-1/2'
'-x+1/2, -y+1/2, -z'
'x+1/2, -y+1/2, z-1/2'
loop_
_atom_site_label
_atom_site_type_symbol
_atom_site_fract_x
_atom_site_fract_y
_atom_site_fract_z
_atom_site_U_iso_or_equiv
_atom_site_adp_type
_atom_site_occupancy
_atom_site_site_symmetry_order
_atom_site_calc_flag
_atom_site_refinement_flags_posn
_atom_site_refinement_flags_adp
_atom_site_refinement_flags_occupancy
Co2 Co 0.41301(7) 0.58711(7) 0.10050(12) 0.0591(7) Uani 1 1 d . . .
Co1 Co 0.5000 0.53258(10) 0.2500 0.0663(10) Uani 1 2 d S T P
Co3 Co 0.37349(7) 0.71915(8) 0.03180(11) 0.0567(7) Uani 1 1 d . . .
Co4 Co 0.39192(8) 0.86145(8) 0.06296(11) 0.0665(8) Uani 1 1 d . . .
O5 O 0.5859(3) 0.6572(3) 0.4567(4) 0.050(2) Uani 1 1 d . . .
O6 O 0.5247(3) 0.5789(3) 0.4501(4) 0.051(2) Uiso 1 1 d . . .
O9 O 0.3604(3) 0.6125(3) 0.1675(5) 0.058(2) Uani 1 1 d . . .
O3 O 0.5491(3) 0.8349(3) 0.4791(4) 0.051(2) Uani 1 1 d . . .
O4 O 0.5700(3) 0.7473(3) 0.5270(4) 0.049(2) Uani 1 1 d . . .
O7 O 0.4687(3) 0.5439(3) 0.3565(5) 0.068(3) Uani 1 1 d . . .
O12 O 0.3849(3) 0.8660(3) 0.1885(4) 0.057(2) Uani 1 1 d . . .
O10 O 0.3335(3) 0.6967(3) 0.1245(4) 0.057(2) Uani 1 1 d . . .
O11 O 0.3711(3) 0.7867(3) 0.0867(4) 0.061(2) Uani 1 1 d . . .
O8 O 0.4400(3) 0.5624(3) 0.2058(5) 0.061(2) Uani 1 1 d . . .
O1 O 0.4394(4) 0.9093(3) 0.2928(5) 0.076(3) Uani 1 1 d . . .
N3P N 0.3669(4) 0.5551(4) 0.0168(6) 0.062(3) Uiso 1 1 d . . .
O2N O 0.3208(4) 0.8893(5) 0.0393(6) 0.094(3) Uani 1 1 d . . .
O3N O 0.3558(4) 0.8548(4) -0.0547(5) 0.085(3) Uani 1 1 d . . .
C10 C 0.5333(4) 0.7134(4) 0.5176(6) 0.045(3) Uani 1 1 d . . .
C26 C 0.3655(4) 0.8206(4) 0.2159(6) 0.042(3) Uani 1 1 d . . .
N4P N 0.5000 0.4524(5) 0.2500 0.065(5) Uani 1 2 d S T P
C18 C 0.4156(5) 0.5808(5) 0.2680(7) 0.058(3) Uiso 1 1 d . . .
C16 C 0.4088(4) 0.5990(5) 0.4038(6) 0.050(3) Uiso 1 1 d . . .
C2 C 0.4131(4) 0.8519(4) 0.3900(6) 0.045(3) Uani 1 1 d . . .
C3 C 0.4481(5) 0.8784(4) 0.3577(6) 0.050(3) Uani 1 1 d . . .
N1P N 0.4106(4) 0.9392(4) 0.0486(6) 0.071(3) Uani 1 1 d . . .
C25 C 0.3587(4) 0.7805(5) 0.1619(6) 0.048(3) Uiso 1 1 d . . .
C11 C 0.5439(4) 0.6656(4) 0.4867(6) 0.044(3) Uani 1 1 d . . .
C22 C 0.3365(4) 0.7651(5) 0.3135(7) 0.055(3) Uani 1 1 d . . .
H22 H 0.3283 0.7600 0.3662 0.066 Uiso 1 1 calc R U .
C17 C 0.4313(5) 0.5750(5) 0.3440(6) 0.053(3) Uiso 1 1 d . . .
C15P C 0.3822(5) 0.5349(4) -0.0499(7) 0.051(3) Uani 1 1 d . . .
H15P H 0.4145 0.5314 -0.0542 0.061 Uiso 1 1 calc R U .
C23 C 0.3301(4) 0.7241(4) 0.2613(6) 0.046(3) Uani 1 1 d . . .
C9 C 0.4893(5) 0.7256(4) 0.5379(5) 0.048(3) Uani 1 1 d . . .
C20 C 0.3530(4) 0.6340(5) 0.3061(6) 0.050(3) Uiso 1 1 d . . .
C1 C 0.4234(5) 0.8212(4) 0.4558(6) 0.049(3) Uani 1 1 d . . .
H1 H 0.3991 0.8032 0.4793 0.059 Uiso 1 1 calc R U .
N2P N 0.3288(4) 0.7093(4) -0.0571(6) 0.066(3) Uani 1 1 d D . .
C19 C 0.3759(4) 0.6094(5) 0.2476(7) 0.054(3) Uani 1 1 d . . .
C6 C 0.4695(4) 0.8160(4) 0.4896(6) 0.044(3) Uani 1 1 d . . .
C7 C 0.4789(4) 0.7805(4) 0.5621(6) 0.051(3) Uani 1 1 d D . .
H7 H 0.5076 0.7942 0.5901 0.061 Uiso 1 1 calc R U .
C12 C 0.5103(4) 0.6267(5) 0.4803(6) 0.046(3) Uiso 1 1 d . . .
C18P C 0.5227(5) 0.4249(5) 0.1956(6) 0.065(4) Uani 1 1 d . . .
H18P H 0.5389 0.4435 0.1575 0.078 Uiso 1 1 calc R U .
C14 C 0.4298(4) 0.5949(4) 0.4890(7) 0.059(4) Uani 1 1 d D . .
H14 H 0.4463 0.5605 0.4933 0.070 Uiso 1 1 calc R U .
C27 C 0.3545(4) 0.8144(4) 0.2926(6) 0.049(3) Uani 1 1 d . . .
C21 C 0.3110(4) 0.6713(5) 0.2851(7) 0.058(3) Uani 1 1 d D . .
H21 H 0.2952 0.6564 0.2364 0.070 Uiso 1 1 calc R U .
C15 C 0.3703(4) 0.6292(4) 0.3827(7) 0.054(3) Uani 1 1 d . . .
H15 H 0.3552 0.6472 0.4228 0.065 Uiso 1 1 calc R U .
C13 C 0.4648(4) 0.6357(4) 0.5009(6) 0.050(3) Uani 1 1 d . . .
C5 C 0.5047(5) 0.8409(4) 0.4542(6) 0.047(3) Uani 1 1 d . . .
C24 C 0.3408(4) 0.7331(5) 0.1830(7) 0.052(3) Uani 1 1 d . . .
C8 C 0.4565(5) 0.6861(5) 0.5273(6) 0.053(3) Uani 1 1 d . . .
H8 H 0.4258 0.6944 0.5391 0.064 Uiso 1 1 calc R U .
C28 C 0.3639(5) 0.8568(4) 0.3558(6) 0.055(3) Uani 1 1 d D . .
H28 H 0.3625 0.8910 0.3272 0.066 Uiso 1 1 calc R U .
N1N N 0.3202(6) 0.8709(6) -0.0302(9) 0.093(4) Uani 1 1 d . . .
C29 C 0.4403(4) 0.7834(5) 0.6219(6) 0.057(4) Uani 1 1 d D . .
H29A H 0.4105 0.7737 0.5948 0.068 Uiso 1 1 calc R U .
H29B H 0.4471 0.7577 0.6645 0.068 Uiso 1 1 calc R U .
C1P C 0.4300(5) 0.9540(5) -0.0169(7) 0.068(4) Uani 1 1 d . . .
H1P H 0.4330 0.9287 -0.0571 0.082 Uiso 1 1 calc R U .
C14P C 0.3533(6) 0.5192(5) -0.1121(7) 0.070(4) Uani 1 1 d . . .
H14P H 0.3651 0.5010 -0.1554 0.084 Uiso 1 1 calc R U .
O5N O 0.5000 0.9712(10) 0.2500 0.159(9) Uani 1 2 d S T P
C4 C 0.4934(6) 0.8728(4) 0.3863(7) 0.061(4) Uani 1 1 d . . .
H4 H 0.5173 0.8902 0.3607 0.073 Uiso 1 1 calc R U .
C37 C 0.2753(5) 0.6729(5) 0.3451(8) 0.069(4) Uani 1 1 d D . .
H37A H 0.2628 0.6370 0.3505 0.083 Uiso 1 1 calc R U .
H37B H 0.2908 0.6823 0.3964 0.083 Uiso 1 1 calc R U .
O1N O 0.2848(5) 0.8765(6) -0.0749(8) 0.126(5) Uani 1 1 d . . .
C41 C 0.3270(5) 0.8597(5) 0.4157(7) 0.067(4) Uani 1 1 d D . .
H41A H 0.3228 0.8244 0.4381 0.081 Uiso 1 1 calc R U .
H41B H 0.3380 0.8831 0.4592 0.081 Uiso 1 1 calc R U .
C2P C 0.4456(6) 1.0034(6) -0.0294(8) 0.084(5) Uani 1 1 d . . .
H2P H 0.4620 1.0111 -0.0747 0.101 Uiso 1 1 calc R U .
C17P C 0.5227(5) 0.3717(4) 0.1944(6) 0.069(4) Uani 1 1 d . . .
H17P H 0.5385 0.3536 0.1552 0.083 Uiso 1 1 calc R U .
C33 C 0.3918(5) 0.5936(6) 0.5482(9) 0.086(5) Uani 1 1 d D . .
H33A H 0.3810 0.6298 0.5565 0.103 Uiso 1 1 calc R U .
H33B H 0.3655 0.5732 0.5252 0.103 Uiso 1 1 calc R U .
O4N O 0.5321(7) 1.0449(6) 0.2143(9) 0.173(7) Uani 1 1 d . . .
C16P C 0.5000 0.3436(7) 0.2500 0.093(8) Uani 1 2 d S T P
H16P H 0.5000 0.3064 0.2500 0.112 Uiso 1 2 calc R U P
N2N N 0.5000 1.0219(8) 0.2500 0.108(7) Uani 1 2 d S T P
C30 C 0.4361(7) 0.8366(6) 0.6570(9) 0.110(6) Uani 1 1 d D . .
H30A H 0.4259 0.8615 0.6150 0.132 Uiso 1 1 calc R U .
H30B H 0.4668 0.8480 0.6785 0.132 Uiso 1 1 calc R U .
C3P C 0.4372(5) 1.0423(6) 0.0249(8) 0.072(4) Uani 1 1 d . . .
H3P H 0.4433 1.0781 0.0146 0.086 Uiso 1 1 calc R U .
C13P C 0.3070(6) 0.5303(6) -0.1106(9) 0.093(5) Uani 1 1 d . . .
H13P H 0.2863 0.5248 -0.1550 0.111 Uiso 1 1 calc R U .
C34 C 0.4054(8) 0.5724(7) 0.6197(11) 0.150(10) Uani 1 1 d D . .
H34A H 0.4327 0.5919 0.6413 0.180 Uiso 1 1 calc R U .
H34B H 0.4152 0.5357 0.6112 0.180 Uiso 1 1 calc R U .
C5P C 0.4085(7) 0.9765(6) 0.1052(9) 0.106(7) Uani 1 1 d . . .
H5P H 0.3987 0.9662 0.1551 0.127 Uiso 1 1 calc R U .
C11P C 0.3214(5) 0.5617(8) 0.0215(12) 0.121(8) Uani 1 1 d . . .
H11P H 0.3093 0.5747 0.0684 0.145 Uiso 1 1 calc R U .
C12P C 0.2928(7) 0.5495(9) -0.0420(14) 0.138(9) Uani 1 1 d . . .
H12P H 0.2607 0.5549 -0.0379 0.166 Uiso 1 1 calc R U .
C4P C 0.4195(7) 1.0263(6) 0.0947(8) 0.110(7) Uani 1 1 d . . .
H4P H 0.4153 1.0511 0.1352 0.132 Uiso 1 1 calc R U .
C7P C 0.2510(9) 0.6875(11) -0.1052(15) 0.24(2) Uani 1 1 d D . .
H7P H 0.2210 0.6774 -0.0919 0.288 Uiso 1 1 calc R U .
C35 C 0.3683(11) 0.5723(15) 0.6829(18) 0.250 Uiso 1 1 d D U .
H35A H 0.3835 0.5655 0.7354 0.300 Uiso 1 1 calc R U .
H35B H 0.3535 0.6072 0.6843 0.300 Uiso 1 1 calc R U .
C8P C 0.2616(6) 0.6929(10) -0.1785(15) 0.146(9) Uani 1 1 d D . .
H8P H 0.2386 0.6905 -0.2203 0.175 Uiso 1 1 calc R U .
C31 C 0.4023(8) 0.8390(9) 0.7223(12) 0.141(8) Uani 1 1 d D . .
H31A H 0.3929 0.8759 0.7295 0.170 Uiso 1 1 calc R U .
H31B H 0.3744 0.8188 0.7058 0.170 Uiso 1 1 calc R U .
C42 C 0.2832(10) 0.8785(15) 0.3836(18) 0.250 Uiso 1 1 d D U .
H42A H 0.2714 0.8547 0.3412 0.300 Uiso 1 1 calc R U .
H42B H 0.2871 0.9137 0.3605 0.300 Uiso 1 1 calc R U .
C32 C 0.4195(12) 0.8203(15) 0.7916(18) 0.250 Uiso 1 1 d D U .
H32A H 0.3961 0.8231 0.8307 0.375 Uiso 1 1 calc R U .
H32B H 0.4281 0.7835 0.7856 0.375 Uiso 1 1 calc R U .
H32C H 0.4467 0.8407 0.8093 0.375 Uiso 1 1 calc R U .
C6P C 0.2861(7) 0.6973(8) -0.0474(14) 0.156(9) Uani 1 1 d D . .
H6P H 0.2776 0.6950 0.0055 0.188 Uiso 1 1 calc R U .
C38 C 0.2363(8) 0.7085(10) 0.3304(15) 0.188(13) Uani 1 1 d D . .
H38A H 0.2201 0.6985 0.2799 0.225 Uiso 1 1 calc R U .
H38B H 0.2486 0.7443 0.3240 0.225 Uiso 1 1 calc R U .
C36 C 0.3315(11) 0.5306(14) 0.665(2) 0.250 Uiso 1 1 d D U .
H36A H 0.3088 0.5315 0.7050 0.375 Uiso 1 1 calc R U .
H36B H 0.3161 0.5377 0.6130 0.375 Uiso 1 1 calc R U .
H36C H 0.3461 0.4960 0.6641 0.375 Uiso 1 1 calc R U .
C9P C 0.3083(10) 0.7025(13) -0.1935(17) 0.250 Uiso 1 1 d D U .
H9P H 0.3169 0.7046 -0.2464 0.300 Uiso 1 1 calc R U .
C39 C 0.2001(12) 0.7102(13) 0.395(2) 0.250 Uiso 1 1 d D U .
H39A H 0.1704 0.6960 0.3734 0.300 Uiso 1 1 calc R U .
H39B H 0.2108 0.6875 0.4399 0.300 Uiso 1 1 calc R U .
C10P C 0.3422(8) 0.7091(13) -0.1316(12) 0.228(17) Uani 1 1 d D . .
H10P H 0.3737 0.7133 -0.1422 0.273 Uiso 1 1 calc R U .
C43 C 0.2463(10) 0.8816(15) 0.452(2) 0.250 Uiso 1 1 d D U .
H43A H 0.2175 0.9000 0.4341 0.300 Uiso 1 1 calc R U .
H43B H 0.2390 0.8468 0.4734 0.300 Uiso 1 1 calc R U .
C44 C 0.2792(12) 0.9163(14) 0.5115(18) 0.250 Uiso 1 1 d D U .
H44A H 0.2632 0.9234 0.5595 0.375 Uiso 1 1 calc R U .
H44B H 0.3078 0.8971 0.5249 0.375 Uiso 1 1 calc R U .
H44C H 0.2866 0.9495 0.4862 0.375 Uiso 1 1 calc R U .
C40 C 0.1922(13) 0.7662(13) 0.426(2) 0.250 Uiso 1 1 d D U .
H40A H 0.1694 0.7652 0.4665 0.375 Uiso 1 1 calc R U .
H40B H 0.2214 0.7802 0.4492 0.375 Uiso 1 1 calc R U .
H40C H 0.1809 0.7886 0.3827 0.375 Uiso 1 1 calc R U .
C19P C 0.5155(8) 0.7242(10) 0.1726(14) 0.137(9) Uani 1 1 d D . .
C20P C 0.5449(7) 0.7268(12) 0.2317(16) 0.157(11) Uani 1 1 d D . .
C21P C 0.5288(16) 0.7273(15) 0.3111(18) 0.250 Uiso 1 1 d D U .
loop_
_atom_site_aniso_label
_atom_site_aniso_U_11
_atom_site_aniso_U_22
_atom_site_aniso_U_33
_atom_site_aniso_U_23
_atom_site_aniso_U_13
_atom_site_aniso_U_12
Co2 0.0459(14) 0.0448(12) 0.0930(14) -0.0185(10) 0.0610(11) -0.0204(10)
Co1 0.052(2) 0.0265(14) 0.129(2) 0.000 0.0798(18) 0.000
Co3 0.0526(14) 0.0604(13) 0.0619(11) -0.0090(9) 0.0442(10) -0.0119(11)
Co4 0.0829(18) 0.0521(13) 0.0705(12) 0.0090(10) 0.0580(12) 0.0008(12)
O5 0.041(5) 0.047(5) 0.066(4) 0.011(4) 0.047(4) 0.011(4)
O9 0.045(5) 0.046(5) 0.088(6) -0.016(4) 0.057(4) -0.022(4)
O3 0.042(5) 0.048(5) 0.067(5) -0.009(4) 0.038(4) 0.011(4)
O4 0.034(5) 0.071(5) 0.045(4) 0.008(4) 0.032(3) 0.015(4)
O7 0.061(6) 0.035(4) 0.117(7) 0.013(4) 0.074(5) 0.012(5)
O12 0.074(6) 0.036(4) 0.064(4) 0.015(3) 0.045(4) 0.000(4)
O10 0.047(5) 0.058(5) 0.073(5) -0.012(4) 0.050(4) -0.010(4)
O11 0.067(6) 0.067(6) 0.053(4) -0.004(4) 0.048(4) -0.009(5)
O8 0.062(6) 0.038(4) 0.089(6) -0.019(4) 0.066(5) -0.017(4)
O1 0.120(9) 0.056(5) 0.054(5) 0.014(4) 0.024(5) -0.014(6)
O2N 0.083(8) 0.128(9) 0.077(6) 0.019(6) 0.057(6) 0.031(7)
O3N 0.078(8) 0.096(8) 0.085(6) -0.004(5) 0.049(6) 0.002(6)
C10 0.034(7) 0.053(7) 0.053(6) 0.013(5) 0.037(5) 0.002(7)
C26 0.042(8) 0.039(6) 0.050(6) 0.002(5) 0.036(5) 0.005(6)
N4P 0.089(12) 0.046(8) 0.068(8) 0.000 0.070(8) 0.000
C2 0.063(9) 0.028(6) 0.045(6) -0.006(5) 0.019(6) 0.023(6)
C3 0.063(10) 0.037(7) 0.053(6) 0.005(5) 0.029(7) -0.002(7)
N1P 0.094(9) 0.061(7) 0.063(6) 0.010(5) 0.048(6) 0.005(7)
C11 0.045(8) 0.042(7) 0.050(6) 0.010(5) 0.032(5) 0.012(6)
C22 0.053(9) 0.051(7) 0.066(7) 0.008(6) 0.047(6) 0.031(7)
C15P 0.058(9) 0.030(6) 0.069(8) 0.002(5) 0.051(7) 0.013(6)
C23 0.038(7) 0.045(7) 0.061(6) 0.002(5) 0.039(5) 0.006(6)
C9 0.072(10) 0.040(7) 0.037(5) 0.008(5) 0.036(6) 0.007(7)
C1 0.071(10) 0.036(6) 0.047(6) 0.003(5) 0.053(6) 0.012(7)
N2P 0.031(7) 0.094(9) 0.077(7) 0.000(6) 0.040(6) -0.011(6)
C19 0.044(8) 0.048(7) 0.074(8) 0.007(6) 0.047(6) -0.018(7)
C6 0.050(8) 0.041(7) 0.044(5) -0.001(5) 0.029(6) 0.017(6)
C7 0.056(9) 0.050(7) 0.052(6) -0.003(5) 0.044(6) 0.015(6)
C18P 0.096(12) 0.052(8) 0.051(6) 0.011(6) 0.039(7) 0.025(8)
C14 0.059(9) 0.034(6) 0.090(8) 0.019(6) 0.067(7) 0.010(7)
C27 0.053(8) 0.039(7) 0.058(6) 0.011(5) 0.036(6) 0.031(6)
C21 0.042(8) 0.067(9) 0.069(7) 0.016(6) 0.042(6) -0.003(7)
C15 0.030(7) 0.046(7) 0.091(8) 0.000(6) 0.048(6) -0.009(6)
C13 0.052(8) 0.042(7) 0.063(6) 0.012(5) 0.050(6) 0.014(7)
C5 0.048(9) 0.039(7) 0.059(6) -0.008(5) 0.036(6) 0.008(7)
C24 0.040(8) 0.050(7) 0.071(7) -0.006(6) 0.046(6) -0.003(6)
C8 0.056(9) 0.064(8) 0.044(5) 0.010(5) 0.044(6) 0.014(8)
C28 0.079(11) 0.034(7) 0.054(6) 0.001(5) 0.027(7) 0.027(7)
N1N 0.074(11) 0.110(11) 0.102(10) 0.018(9) 0.059(9) 0.023(9)
C29 0.045(8) 0.080(9) 0.049(6) 0.003(6) 0.031(6) 0.037(7)
C1P 0.091(12) 0.062(8) 0.057(7) 0.017(6) 0.044(7) 0.003(8)
C14P 0.083(12) 0.072(9) 0.059(8) -0.005(7) 0.044(8) 0.015(9)
O5N 0.17(2) 0.138(19) 0.18(2) 0.000 0.104(17) 0.000
C4 0.087(12) 0.035(7) 0.067(7) -0.017(6) 0.054(8) -0.018(8)
C37 0.057(10) 0.067(9) 0.088(9) 0.003(7) 0.050(7) 0.017(8)
O1N 0.091(10) 0.174(14) 0.113(10) 0.006(9) 0.000(8) 0.010(9)
C41 0.077(11) 0.066(9) 0.063(7) -0.005(6) 0.038(7) 0.038(8)
C2P 0.117(14) 0.067(10) 0.074(9) 0.023(8) 0.046(9) 0.009(10)
C17P 0.129(14) 0.034(7) 0.047(6) 0.002(5) 0.020(7) 0.032(8)
C33 0.070(11) 0.078(11) 0.115(12) 0.043(9) 0.061(9) 0.032(9)
O4N 0.27(2) 0.123(11) 0.133(11) 0.007(9) 0.085(12) -0.074(13)
C16P 0.19(3) 0.039(11) 0.055(10) 0.000 0.018(13) 0.000
N2N 0.17(2) 0.055(13) 0.108(15) 0.000 0.047(15) 0.000
C30 0.155(18) 0.089(12) 0.092(10) -0.011(9) 0.062(11) 0.051(12)
C3P 0.091(12) 0.057(9) 0.069(8) 0.015(7) 0.019(8) -0.007(8)
C13P 0.090(13) 0.099(12) 0.095(10) -0.010(9) 0.064(10) 0.018(11)
C34 0.21(2) 0.101(13) 0.153(16) 0.073(12) 0.159(17) 0.042(14)
C5P 0.174(19) 0.056(10) 0.095(11) 0.037(8) 0.075(12) 0.030(11)
C11P 0.030(10) 0.18(2) 0.156(16) -0.106(15) 0.029(10) -0.056(11)
C12P 0.074(14) 0.16(2) 0.18(2) -0.073(17) 0.086(15) -0.010(14)
C4P 0.21(2) 0.066(10) 0.062(8) 0.007(7) 0.056(11) 0.019(12)
C7P 0.24(4) 0.30(4) 0.16(2) 0.15(3) -0.09(3) -0.18(3)
C8P 0.060(14) 0.21(3) 0.17(2) -0.06(2) -0.019(14) 0.004(15)
C31 0.15(2) 0.152(19) 0.128(15) -0.022(14) 0.075(14) 0.031(16)
C6P 0.12(2) 0.20(3) 0.15(2) 0.054(19) 0.039(17) -0.015(19)
C38 0.118(19) 0.26(3) 0.20(2) 0.07(2) 0.135(18) 0.04(2)
C10P 0.16(3) 0.38(5) 0.14(2) -0.02(3) -0.10(2) -0.05(3)
C19P 0.087(16) 0.20(2) 0.130(16) -0.092(17) 0.064(13) -0.041(16)
C20P 0.059(14) 0.29(4) 0.123(17) 0.024(19) 0.052(13) 0.007(17)
loop_
_atom_type_symbol
_atom_type_description
_atom_type_scat_dispersion_real
_atom_type_scat_dispersion_imag
_atom_type_scat_source
C C 0.0181 0.0091 'International Tables Vol C Tables 4.2.6.8 and 6.1.1.4'
H H 0.0000 0.0000 'International Tables Vol C Tables 4.2.6.8 and 6.1.1.4'
Co Co -2.3653 3.6143 'International Tables Vol C Tables 4.2.6.8 and 6.1.1.4'
N N 0.0311 0.0180 'International Tables Vol C Tables 4.2.6.8 and 6.1.1.4'
O O 0.0492 0.0322 'International Tables Vol C Tables 4.2.6.8 and 6.1.1.4'
loop_
_geom_angle_atom_site_label_1
_geom_angle_atom_site_label_2
_geom_angle_atom_site_label_3
_geom_angle
_geom_angle_site_symmetry_1
_geom_angle_site_symmetry_3
O8 Co2 O5 133.1(3) . 2_655
O8 Co2 O6 91.9(3) . 2_655
O5 Co2 O6 81.5(3) 2_655 2_655
O8 Co2 O9 82.5(3) . .
O5 Co2 O9 91.2(3) 2_655 .
O6 Co2 O9 163.8(3) 2_655 .
O8 Co2 N3P 133.9(4) . .
O5 Co2 N3P 92.5(4) 2_655 .
O6 Co2 N3P 102.8(4) 2_655 .
O9 Co2 N3P 91.9(4) . .
O8 Co1 O8 135.4(4) . 2_655
O8 Co1 N4P 112.3(2) . .
O8 Co1 N4P 112.3(2) 2_655 .
O8 Co1 O7 91.9(3) . 2_655
O8 Co1 O7 82.1(3) 2_655 2_655
N4P Co1 O7 97.9(2) . 2_655
O8 Co1 O7 82.0(3) . .
O8 Co1 O7 91.9(3) 2_655 .
N4P Co1 O7 97.9(2) . .
O7 Co1 O7 164.2(4) 2_655 .
N2P Co3 O11 116.2(4) . .
N2P Co3 O5 109.9(4) . 2_655
O11 Co3 O5 133.8(4) . 2_655
N2P Co3 O10 100.1(4) . .
O11 Co3 O10 81.1(3) . .
O5 Co3 O10 93.4(3) 2_655 .
N2P Co3 O4 100.3(4) . 2_655
O11 Co3 O4 88.6(3) . 2_655
O5 Co3 O4 81.0(3) 2_655 2_655
O10 Co3 O4 159.6(3) . 2_655
O3 Co4 O11 91.3(3) 2_655 .
O3 Co4 N1P 92.7(4) 2_655 .
O11 Co4 N1P 174.8(3) . .
O3 Co4 O12 120.0(3) 2_655 .
O11 Co4 O12 79.0(3) . .
N1P Co4 O12 96.1(3) . .
O3 Co4 O2N 148.6(4) 2_655 .
O11 Co4 O2N 93.0(4) . .
N1P Co4 O2N 85.4(5) . .
O12 Co4 O2N 91.3(3) . .
O3 Co4 O3N 91.2(4) 2_655 .
O11 Co4 O3N 88.7(4) . .
N1P Co4 O3N 94.6(4) . .
O12 Co4 O3N 146.3(4) . .
O2N Co4 O3N 57.8(4) . .
C11 O5 Co3 112.2(6) . 2_655
C11 O5 Co2 110.8(7) . 2_655
Co3 O5 Co2 136.5(3) 2_655 2_655
C12 O6 Co2 110.7(7) . 2_655
C19 O9 Co2 108.0(7) . .
C5 O3 Co4 132.2(7) . 2_655
C10 O4 Co3 110.5(6) . 2_655
C17 O7 Co1 109.2(7) . .
C26 O12 Co4 110.6(6) . .
C24 O10 Co3 107.0(6) . .
C25 O11 Co3 111.4(7) . .
C25 O11 Co4 113.1(7) . .
Co3 O11 Co4 134.8(4) . .
C18 O8 Co1 108.2(8) . .
C18 O8 Co2 112.5(8) . .
Co1 O8 Co2 137.5(3) . .
C11P N3P C15P 118.3(12) . .
C11P N3P Co2 120.8(10) . .
C15P N3P Co2 120.1(10) . .
N1N O2N Co4 90.8(10) . .
N1N O3N Co4 91.9(10) . .
C11 C10 C9 121.9(11) . .
C11 C10 O4 114.5(10) . .
C9 C10 O4 123.5(10) . .
C27 C26 O12 122.6(10) . .
C27 C26 C25 121.1(10) . .
O12 C26 C25 116.3(9) . .
C18P N4P C18P 118.0(14) 2_655 .
C18P N4P Co1 121.0(7) 2_655 .
C18P N4P Co1 121.0(7) . .
C17 C18 O8 122.2(13) . .
C17 C18 C19 121.6(12) . .
O8 C18 C19 116.0(10) . .
C17 C16 C15 117.6(11) . .
C17 C16 C14 118.8(11) . .
C15 C16 C14 123.4(10) . .
C3 C2 C1 118.4(12) . .
C3 C2 C28 120.8(10) . .
C1 C2 C28 120.9(11) . .
C2 C3 O1 120.4(13) . .
C2 C3 C4 121.5(11) . .
O1 C3 C4 118.0(12) . .
C1P N1P C5P 115.7(12) . .
C1P N1P Co4 119.7(9) . .
C5P N1P Co4 124.3(8) . .
O11 C25 C24 118.3(10) . .
O11 C25 C26 120.3(10) . .
C24 C25 C26 121.3(10) . .
O5 C11 C10 120.5(10) . .
O5 C11 C12 119.8(10) . .
C10 C11 C12 119.5(11) . .
C23 C22 C27 123.3(10) . .
C23 C22 H22 118.3 . .
C27 C22 H22 118.3 . .
O7 C17 C18 115.9(12) . .
O7 C17 C16 123.6(11) . .
C18 C17 C16 120.5(13) . .
N3P C15P C14P 123.2(12) . .
N3P C15P H15P 118.4 . .
C14P C15P H15P 118.4 . .
C22 C23 C24 117.4(10) . .
C22 C23 C21 122.5(10) . .
C24 C23 C21 120.1(10) . .
C10 C9 C8 116.2(10) . .
C10 C9 C7 119.1(11) . .
C8 C9 C7 124.4(11) . .
C15 C20 C19 118.6(11) . .
C15 C20 C21 120.3(10) . .
C19 C20 C21 120.8(10) . .
C2 C1 C6 122.1(11) . .
C2 C1 H1 118.9 . .
C6 C1 H1 118.9 . .
C6P N2P C10P 116.7(16) . .
C6P N2P Co3 122.0(13) . .
C10P N2P Co3 120.9(11) . .
C20 C19 C18 119.0(12) . .
C20 C19 O9 122.0(11) . .
C18 C19 O9 119.0(10) . .
C5 C6 C1 118.8(10) . .
C5 C6 C7 121.5(11) . .
C1 C6 C7 119.7(10) . .
C9 C7 C6 111.1(8) . .
C9 C7 C29 112.9(9) . .
C6 C7 C29 113.2(9) . .
C9 C7 H7 106.4 . .
C6 C7 H7 106.4 . .
C29 C7 H7 106.4 . .
C11 C12 O6 115.4(10) . .
C11 C12 C13 122.0(11) . .
O6 C12 C13 122.6(10) . .
C17P C18P N4P 121.8(12) . .
C17P C18P H18P 119.1 . .
N4P C18P H18P 119.1 . .
C13 C14 C33 116.3(11) . .
C13 C14 C16 108.5(9) . .
C33 C14 C16 110.9(11) . .
C13 C14 H14 106.9 . .
C33 C14 H14 106.9 . .
C16 C14 H14 106.9 . .
C26 C27 C22 116.8(10) . .
C26 C27 C28 122.9(10) . .
C22 C27 C28 120.1(9) . .
C37 C21 C23 115.8(10) . .
C37 C21 C20 114.9(10) . .
C23 C21 C20 107.9(9) . .
C37 C21 H21 105.8 . .
C23 C21 H21 105.8 . .
C20 C21 H21 105.8 . .
C20 C15 C16 122.6(11) . .
C20 C15 H15 118.7 . .
C16 C15 H15 118.7 . .
C8 C13 C12 114.5(11) . .
C8 C13 C14 125.0(11) . .
C12 C13 C14 120.4(10) . .
O3 C5 C6 122.3(11) . .
O3 C5 C4 119.4(11) . .
C6 C5 C4 118.3(12) . .
O10 C24 C25 116.9(10) . .
O10 C24 C23 123.1(10) . .
C25 C24 C23 120.0(11) . .
C13 C8 C9 125.7(11) . .
C13 C8 H8 117.2 . .
C9 C8 H8 117.2 . .
C2 C28 C41 115.5(10) . .
C2 C28 C27 109.5(9) . .
C41 C28 C27 113.5(11) . .
C2 C28 H28 105.8 . .
C41 C28 H28 105.8 . .
C27 C28 H28 105.8 . .
O3N N1N O1N 121.2(15) . .
O3N N1N O2N 118.7(16) . .
O1N N1N O2N 119.4(14) . .
C30 C29 C7 112.6(11) . .
C30 C29 H29A 109.1 . .
C7 C29 H29A 109.1 . .
C30 C29 H29B 109.1 . .
C7 C29 H29B 109.1 . .
H29A C29 H29B 107.8 . .
N1P C1P C2P 123.6(13) . .
N1P C1P H1P 118.2 . .
C2P C1P H1P 118.2 . .
C15P C14P C13P 118.6(12) . .
C15P C14P H14P 120.7 . .
C13P C14P H14P 120.7 . .
C3 C4 C5 120.8(11) . .
C3 C4 H4 119.6 . .
C5 C4 H4 119.6 . .
C38 C37 C21 117.4(13) . .
C38 C37 H37A 108.0 . .
C21 C37 H37A 108.0 . .
C38 C37 H37B 108.0 . .
C21 C37 H37B 108.0 . .
H37A C37 H37B 107.2 . .
C42 C41 C28 113.7(16) . .
C42 C41 H41A 108.8 . .
C28 C41 H41A 108.8 . .
C42 C41 H41B 108.8 . .
C28 C41 H41B 108.8 . .
H41A C41 H41B 107.7 . .
C1P C2P C3P 119.1(12) . .
C1P C2P H2P 120.5 . .
C3P C2P H2P 120.5 . .
C18P C17P C16P 120.4(12) . .
C18P C17P H17P 119.8 . .
C16P C17P H17P 119.8 . .
C34 C33 C14 114.3(13) . .
C34 C33 H33A 108.7 . .
C14 C33 H33A 108.7 . .
C34 C33 H33B 108.7 . .
C14 C33 H33B 108.7 . .
H33A C33 H33B 107.6 . .
C17P C16P C17P 117.7(16) . 2_655
C17P C16P H16P 121.2 . .
C17P C16P H16P 121.2 2_655 .
O4N N2N O4N 125(2) 2_655 .
O4N N2N O5N 117.3(11) 2_655 .
O4N N2N O5N 117.3(11) . .
C29 C30 C31 113.6(15) . .
C29 C30 H30A 108.8 . .
C31 C30 H30A 108.8 . .
C29 C30 H30B 108.8 . .
C31 C30 H30B 108.8 . .
H30A C30 H30B 107.7 . .
C4P C3P C2P 116.8(13) . .
C4P C3P H3P 121.6 . .
C2P C3P H3P 121.6 . .
C12P C13P C14P 115.9(18) . .
C12P C13P H13P 122.0 . .
C14P C13P H13P 122.0 . .
C33 C34 C35 116(2) . .
C33 C34 H34A 108.3 . .
C35 C34 H34A 108.3 . .
C33 C34 H34B 108.3 . .
C35 C34 H34B 108.3 . .
H34A C34 H34B 107.4 . .
C4P C5P N1P 123.7(13) . .
C4P C5P H5P 118.1 . .
N1P C5P H5P 118.1 . .
N3P C11P C12P 118.9(15) . .
N3P C11P H11P 120.6 . .
C12P C11P H11P 120.6 . .
C13P C12P C11P 124.5(18) . .
C13P C12P H12P 117.7 . .
C11P C12P H12P 117.7 . .
C5P C4P C3P 120.1(14) . .
C5P C4P H4P 119.9 . .
C3P C4P H4P 119.9 . .
C8P C7P C6P 117(2) . .
C8P C7P H7P 121.6 . .
C6P C7P H7P 121.6 . .
C36 C35 C34 111(3) . .
C36 C35 H35A 109.4 . .
C34 C35 H35A 109.4 . .
C36 C35 H35B 109.4 . .
C34 C35 H35B 109.4 . .
H35A C35 H35B 108.0 . .
C7P C8P C9P 118(2) . .
C7P C8P H8P 121.0 . .
C9P C8P H8P 121.0 . .
C32 C31 C30 114(2) . .
C32 C31 H31A 108.8 . .
C30 C31 H31A 108.8 . .
C32 C31 H31B 108.8 . .
C30 C31 H31B 108.8 . .
H31A C31 H31B 107.7 . .
C41 C42 C43 110(2) . .
C41 C42 H42A 109.6 . .
C43 C42 H42A 109.6 . .
C41 C42 H42B 109.6 . .
C43 C42 H42B 109.6 . .
H42A C42 H42B 108.1 . .
C31 C32 H32A 109.5 . .
C31 C32 H32B 109.5 . .
H32A C32 H32B 109.5 . .
C31 C32 H32C 109.5 . .
H32A C32 H32C 109.5 . .
H32B C32 H32C 109.5 . .
N2P C6P C7P 128(2) . .
N2P C6P H6P 116.0 . .
C7P C6P H6P 116.0 . .
C37 C38 C39 116(2) . .
C37 C38 H38A 108.3 . .
C39 C38 H38A 108.3 . .
C37 C38 H38B 108.3 . .
C39 C38 H38B 108.3 . .
H38A C38 H38B 107.4 . .
C35 C36 H36A 109.5 . .
C35 C36 H36B 109.5 . .
H36A C36 H36B 109.5 . .
C35 C36 H36C 109.5 . .
H36A C36 H36C 109.5 . .
H36B C36 H36C 109.5 . .
C10P C9P C8P 121(2) . .
C10P C9P H9P 119.3 . .
C8P C9P H9P 119.3 . .
C40 C39 C38 112(3) . .
C40 C39 H39A 109.1 . .
C38 C39 H39A 109.1 . .
C40 C39 H39B 109.1 . .
C38 C39 H39B 109.1 . .
H39A C39 H39B 107.8 . .
N2P C10P C9P 118(2) . .
N2P C10P H10P 120.8 . .
C9P C10P H10P 120.8 . .
C44 C43 C42 95(2) . .
C44 C43 H43A 112.8 . .
C42 C43 H43A 112.8 . .
C44 C43 H43B 112.8 . .
C42 C43 H43B 112.8 . .
H43A C43 H43B 110.2 . .
C43 C44 H44A 109.5 . .
C43 C44 H44B 109.5 . .
H44A C44 H44B 109.5 . .
C43 C44 H44C 109.5 . .
H44A C44 H44C 109.5 . .
H44B C44 H44C 109.5 . .
C39 C40 H40A 109.5 . .
C39 C40 H40B 109.5 . .
H40A C40 H40B 109.5 . .
C39 C40 H40C 109.5 . .
H40A C40 H40C 109.5 . .
H40B C40 H40C 109.5 . .
C20P C19P C21P 116(2) . 2_655
C19P C20P C21P 120(2) . .
C19P C21P C20P 124(3) 2_655 .
loop_
_geom_bond_atom_site_label_1
_geom_bond_atom_site_label_2
_geom_bond_distance
_geom_bond_site_symmetry_2
Co2 O8 2.017(9) .
Co2 O5 2.038(8) 2_655
Co2 O6 2.059(8) 2_655
Co2 O9 2.065(7) .
Co2 N3P 2.069(11) .
Co1 O8 2.009(9) .
Co1 O8 2.009(9) 2_655
Co1 N4P 2.047(13) .
Co1 O7 2.096(8) 2_655
Co1 O7 2.096(8) .
Co3 N2P 1.954(12) .
Co3 O11 1.965(8) .
Co3 O5 1.977(8) 2_655
Co3 O10 2.093(7) .
Co3 O4 2.098(7) 2_655
Co4 O3 2.012(8) 2_655
Co4 O11 2.050(8) .
Co4 N1P 2.077(11) .
Co4 O12 2.162(7) .
Co4 O2N 2.200(11) .
Co4 O3N 2.214(10) .
O5 C11 1.368(12) .
O5 Co3 1.977(8) 2_655
O5 Co2 2.038(8) 2_655
O6 C12 1.400(13) .
O6 Co2 2.059(8) 2_655
O9 C19 1.414(14) .
O3 C5 1.343(14) .
O3 Co4 2.012(8) 2_655
O4 C10 1.378(13) .
O4 Co3 2.098(7) 2_655
O7 C17 1.353(14) .
O12 C26 1.381(12) .
O10 C24 1.370(13) .
O11 C25 1.359(13) .
O8 C18 1.390(14) .
O1 C3 1.370(13) .
N3P C11P 1.338(17) .
N3P C15P 1.345(13) .
O2N N1N 1.272(16) .
O3N N1N 1.209(14) .
C10 C11 1.372(15) .
C10 C9 1.377(15) .
C26 C27 1.371(13) .
C26 C25 1.383(14) .
N4P C18P 1.361(12) 2_655
N4P C18P 1.361(12) .
C18 C17 1.356(16) .
C18 C19 1.393(17) .
C16 C17 1.383(16) .
C16 C15 1.390(16) .
C16 C14 1.545(17) .
C2 C3 1.363(16) .
C2 C1 1.385(15) .
C2 C28 1.518(17) .
C3 C4 1.386(18) .
N1P C1P 1.331(14) .
N1P C5P 1.357(18) .
C25 C24 1.374(15) .
C11 C12 1.391(15) .
C22 C23 1.379(15) .
C22 C27 1.418(16) .
C22 H22 0.9500 .
C15P C14P 1.372(18) .
C15P H15P 0.9500 .
C23 C24 1.404(14) .
C23 C21 1.523(15) .
C9 C8 1.392(16) .
C9 C7 1.498(14) .
C20 C15 1.376(16) .
C20 C19 1.380(15) .
C20 C21 1.572(17) .
C1 C6 1.435(16) .
C1 H1 0.9500 .
N2P C6P 1.296(18) .
N2P C10P 1.35(2) .
C6 C5 1.374(15) .
C6 C7 1.542(15) .
C7 C29 1.559(14) .
C7 H7 1.0000 .
C12 C13 1.406(15) .
C18P C17P 1.360(16) .
C18P H18P 0.9500 .
C14 C13 1.462(17) .
C14 C33 1.537(15) .
C14 H14 1.0000 .
C27 C28 1.541(15) .
C21 C37 1.499(14) .
C21 H21 1.0000 .
C15 H15 0.9500 .
C13 C8 1.388(15) .
C5 C4 1.436(17) .
C8 H8 0.9500 .
C28 C41 1.523(15) .
C28 H28 1.0000 .
N1N O1N 1.253(17) .
C29 C30 1.491(16) .
C29 H29A 0.9900 .
C29 H29B 0.9900 .
C1P C2P 1.361(18) .
C1P H1P 0.9500 .
C14P C13P 1.38(2) .
C14P H14P 0.9500 .
O5N N2N 1.29(2) .
C4 H4 0.9500 .
C37 C38 1.46(2) .
C37 H37A 0.9900 .
C37 H37B 0.9900 .
C41 C42 1.44(3) .
C41 H41A 0.9900 .
C41 H41B 0.9900 .
C2P C3P 1.388(18) .
C2P H2P 0.9500 .
C17P C16P 1.385(15) .
C17P H17P 0.9500 .
C33 C34 1.371(19) .
C33 H33A 0.9900 .
C33 H33B 0.9900 .
O4N N2N 1.285(15) .
C16P C17P 1.385(15) 2_655
C16P H16P 0.9500 .
N2N O4N 1.285(15) 2_655
C30 C31 1.527(19) .
C30 H30A 0.9900 .
C30 H30B 0.9900 .
C3P C4P 1.381(18) .
C3P H3P 0.9500 .
C13P C12P 1.35(2) .
C13P H13P 0.9500 .
C34 C35 1.57(3) .
C34 H34A 0.9900 .
C34 H34B 0.9900 .
C5P C4P 1.33(2) .
C5P H5P 0.9500 .
C11P C12P 1.36(3) .
C11P H11P 0.9500 .
C12P H12P 0.9500 .
C4P H4P 0.9500 .
C7P C8P 1.31(2) .
C7P C6P 1.40(2) .
C7P H7P 0.9500 .
C35 C36 1.53(3) .
C35 H35A 0.9900 .
C35 H35B 0.9900 .
C8P C9P 1.42(2) .
C8P H8P 0.9500 .
C31 C32 1.34(3) .
C31 H31A 0.9900 .
C31 H31B 0.9900 .
C42 C43 1.62(3) .
C42 H42A 0.9900 .
C42 H42B 0.9900 .
C32 H32A 0.9800 .
C32 H32B 0.9800 .
C32 H32C 0.9800 .
C6P H6P 0.9500 .
C38 C39 1.57(3) .
C38 H38A 0.9900 .
C38 H38B 0.9900 .
C36 H36A 0.9800 .
C36 H36B 0.9800 .
C36 H36C 0.9800 .
C9P C10P 1.41(2) .
C9P H9P 0.9500 .
C39 C40 1.54(3) .
C39 H39A 0.9900 .
C39 H39B 0.9900 .
C10P H10P 0.9500 .
C43 C44 1.62(3) .
C43 H43A 0.9900 .
C43 H43B 0.9900 .
C44 H44A 0.9800 .
C44 H44B 0.9800 .
C44 H44C 0.9800 .
C40 H40A 0.9800 .
C40 H40B 0.9800 .
C40 H40C 0.9800 .
C19P C20P 1.28(2) .
C19P C21P 1.34(4) 2_655
C20P C21P 1.46(3) .
C21P C19P 1.34(4) 2_655
loop_
_geom_torsion_atom_site_label_1
_geom_torsion_atom_site_label_2
_geom_torsion_atom_site_label_3
_geom_torsion_atom_site_label_4
_geom_torsion
_geom_torsion_site_symmetry_1
_geom_torsion_site_symmetry_4
Co3 O4 C10 C11 12.0(10) 2_655 .
Co3 O4 C10 C9 -168.6(8) 2_655 .
Co4 O12 C26 C27 -175.8(9) . .
Co4 O12 C26 C25 6.0(12) . .
Co1 O8 C18 C17 -3.5(14) . .
Co2 O8 C18 C17 -170.8(10) . .
Co1 O8 C18 C19 171.4(9) . .
Co2 O8 C18 C19 4.1(13) . .
C1 C2 C3 O1 -179.8(9) . .
C28 C2 C3 O1 -1.3(15) . .
C1 C2 C3 C4 4.0(16) . .
C28 C2 C3 C4 -177.5(10) . .
Co3 O11 C25 C24 -13.4(14) . .
Co4 O11 C25 C24 175.0(9) . .
Co3 O11 C25 C26 164.6(9) . .
Co4 O11 C25 C26 -6.9(14) . .
C27 C26 C25 O11 -177.9(11) . .
O12 C26 C25 O11 0.4(16) . .
C27 C26 C25 C24 0.1(19) . .
O12 C26 C25 C24 178.3(11) . .
Co3 O5 C11 C10 2.2(12) 2_655 .
Co2 O5 C11 C10 -170.6(8) 2_655 .
Co3 O5 C11 C12 177.2(8) 2_655 .
Co2 O5 C11 C12 4.4(11) 2_655 .
C9 C10 C11 O5 170.5(9) . .
O4 C10 C11 O5 -10.0(14) . .
C9 C10 C11 C12 -4.4(16) . .
O4 C10 C11 C12 175.0(9) . .
Co1 O7 C17 C18 15.8(13) . .
Co1 O7 C17 C16 -165.7(10) . .
O8 C18 C17 O7 -9.0(18) . .
C19 C18 C17 O7 176.4(11) . .
O8 C18 C17 C16 172.5(11) . .
C19 C18 C17 C16 -2(2) . .
C15 C16 C17 O7 -178.9(10) . .
C14 C16 C17 O7 6.2(18) . .
C15 C16 C17 C18 -0.5(18) . .
C14 C16 C17 C18 -175.3(11) . .
C11P N3P C15P C14P -2(2) . .
Co2 N3P C15P C14P -171.4(9) . .
C27 C22 C23 C24 -2.3(19) . .
C27 C22 C23 C21 179.5(11) . .
C11 C10 C9 C8 1.7(15) . .
O4 C10 C9 C8 -177.7(9) . .
C11 C10 C9 C7 -172.7(10) . .
O4 C10 C9 C7 8.0(15) . .
C3 C2 C1 C6 -1.2(15) . .
C28 C2 C1 C6 -179.7(9) . .
C15 C20 C19 C18 -0.3(17) . .
C21 C20 C19 C18 173.8(10) . .
C15 C20 C19 O9 -180.0(9) . .
C21 C20 C19 O9 -5.9(17) . .
C17 C18 C19 C20 2.6(19) . .
O8 C18 C19 C20 -172.4(10) . .
C17 C18 C19 O9 -177.7(11) . .
O8 C18 C19 O9 7.3(16) . .
Co2 O9 C19 C20 165.4(9) . .
Co2 O9 C19 C18 -14.3(12) . .
C2 C1 C6 C5 -1.9(15) . .
C2 C1 C6 C7 -178.9(9) . .
C10 C9 C7 C6 81.7(13) . .
C8 C9 C7 C6 -92.2(12) . .
C10 C9 C7 C29 -150.0(10) . .
C8 C9 C7 C29 36.1(15) . .
C5 C6 C7 C9 -87.0(14) . .
C1 C6 C7 C9 89.9(12) . .
C5 C6 C7 C29 144.8(11) . .
C1 C6 C7 C29 -38.3(14) . .
O5 C11 C12 O6 6.6(14) . .
C10 C11 C12 O6 -178.4(9) . .
O5 C11 C12 C13 -171.7(9) . .
C10 C11 C12 C13 3.3(16) . .
Co2 O6 C12 C11 -13.9(10) 2_655 .
Co2 O6 C12 C13 164.4(8) 2_655 .
C18P N4P C18P C17P 0.5(10) 2_655 .
Co1 N4P C18P C17P -179.5(10) . .
C17 C16 C14 C13 83.9(13) . .
C15 C16 C14 C13 -90.6(13) . .
C17 C16 C14 C33 -147.2(12) . .
C15 C16 C14 C33 38.3(15) . .
O12 C26 C27 C22 -177.6(10) . .
C25 C26 C27 C22 0.5(17) . .
O12 C26 C27 C28 -1.6(18) . .
C25 C26 C27 C28 176.5(11) . .
C23 C22 C27 C26 0.6(18) . .
C23 C22 C27 C28 -175.5(11) . .
C22 C23 C21 C37 35.0(18) . .
C24 C23 C21 C37 -143.1(12) . .
C22 C23 C21 C20 -95.3(13) . .
C24 C23 C21 C20 86.5(14) . .
C15 C20 C21 C37 -36.7(16) . .
C19 C20 C21 C37 149.3(12) . .
C15 C20 C21 C23 94.1(12) . .
C19 C20 C21 C23 -79.9(14) . .
C19 C20 C15 C16 -2.4(17) . .
C21 C20 C15 C16 -176.5(10) . .
C17 C16 C15 C20 2.8(17) . .
C14 C16 C15 C20 177.4(11) . .
C11 C12 C13 C8 0.4(15) . .
O6 C12 C13 C8 -177.8(9) . .
C11 C12 C13 C14 176.3(10) . .
O6 C12 C13 C14 -1.9(16) . .
C33 C14 C13 C8 -36.5(17) . .
C16 C14 C13 C8 89.4(13) . .
C33 C14 C13 C12 148.1(11) . .
C16 C14 C13 C12 -86.0(13) . .
Co4 O3 C5 C6 175.5(7) 2_655 .
Co4 O3 C5 C4 -2.0(14) 2_655 .
C1 C6 C5 O3 -175.3(9) . .
C7 C6 C5 O3 1.7(15) . .
C1 C6 C5 C4 2.3(15) . .
C7 C6 C5 C4 179.2(9) . .
Co3 O10 C24 C25 18.9(13) . .
Co3 O10 C24 C23 -162.2(10) . .
O11 C25 C24 O10 -4.8(17) . .
C26 C25 C24 O10 177.2(10) . .
O11 C25 C24 C23 176.2(11) . .
C26 C25 C24 C23 -1.8(19) . .
C22 C23 C24 O10 -176.1(11) . .
C21 C23 C24 O10 2.2(19) . .
C22 C23 C24 C25 2.8(18) . .
C21 C23 C24 C25 -178.9(11) . .
C12 C13 C8 C9 -3.3(16) . .
C14 C13 C8 C9 -179.0(10) . .
C10 C9 C8 C13 2.4(16) . .
C7 C9 C8 C13 176.4(10) . .
C3 C2 C28 C41 -140.1(11) . .
C1 C2 C28 C41 38.4(14) . .
C3 C2 C28 C27 90.2(12) . .
C1 C2 C28 C27 -91.3(11) . .
C26 C27 C28 C2 -84.8(13) . .
C22 C27 C28 C2 91.1(13) . .
C26 C27 C28 C41 144.5(11) . .
C22 C27 C28 C41 -39.7(15) . .
Co4 O3N N1N O1N 179.1(15) . .
Co4 O3N N1N O2N 9.1(14) . .
Co4 O2N N1N O3N -9.2(14) . .
Co4 O2N N1N O1N -179.3(14) . .
C9 C7 C29 C30 169.3(12) . .
C6 C7 C29 C30 -63.4(15) . .
C5P N1P C1P C2P -2(2) . .
Co4 N1P C1P C2P -176.3(12) . .
N3P C15P C14P C13P 8.2(19) . .
C2 C3 C4 C5 -3.7(17) . .
O1 C3 C4 C5 -179.9(9) . .
O3 C5 C4 C3 178.0(10) . .
C6 C5 C4 C3 0.4(16) . .
C23 C21 C37 C38 51(2) . .
C20 C21 C37 C38 177.5(17) . .
C2 C28 C41 C42 163.9(19) . .
C27 C28 C41 C42 -68(2) . .
N1P C1P C2P C3P -7(2) . .
N4P C18P C17P C16P -1(2) . .
C13 C14 C33 C34 -76.8(18) . .
C16 C14 C33 C34 158.6(15) . .
C18P C17P C16P C17P 0.5(10) . 2_655
C7 C29 C30 C31 -173.6(14) . .
C1P C2P C3P C4P 10(2) . .
C15P C14P C13P C12P -9(2) . .
C14 C33 C34 C35 177.6(19) . .
C1P N1P C5P C4P 8(3) . .
Co4 N1P C5P C4P -178.3(16) . .
C15P N3P C11P C12P -2(3) . .
Co2 N3P C11P C12P 166.8(16) . .
C14P C13P C12P C11P 5(3) . .
N3P C11P C12P C13P 1(4) . .
N1P C5P C4P C3P -5(3) . .
C2P C3P C4P C5P -4(3) . .
C33 C34 C35 C36 74(3) . .
C6P C7P C8P C9P 7(4) . .
C29 C30 C31 C32 78(3) . .
C28 C41 C42 C43 -179(2) . .
C10P N2P C6P C7P -5(2) . .
Co3 N2P C6P C7P -177.7(13) . .
C8P C7P C6P N2P -3(2) . .
C21 C37 C38 C39 -179(2) . .
C7P C8P C9P C10P -4(5) . .
C37 C38 C39 C40 125(3) . .
C6P N2P C10P C9P 8(4) . .
Co3 N2P C10P C9P -179(2) . .
C8P C9P C10P N2P -4(5) . .
C41 C42 C43 C44 53(3) . .
C21P C19P C20P C21P 6(4) 2_655 .
C19P C20P C21P C19P 1(5) . 2_655
