#------------------------------------------------------------------------------
#$Date: 2017-06-14 04:30:35 +0300 (Wed, 14 Jun 2017) $
#$Revision: 197784 $
#$URL: file:///home/coder/svn-repositories/cod/cif/7/12/02/7120268.cif $
#------------------------------------------------------------------------------
#
# This file is available in the Crystallography Open Database (COD),
# http://www.crystallography.net/
#
# All data on this site have been placed in the public domain by the
# contributors.
#
data_7120268
loop_
_publ_author_name
'Shen, Cheng'
'liu, yang'
'Zhu, Zhongqin'
'Xu, Yuangang'
'Lu, Ming'
_publ_section_title
;
 Self-assembly of silver(I)-based high-energy metal-organic frameworks
 (HE-MOFs) at ambient temperature and pressure: synthesis, structure and
 superior explosive performance
;
_journal_name_full               'Chem. Commun.'
_journal_paper_doi               10.1039/C7CC03869K
_journal_year                    2017
_chemical_formula_moiety         'Ag C3 N5 O5'
_chemical_formula_sum            'C3 Ag N5 O5'
_chemical_formula_weight         293.95
_space_group_crystal_system      monoclinic
_space_group_IT_number           14
_space_group_name_Hall           '-P 2ybc'
_space_group_name_H-M_alt        'P 1 21/c 1'
_symmetry_space_group_name_Hall  '-P 2ybc'
_symmetry_space_group_name_H-M   'P 1 21/c 1'
_atom_sites_solution_primary     dual
_audit_creation_date             2017-04-21
_audit_creation_method
;
Olex2 1.2
(compiled 2017.03.28 svn.r3405 for OlexSys, GUI svn.r5335)
;
_audit_update_record
;
2017-05-10 deposited with the CCDC.
2017-06-12 downloaded from the CCDC.
;
_cell_angle_alpha                90
_cell_angle_beta                 103.473(2)
_cell_angle_gamma                90
_cell_formula_units_Z            4
_cell_length_a                   10.1571(8)
_cell_length_b                   4.9006(4)
_cell_length_c                   14.4249(11)
_cell_measurement_reflns_used    1955
_cell_measurement_temperature    173
_cell_measurement_theta_max      27.39
_cell_measurement_theta_min      2.904
_cell_volume                     698.25(10)
_computing_cell_refinement       'SAINT v8.34A (Bruker, 2013)'
_computing_data_reduction        'SAINT v8.34A (Bruker, 2013)'
_computing_molecular_graphics    'Olex2 (Dolomanov et al., 2009)'
_computing_publication_material  'Olex2 (Dolomanov et al., 2009)'
_computing_structure_refinement  'ShelXL (Sheldrick, 2015)'
_computing_structure_solution    'ShelXT (Sheldrick, 2015)'
_diffrn_ambient_temperature      173
_diffrn_measured_fraction_theta_full 0.994
_diffrn_measured_fraction_theta_max 0.993
_diffrn_measurement_device_type  'CCD area detector'
_diffrn_measurement_method       'phi and omega scans'
_diffrn_radiation_monochromator  graphite
_diffrn_radiation_type           MoK\a
_diffrn_radiation_wavelength     0.71073
_diffrn_reflns_av_R_equivalents  0.0362
_diffrn_reflns_av_unetI/netI     0.0360
_diffrn_reflns_Laue_measured_fraction_full 0.994
_diffrn_reflns_Laue_measured_fraction_max 0.993
_diffrn_reflns_limit_h_max       13
_diffrn_reflns_limit_h_min       -13
_diffrn_reflns_limit_k_max       6
_diffrn_reflns_limit_k_min       -6
_diffrn_reflns_limit_l_max       16
_diffrn_reflns_limit_l_min       -18
_diffrn_reflns_number            5771
_diffrn_reflns_point_group_measured_fraction_full 0.994
_diffrn_reflns_point_group_measured_fraction_max 0.993
_diffrn_reflns_theta_full        25.242
_diffrn_reflns_theta_max         27.558
_diffrn_reflns_theta_min         2.062
_exptl_absorpt_coefficient_mu    2.896
_exptl_absorpt_correction_T_max  0.7456
_exptl_absorpt_correction_T_min  0.5850
_exptl_absorpt_correction_type   multi-scan
_exptl_absorpt_process_details
'SADABS-2014/5 (Bruker,2014/5) was used for absorption correction. wR2(int) was 0.0954 before and 0.0495 after correction. The Ratio of minimum to maximum transmission is 0.7846. The \l/2 correction factor is 0.00150.'
_exptl_crystal_colour            colourless
_exptl_crystal_colour_primary    colourless
_exptl_crystal_density_diffrn    2.796
_exptl_crystal_description       block
_exptl_crystal_F_000             560
_exptl_crystal_size_max          0.24
_exptl_crystal_size_mid          0.13
_exptl_crystal_size_min          0.12
_refine_diff_density_max         0.490
_refine_diff_density_min         -0.739
_refine_diff_density_rms         0.153
_refine_ls_extinction_method     none
_refine_ls_goodness_of_fit_ref   1.034
_refine_ls_hydrogen_treatment    undef
_refine_ls_matrix_type           full
_refine_ls_number_parameters     127
_refine_ls_number_reflns         1614
_refine_ls_number_restraints     0
_refine_ls_restrained_S_all      1.034
_refine_ls_R_factor_all          0.0297
_refine_ls_R_factor_gt           0.0251
_refine_ls_shift/su_max          0.000
_refine_ls_shift/su_mean         0.000
_refine_ls_structure_factor_coef Fsqd
_refine_ls_weighting_details
'w=1/[\s^2^(Fo^2^)+(0.0310P)^2^] where P=(Fo^2^+2Fc^2^)/3'
_refine_ls_weighting_scheme      calc
_refine_ls_wR_factor_gt          0.0594
_refine_ls_wR_factor_ref         0.0623
_reflns_Friedel_coverage         0.000
_reflns_number_gt                1425
_reflns_number_total             1614
_reflns_threshold_expression     'I > 2\s(I)'
_iucr_refine_instructions_details
;

    mo_2017276-nlg-x-92_0m.res created by SHELXL-2014/7

TITL mo_2017276-nlg-x-92_0m_a.res in P2(1)/c
REM Old TITL mo_2017276-NLG-X-92_0m in P2(1)/c
REM SHELXT solution in P2(1)/c
REM R1 0.105, Rweak 0.001, Alpha 0.035, Orientation as input
REM Formula found by SHELXT: C9 N O3 Ag
CELL 0.71073 10.1571 4.9006 14.4249 90 103.473 90
ZERR 4 0.0008 0.0004 0.0011 0 0.002 0
LATT 1
SYMM -X,0.5+Y,0.5-Z
SFAC Ag C N O
UNIT 4 12 20 20
 
L.S. 10
PLAN  20
TEMP -100.15
BOND $H
list 4
fmap 2
acta
REM <olex2.extras>
REM <HklSrc "%.\\mo_2017276-NLG-X-92_0m.hkl">
REM </olex2.extras>
 
WGHT    0.031000
FVAR       0.55892
AG1   1    0.133397    0.852986    0.129499    11.00000    0.02166    0.03594 =
         0.01302    0.00225    0.00158    0.00198
O5    4    0.179157    0.342950    0.202721    11.00000    0.02971    0.02651 =
         0.01317   -0.00288    0.00426    0.00254
O1    4    0.436379    0.971216    0.279828    11.00000    0.02426    0.02258 =
         0.02476    0.00697    0.00362   -0.00217
O4    4    0.063774    0.156224    0.295720    11.00000    0.02521    0.02554 =
         0.03388   -0.00062    0.00387   -0.00898
O2    4    0.235834    0.697274    0.494864    11.00000    0.02612    0.03429 =
         0.01805   -0.00748    0.00599   -0.00033
O3    4    0.102400    0.345216    0.466303    11.00000    0.02136    0.04343 =
         0.02309    0.00713    0.00867   -0.00542
N3    3    0.529383    0.603799    0.489239    11.00000    0.01823    0.02252 =
         0.01710    0.00314   -0.00024    0.00111
N4    3    0.182608    0.507624    0.440937    11.00000    0.01588    0.02904 =
         0.01388    0.00061    0.00323    0.00329
N5    3    0.150049    0.322216    0.282584    11.00000    0.01639    0.01865 =
         0.01874   -0.00001    0.00036    0.00349
N1    3    0.316712    0.820325    0.266412    11.00000    0.01859    0.02374 =
         0.01805    0.00288    0.00233    0.00246
N2    3    0.521636    0.906521    0.365020    11.00000    0.02041    0.02619 =
         0.02207    0.00120    0.00169   -0.00099
C2    2    0.327228    0.668586    0.340729    11.00000    0.01508    0.01654 =
         0.01494   -0.00119    0.00238    0.00527
C1    2    0.219780    0.488906    0.355098    11.00000    0.01429    0.02399 =
         0.01046   -0.00029    0.00207   -0.00005
C3    2    0.458372    0.720538    0.402495    11.00000    0.01883    0.01596 =
         0.01559   -0.00070    0.00214    0.00036
HKLF 4
 
REM  mo_2017276-nlg-x-92_0m_a.res in P2(1)/c
REM R1 =  0.0251 for    1425 Fo > 4sig(Fo)  and  0.0297 for all    1614 data
REM    127 parameters refined using      0 restraints
 
END  
     
WGHT      0.0272      0.0000 

REM Highest difference peak  0.490,  deepest hole -0.739,  1-sigma level  0.153
Q1    1   0.3727  0.7013  0.3789  11.00000  0.05    0.49
Q2    1   0.1270  0.7107  0.1010  11.00000  0.05    0.49
Q3    1   0.6365  0.6917  0.5569  11.00000  0.05    0.45
Q4    1   0.0129  0.3436  0.5615  11.00000  0.05    0.45
Q5    1   0.3496  1.0605  0.2397  11.00000  0.05    0.44
Q6    1   0.6782  0.8619  0.5165  11.00000  0.05    0.44
Q7    1   0.2870  0.5821  0.3465  11.00000  0.05    0.43
Q8    1   0.2693  1.0729  0.1383  11.00000  0.05    0.41
Q9    1   0.3719  0.6599  0.1994  11.00000  0.05    0.40
Q10   1   0.3022  0.9274  0.1214  11.00000  0.05    0.40
Q11   1   0.6672  0.9314  0.4441  11.00000  0.05    0.40
Q12   1   0.3314  0.7666  0.4821  11.00000  0.05    0.40
Q13   1  -0.0248  0.1388  0.1950  11.00000  0.05    0.40
Q14   1   0.3004  0.5904  0.4827  11.00000  0.05    0.39
Q15   1   0.0177  1.1399  0.1360  11.00000  0.05    0.38
Q16   1   0.3398  0.8153  0.5581  11.00000  0.05    0.38
Q17   1   0.6725  1.0661  0.3771  11.00000  0.05    0.37
Q18   1   0.0471  0.5212  0.0520  11.00000  0.05    0.37
Q19   1   0.3445  0.6839  0.2946  11.00000  0.05    0.37
Q20   1  -0.0242  0.2052  0.4874  11.00000  0.05    0.37

  REM The information below was added by Olex2.
  REM
  REM R1 = 0.0251 for 1425 Fo > 4sig(Fo) and 0.0297 for all 6214 data
  REM n/a parameters refined using n/a restraints
  REM Highest difference peak 0.49, deepest hole -0.74
  REM Mean Shift 0, Max Shift 0.000.

  REM +++ Tabular Listing of Refinement Information +++
  REM R1_all = 0.0297
  REM R1_gt = 0.0251
  REM wR_ref = 0.0623
  REM GOOF = 1.034
  REM Shift_max = 0.000
  REM Shift_mean = 0
  REM Reflections_all = 6214
  REM Reflections_gt = 1425
  REM Parameters = n/a
  REM Hole = -0.74
  REM Peak = 0.49
  REM Flack = n/a

  
;
_cod_data_source_file            c7cc03869k2.cif
_cod_data_source_block           mo_2017276-nlg-x-92_0m
_cod_database_code               7120268
_shelx_shelxl_version_number     2014/7
_shelx_space_group_comment
;
The symmetry employed for this shelxl refinement is uniquely defined
by the following loop, which should always be used as a source of
symmetry information in preference to the above space-group names.
They are only intended as comments.
;
_olex2_refinement_description
;
;
_olex2_submission_special_instructions 'No special instructions were received'
loop_
_space_group_symop_operation_xyz
'x, y, z'
'-x, y+1/2, -z+1/2'
'-x, -y, -z'
'x, -y-1/2, z-1/2'
loop_
_atom_site_label
_atom_site_type_symbol
_atom_site_fract_x
_atom_site_fract_y
_atom_site_fract_z
_atom_site_U_iso_or_equiv
_atom_site_adp_type
_atom_site_occupancy
_atom_site_site_symmetry_order
_atom_site_calc_flag
Ag1 Ag 0.13340(2) 0.85299(5) 0.12950(2) 0.02395(10) Uani 1 1 d
O5 O 0.1792(2) 0.3429(4) 0.20272(15) 0.0233(5) Uani 1 1 d
O1 O 0.4364(2) 0.9712(4) 0.27983(15) 0.0242(5) Uani 1 1 d
O4 O 0.0638(2) 0.1562(4) 0.29572(18) 0.0287(5) Uani 1 1 d
O2 O 0.2358(2) 0.6973(4) 0.49486(15) 0.0260(5) Uani 1 1 d
O3 O 0.1024(2) 0.3452(4) 0.46630(17) 0.0287(5) Uani 1 1 d
N3 N 0.5294(2) 0.6038(5) 0.48924(18) 0.0200(5) Uani 1 1 d
N4 N 0.1826(2) 0.5076(5) 0.44094(17) 0.0196(5) Uani 1 1 d
N5 N 0.1500(2) 0.3222(5) 0.28258(18) 0.0185(5) Uani 1 1 d
N1 N 0.3167(2) 0.8203(5) 0.26641(18) 0.0204(5) Uani 1 1 d
N2 N 0.5216(2) 0.9065(5) 0.36502(19) 0.0234(5) Uani 1 1 d
C2 C 0.3272(3) 0.6686(5) 0.3407(2) 0.0157(6) Uani 1 1 d
C1 C 0.2198(2) 0.4889(6) 0.35510(19) 0.0164(6) Uani 1 1 d
C3 C 0.4584(3) 0.7205(6) 0.4025(2) 0.0171(6) Uani 1 1 d
loop_
_atom_site_aniso_label
_atom_site_aniso_U_11
_atom_site_aniso_U_22
_atom_site_aniso_U_33
_atom_site_aniso_U_23
_atom_site_aniso_U_13
_atom_site_aniso_U_12
Ag1 0.02166(14) 0.03594(17) 0.01302(14) 0.00225(9) 0.00158(9) 0.00198(9)
O5 0.0297(11) 0.0265(12) 0.0132(10) -0.0029(8) 0.0043(9) 0.0025(8)
O1 0.0243(10) 0.0226(12) 0.0248(12) 0.0070(9) 0.0036(8) -0.0022(8)
O4 0.0252(11) 0.0255(13) 0.0339(14) -0.0006(9) 0.0039(10) -0.0090(8)
O2 0.0261(11) 0.0343(13) 0.0181(11) -0.0075(9) 0.0060(9) -0.0003(9)
O3 0.0214(11) 0.0434(15) 0.0231(12) 0.0071(10) 0.0087(9) -0.0054(9)
N3 0.0182(12) 0.0225(14) 0.0171(12) 0.0031(10) -0.0002(9) 0.0011(9)
N4 0.0159(11) 0.0290(15) 0.0139(12) 0.0006(11) 0.0032(9) 0.0033(10)
N5 0.0164(11) 0.0186(13) 0.0187(13) 0.0000(10) 0.0004(9) 0.0035(9)
N1 0.0186(12) 0.0237(14) 0.0181(13) 0.0029(10) 0.0023(10) 0.0025(9)
N2 0.0204(12) 0.0262(14) 0.0221(14) 0.0012(11) 0.0017(10) -0.0010(10)
C2 0.0151(12) 0.0165(14) 0.0149(14) -0.0012(11) 0.0024(11) 0.0053(10)
C1 0.0143(12) 0.0240(16) 0.0105(13) -0.0003(11) 0.0021(10) -0.0001(10)
C3 0.0188(13) 0.0160(14) 0.0156(14) -0.0007(11) 0.0021(11) 0.0004(10)
loop_
_atom_type_symbol
_atom_type_description
_atom_type_scat_dispersion_real
_atom_type_scat_dispersion_imag
_atom_type_scat_source
Ag Ag -0.8971 1.1015 'International Tables Vol C Tables 4.2.6.8 and 6.1.1.4'
C C 0.0033 0.0016 'International Tables Vol C Tables 4.2.6.8 and 6.1.1.4'
N N 0.0061 0.0033 'International Tables Vol C Tables 4.2.6.8 and 6.1.1.4'
O O 0.0106 0.0060 'International Tables Vol C Tables 4.2.6.8 and 6.1.1.4'
loop_
_geom_angle_atom_site_label_1
_geom_angle_atom_site_label_2
_geom_angle_atom_site_label_3
_geom_angle
_geom_angle_site_symmetry_1
_geom_angle_site_symmetry_3
O2 Ag1 O3 95.25(7) 4_575 2
N1 Ag1 O2 105.02(8) . 4_575
N1 Ag1 O3 158.56(9) . 2
N2 O1 N1 110.5(2) . .
N4 O2 Ag1 102.66(16) . 4_576
N4 O3 Ag1 116.00(17) . 2_545
N3 N3 C3 111.9(3) 3_666 .
O2 N4 O3 120.4(2) . .
O2 N4 C1 116.0(2) . .
O3 N4 C1 123.5(3) . .
O5 N5 C1 117.1(2) . .
O4 N5 O5 121.1(2) . .
O4 N5 C1 121.7(2) . .
O1 N1 Ag1 124.46(17) . .
C2 N1 Ag1 128.7(2) . .
C2 N1 O1 106.8(2) . .
C3 N2 O1 105.4(2) . .
N1 C2 C1 123.3(3) . .
N1 C2 C3 107.3(2) . .
C3 C2 C1 129.4(3) . .
N4 C1 N5 121.2(2) . .
N4 C1 C2 117.3(2) . .
N5 C1 C2 121.2(2) . .
N3 C3 C2 133.1(3) . .
N2 C3 N3 116.9(2) . .
N2 C3 C2 109.9(3) . .
loop_
_geom_bond_atom_site_label_1
_geom_bond_atom_site_label_2
_geom_bond_distance
_geom_bond_site_symmetry_2
Ag1 O2 2.420(2) 4_575
Ag1 O3 2.471(2) 2
Ag1 N1 2.383(2) .
O5 N5 1.258(3) .
O1 N1 1.397(3) .
O1 N2 1.366(3) .
O4 N5 1.242(3) .
O2 Ag1 2.420(2) 4_576
O2 N4 1.251(3) .
O3 Ag1 2.471(2) 2_545
O3 N4 1.253(3) .
N3 N3 1.255(5) 3_666
N3 C3 1.412(4) .
N4 C1 1.379(3) .
N5 C1 1.385(3) .
N1 C2 1.288(4) .
N2 C3 1.303(4) .
C2 C1 1.454(4) .
C2 C3 1.442(4) .
loop_
_refln_index_h
_refln_index_k
_refln_index_l
_refln_F_squared_meas
_refln_F_squared_sigma
-1 0 0 2514.39 95.16
1 0 0 2481.45 95.13
-1 0 0 2532.32 96.35
-2 0 0 125.2 9.25
2 0 0 157.93 8.32
2 0 0 174.95 8.6
-2 0 0 168.06 8.53
-3 0 0 8919.43 340.38
5 0 0 1955.63 83.5
5 0 0 1939.65 78.7
6 0 0 778.29 37.85
6 0 0 606.53 31.14
7 0 0 1559.31 73.22
7 0 0 1609.12 67.14
8 0 0 600.41 35.97
8 0 0 564.74 29.67
-8 0 0 596.78 36.17
9 0 0 362.05 28.11
9 0 0 405.62 23.18
-9 0 0 412.03 29.43
-10 0 0 439.41 32
10 0 0 394.79 30.71
11 0 0 743.88 47.54
-11 0 0 817.92 50.25
-12 0 0 350.83 36.4
12 0 0 271.51 31.13
0 -1 0 1.02 1.16
0 1 0 0.86 1.58
0 1 0 -0.96 0.98
-1 -1 0 3079.06 115.11
1 1 0 2924.47 115.25
-1 1 0 3147.22 117.12
1 1 0 3017.55 116.31
-1 1 0 3016.96 117.9
2 -1 0 249.87 13.97
-2 -1 0 229.97 9.52
-2 -1 0 215.36 12.58
2 -1 0 230.26 12
2 1 0 259.46 12.92
-2 1 0 215.07 12.57
2 1 0 227.86 9.62
-3 -1 0 42.21 6.04
3 -1 0 9.29 3.59
-3 -1 0 27.17 1.85
3 -1 0 25.3 4.44
-3 1 0 27.76 5.3
3 1 0 21.43 1.67
3 1 0 12.43 3.67
-4 -1 0 21.25 4.97
-4 -1 0 17.09 2.39
4 -1 0 23.41 5.07
4 -1 0 19.23 5.01
4 1 0 16.8 2.3
4 1 0 16.12 4.69
4 1 0 17.37 2.15
-4 1 0 17.79 4.84
5 -1 0 1544.8 69
5 -1 0 1596.28 67.65
-5 -1 0 1539.9 68.59
5 1 0 1563.03 60.83
5 1 0 1498.48 68.92
-5 1 0 1595.69 69.05
6 -1 0 1881.03 81.56
6 -1 0 1866.79 77.98
-6 -1 0 1877.41 82.06
6 1 0 1736.36 80.83
6 1 0 1805.14 71.68
-6 1 0 1762.31 80.72
7 -1 0 266.69 18.22
-7 -1 0 263.33 21.68
7 -1 0 290.37 21.3
7 1 0 226.98 13.27
8 -1 0 69.91 10.58
8 -1 0 98.7 14.76
-8 -1 0 72.52 13.77
-8 1 0 46.37 10.8
8 1 0 71.67 13.2
9 -1 0 734.61 42.75
-9 -1 0 697.15 43.97
9 -1 0 734.2 38.67
-9 1 0 738.95 44.32
9 1 0 713.75 43.64
10 -1 0 1171.7 62.03
-10 -1 0 1139.34 63.87
10 -1 0 1131.48 56.17
-10 1 0 1235.07 64.83
10 1 0 1217.58 63.92
11 -1 0 5.52 6.7
-11 -1 0 25.34 10.25
11 1 0 8.27 6.27
-11 1 0 8.69 6.95
12 -1 0 130.64 20.79
-12 -1 0 106.89 19.91
-12 1 0 108.63 21.04
12 1 0 157.91 23.89
0 2 0 971.57 40.36
0 2 0 968.91 42.8
1 -2 0 694.61 32.87
1 2 0 653.44 30.22
-1 2 0 656.94 29.26
1 2 0 701.05 30.06
2 -2 0 112.74 12.39
-2 -2 0 118.6 9.47
-2 2 0 116.43 9.44
2 2 0 102.5 7.46
-2 2 0 110.91 12.3
3 -2 0 1.15 2.28
-3 -2 0 3.63 2.93
3 2 0 4.51 2.57
3 2 0 4.4 1.72
-3 2 0 1.97 2.41
-3 2 0 7.45 4.04
4 -2 0 467.66 24.85
-4 -2 0 502.92 19.36
4 -2 0 480.98 28.49
-4 -2 0 474.49 26.68
-4 2 0 492.92 26.58
4 2 0 456.62 25.94
5 -2 0 456.41 28.19
-5 -2 0 487.27 27.51
5 -2 0 444.13 25.58
-5 2 0 469.13 27.36
5 2 0 444.64 26.77
6 -2 0 39.95 8.86
-6 -2 0 33.25 8.08
6 -2 0 30.03 7.53
6 2 0 32.21 8.11
-6 2 0 40.72 9.05
7 -2 0 115.21 14.8
7 -2 0 93.73 14.57
-7 -2 0 116.07 16.19
-7 2 0 125.29 16.87
7 2 0 125 16.73
-8 -2 0 155.5 21.05
8 -2 0 173.27 19.25
8 -2 0 162.69 20.22
-8 2 0 152.61 20.32
8 2 0 148.79 20.14
9 -2 0 8.67 5.36
9 -2 0 29.3 9.4
-9 -2 0 34.11 11.39
9 2 0 14.25 8.36
-9 2 0 22.47 8.54
10 -2 0 74.47 13.3
-10 -2 0 57.62 15.69
10 -2 0 62.97 13.82
-10 2 0 69.31 15.31
10 2 0 55.16 13.75
11 -2 0 74.45 13.97
-11 -2 0 100.86 19.66
11 -2 0 77.57 15.57
-11 2 0 115.54 20.09
11 2 0 72.84 16.17
-12 -2 0 0.08 7.61
12 -2 0 7.35 8.24
12 2 0 16.49 9.96
-12 2 0 15.82 9.53
0 -3 0 -2.11 1.94
0 3 0 -3.05 1.41
0 3 0 1.18 2.42
-1 -3 0 35.6 6.84
1 -3 0 44.84 8.53
1 3 0 27.07 5.02
-1 3 0 33.65 5.51
1 3 0 29.15 6.09
-1 3 0 37.19 7.74
-2 -3 0 405.55 21.9
2 -3 0 410.31 26.09
-2 -3 0 352.46 22.67
2 3 0 418.43 22.05
-2 3 0 392.5 25.34
-3 -3 0 77.12 8.44
3 -3 0 66.76 11.58
-3 -3 0 63.68 9.98
-3 3 0 43.16 9.23
3 3 0 62.34 8.92
3 3 0 56.19 7.03
-3 3 0 65.38 9.76
-4 -3 0 0.63 3.49
-4 -3 0 5.36 2.39
4 -3 0 4.6 4.74
4 -3 0 -0.33 2.25
4 3 0 3.17 2.91
-4 3 0 2.03 3.33
5 -3 0 471.83 27.41
-5 -3 0 480.75 30.28
-5 3 0 528.38 30.59
5 3 0 517.14 29.55
6 -3 0 51.39 11.11
-6 -3 0 53.27 11.03
6 -3 0 57.23 10.16
-6 3 0 60.4 11.31
6 3 0 48.38 9.88
-7 -3 0 95.81 15.63
7 -3 0 94.37 15.16
7 -3 0 74.81 13.04
-7 3 0 58.77 12.08
7 3 0 71.82 13.51
8 -3 0 223.7 24.57
8 -3 0 226.49 25.35
-8 -3 0 275.72 28.68
8 3 0 208.39 24.5
-8 3 0 270.01 27.93
9 -3 0 10.16 6.83
-9 -3 0 12.24 8.09
9 -3 0 13.33 8.08
9 3 0 12.27 8.85
-9 3 0 18.63 9.32
10 -3 0 112.55 18.97
-10 -3 0 134.39 23.07
10 -3 0 115.46 18.16
10 3 0 134.95 21.64
-10 3 0 117.8 20.38
-11 -3 0 8.91 9.86
11 -3 0 19.28 8.93
11 -3 0 13.04 8.2
11 3 0 10.49 8.86
-11 3 0 16.23 10.22
0 -4 0 1247.06 61.05
0 4 0 1254.94 55.09
1 -4 0 504.05 33.85
-1 -4 0 580.32 32.94
1 4 0 574.07 29.24
-2 -4 0 2.34 3.75
2 -4 0 6.6 6.44
-2 -4 0 62.33 10.19
2 4 0 11.41 4.76
3 -4 0 502.16 33.66
-3 -4 0 461.9 29.63
3 4 0 487.6 27.52
-4 -4 0 888.05 46.76
4 -4 0 846.42 49.66
-4 4 0 925.77 47.36
4 4 0 821.45 43.15
5 -4 0 562.94 37.98
5 -4 0 526.5 30.8
-5 -4 0 608.48 35.92
-5 4 0 554.39 34.48
5 4 0 563.67 32.68
6 -4 0 148.11 20.64
-6 -4 0 118.24 17.81
6 -4 0 143.51 16.93
6 4 0 131.18 16.76
-6 4 0 162.98 20.42
7 -4 0 244.51 34.47
7 -4 0 263.78 28.04
-7 -4 0 265.71 27.71
7 4 0 280.2 27.53
-7 4 0 248.94 27.89
8 -4 0 340.02 33.81
-8 -4 0 356.59 29.75
-8 4 0 389.55 30.53
8 4 0 290.53 30.68
-9 -4 0 0.38 6.42
9 -4 0 -2.31 4.82
-9 4 0 1.05 6.45
9 4 0 5.92 7.16
-10 -4 0 37.62 13.29
10 -4 0 18.43 8.91
10 4 0 33.32 11.79
-10 4 0 48.26 14.15
0 -5 0 -0.98 4.65
1 -5 0 155.1 20.82
-1 -5 0 183.84 20.21
-2 -5 0 220.54 23.79
2 -5 0 192.82 24.23
-3 -5 0 20.16 7.82
3 -5 0 17.85 8.93
4 -5 0 3.56 6.92
-4 -5 0 -4.92 3.99
-5 -5 0 453.34 32.89
5 -5 0 411.83 33.45
-6 -5 0 274.98 29.78
6 -5 0 246.89 29.81
-6 5 0 297.4 30.68
-7 -5 0 53.48 13.87
7 -5 0 78.19 17.22
-7 5 0 84.79 16.63
-1 -6 0 217.29 26.83
1 -6 0 168.4 23.19
-2 -6 0 73.92 15.53
2 -6 0 66.44 15.36
-3 -6 0 64.62 15.12
3 -6 0 63.59 15.97
4 -6 0 240.56 29.79
-4 -6 0 207.57 26.44
13 0 -1 2.86 7.3
-13 0 1 -1.81 6.13
-12 0 1 3.38 6.09
12 0 -1 -4.37 5.13
-11 0 1 -1.52 6.05
11 0 -1 -2.07 4.7
-10 0 1 -1.87 4.28
10 0 -1 6.31 5.64
9 0 -1 2.15 4.8
9 0 -1 -2.41 2.58
-9 0 1 6.56 4.74
-8 0 1 2.45 4.88
8 0 -1 3.24 3.2
8 0 -1 1.31 3.66
7 0 -1 2.39 2.87
-7 0 1 -1.66 2.83
7 0 -1 5.73 4.38
6 0 -1 -0.11 2.18
-6 0 1 -0.51 2.88
6 0 -1 1.22 3.1
5 0 -1 8.16 4.19
-5 0 1 -1.24 2.45
5 0 -1 0.06 2.07
4 0 -1 -2.16 2.27
4 0 -1 -3.08 1.41
-4 0 1 -2.18 2.06
-3 0 1 -5.14 2.14
3 0 -1 -6.15 1.57
3 0 -1 -3.29 2.35
2 0 -1 2.36 1.74
-2 0 1 0.43 1.72
2 0 -1 9.15 2.01
-1 0 1 -8.5 0.89
1 0 -1 -7.31 1.03
1 0 -1 -6.11 1.17
-1 0 1 -7.65 1.1
-1 0 1 -8.82 0.95
0 0 1 -0.75 0.4
0 0 -1 -1.28 0.23
0 0 1 -0.1 0.46
0 0 -1 -0.33 0.38
-1 0 -1 -6.41 1.23
1 0 1 -4.97 1.36
-1 0 -1 -5.79 1.32
1 0 1 -7.45 0.78
-1 0 -1 -1.18 1.3
2 0 1 -1.64 1.89
2 0 1 -2.95 1.28
-2 0 -1 2.26 1.62
-2 0 -1 -1.41 2.13
-3 0 -1 -1.89 1.49
-3 0 -1 -2.53 1.85
3 0 1 -3.55 1.26
3 0 1 -4.47 1.23
-4 0 -1 12.65 4.57
4 0 1 0.98 1.86
4 0 1 2.37 2.14
5 0 1 -0.17 1.68
-5 0 -1 0.76 3
5 0 1 0.44 2.11
6 0 1 -0.35 1.87
-6 0 -1 -2.37 2.08
6 0 1 -1.76 2.65
-7 0 -1 -0.36 2.65
7 0 1 2.56 3.33
7 0 1 -0.48 1.99
8 0 1 3.29 4.36
8 0 1 -1.11 2.34
-8 0 -1 -1.55 3.05
-9 0 -1 5.6 5.13
9 0 1 -3.8 3.52
10 0 1 3.44 5.84
-10 0 -1 1.2 4.73
-11 0 -1 1.47 5.04
11 0 1 3.87 5.44
-12 0 -1 -1.57 6.12
12 0 1 -0.78 5.6
12 -1 -1 167.03 23.18
-12 -1 1 163.26 24.21
-12 1 1 121.77 22.5
12 1 -1 150.82 22.9
-11 -1 1 128.91 20.08
11 -1 -1 131.7 19.52
-11 1 1 167.26 23.65
11 1 -1 92.58 17.62
-10 -1 1 124.95 19.93
10 -1 -1 81.42 14.87
10 -1 -1 123.82 15.67
10 1 -1 133.06 19.75
-10 1 1 109.49 18.6
9 -1 -1 426.84 30.12
-9 -1 1 426.4 31.51
9 -1 -1 495.01 28.05
-9 1 1 392.41 30.36
9 1 -1 445.93 31.59
8 -1 -1 715.69 39.88
8 -1 -1 708.52 36.91
-8 -1 1 790.16 43.2
-8 1 1 583.55 39.1
8 1 -1 716.46 41.36
7 -1 -1 8.51 4.82
7 -1 -1 4.82 3.36
-7 -1 1 0.8 3.55
7 1 -1 -1.2 1.96
7 1 -1 5.77 2.69
-7 1 1 0.63 2.71
6 -1 -1 433.29 26.07
-6 -1 1 379.25 25.93
6 -1 -1 430.1 24.26
6 1 -1 436.94 19.75
6 1 -1 377.66 25.38
5 -1 -1 466.23 25.69
5 -1 -1 481.96 27.2
-5 -1 1 464.33 26.76
5 1 -1 485.35 21.14
5 1 -1 481.33 27.13
4 -1 -1 453.04 24.49
4 -1 -1 442.37 23.82
-4 -1 1 425.28 23.49
4 1 -1 457.55 24.35
-4 1 1 441.01 24.03
4 1 -1 459.47 19.26
-3 -1 1 4.76 1.34
-3 -1 1 5.42 2.59
3 -1 -1 6.57 2.81
3 -1 -1 6.19 2.87
3 1 -1 2.23 1.14
3 1 -1 2.3 1.95
-3 1 1 -1.1 1.26
-2 -1 1 4.63 2.04
2 -1 -1 6.7 1.9
-2 -1 1 3.33 1.14
2 -1 -1 3.1 2.11
-2 1 1 3.86 1.86
2 1 -1 5.49 1.38
2 1 -1 6.79 2.27
-1 -1 1 2085.69 80.8
1 -1 -1 1855.76 81.97
1 -1 -1 2142.45 79.24
1 1 -1 2110.37 80.05
1 1 -1 2065.04 81.08
-1 1 1 2192.96 81.7
0 -1 -1 4083.41 177.14
0 -1 -1 4897.04 175.69
0 1 -1 4635.05 177.41
0 1 1 4967.17 175.71
0 1 -1 4724.86 177.16
-1 -1 -1 311.97 16.87
-1 -1 -1 363.44 15.33
-1 -1 -1 367.67 15.25
-1 1 -1 359.32 17.35
-1 1 -1 377.78 16.96
1 1 1 380.85 15.48
1 1 1 362.41 16.23
-2 1 -1 1219.12 51.51
2 1 1 1304.19 52.22
4 -1 1 1081.57 49.58
4 -1 1 1116.71 49.76
-4 1 -1 1194.55 51.01
4 1 1 1120.37 42.85
-4 1 -1 1114.72 49.72
4 1 1 1157.22 42.95
4 1 1 1039.84 50.61
5 -1 1 14.11 5.07
5 -1 1 1.36 2.98
-5 -1 -1 -1.03 1.51
-5 1 -1 0.62 2.52
5 1 1 25.91 6.8
5 1 1 1.32 1.26
-5 1 -1 -0.81 2.26
5 1 1 1.41 1.18
6 -1 1 1269.12 60.36
6 -1 1 1369.22 58.16
-6 -1 -1 1282.59 60.39
-6 1 -1 1190.63 59.44
6 1 1 1194.57 49.96
6 1 1 1268.08 60.3
7 -1 1 702.25 39.44
7 -1 1 700.31 35.35
-7 1 -1 659.19 38.76
7 1 1 588.53 37.34
8 -1 1 18.31 7.42
8 -1 1 30.13 7.51
-8 -1 -1 37.17 10.17
-8 1 -1 37.22 10.55
8 1 1 12.46 6.82
9 -1 1 9.7 6.52
-9 -1 -1 14.67 6.97
9 -1 1 8 4.99
-9 1 -1 9.23 6.59
9 1 1 9.72 6.36
-10 -1 -1 359.43 29.97
10 -1 1 363.75 28.73
10 -1 1 354.34 24.28
-10 1 -1 351.23 29.48
10 1 1 358.13 29.41
11 -1 1 34.04 11.66
-11 -1 -1 41.27 12.94
-11 1 -1 45.42 12.58
11 1 1 59.78 14.46
12 -1 1 27.43 11.09
-12 -1 -1 18.14 9.74
-12 1 -1 18.43 9.46
12 1 1 21.43 9.59
12 -2 -1 3.29 6.99
-12 -2 1 1.01 6.68
-12 2 1 7.11 7.21
12 2 -1 -0.28 5.82
-11 -2 1 221.7 29.18
11 -2 -1 272.83 28.58
11 -2 -1 263.85 25.74
-11 2 1 178.16 25.97
11 2 -1 233.4 28.78
-10 -2 1 609.89 42.84
10 -2 -1 597.94 38.66
10 -2 -1 651.35 37.81
-10 2 1 539.55 40.19
10 2 -1 669.74 43.25
-9 -2 1 188.85 24.8
9 -2 -1 208.35 22.41
9 -2 -1 208.13 23.17
9 2 -1 192.48 24.47
-9 2 1 182.57 23.42
8 -2 -1 171.06 19.7
8 -2 -1 189.78 20.22
-8 -2 1 145.16 19.98
8 2 -1 155.43 20.87
-8 2 1 142.87 19.21
-7 -2 1 1900.45 85.72
7 -2 -1 1871.82 84.54
7 -2 -1 1763.25 83
-7 2 1 1914.76 85.98
7 2 -1 1910.41 86.12
-6 -2 1 1969.15 87.19
6 -2 -1 1964.49 87.28
6 -2 -1 2007.62 87.13
6 2 -1 2010.44 87.93
5 -2 -1 198.37 18.83
-5 -2 1 155.23 13.77
-5 -2 1 178.42 8.42
5 -2 -1 192.82 14.15
-5 2 1 172.83 14.51
5 2 -1 166.43 14.28
5 2 -1 172.9 8.68
-4 -2 1 1028.81 48.01
4 -2 -1 1066.93 46.34
4 -2 -1 1160.78 51.32
4 2 -1 1044.4 47.75
4 2 -1 1015.95 41.97
-4 2 1 1024.14 48.13
-3 -2 1 4814.53 183.81
3 -2 -1 4604.32 180.87
3 2 -1 4705.81 183.29
-3 2 1 4688.88 183.93
3 2 -1 4695.35 179.16
2 -2 -1 2975.24 121.12
-2 -2 1 2976.02 117.85
-2 2 1 2944.97 118.55
2 2 -1 2996.98 115.45
1 -2 -1 224.34 15.23
-1 2 1 213.5 11.13
1 2 -1 212.87 12.54
1 2 -1 211.21 12.6
0 -2 -1 4217.82 174.93
0 2 -1 4639.49 173.12
0 2 1 4616.15 171.37
-1 -2 -1 4141.03 167.76
-1 2 -1 4398.79 167.72
1 2 1 4265.87 166.59
-1 2 -1 4606.35 170.69
-2 -2 -1 631.02 26.64
-2 -2 -1 611.81 30.12
-2 2 -1 625.25 29.7
-2 2 -1 610.7 31.11
2 2 1 606.47 28.28
3 -2 1 2072.9 85.82
-3 -2 -1 2046.59 84.46
-3 -2 -1 2015.22 76.76
-3 -2 -1 1983.73 76.86
-3 2 -1 2007.27 83.58
3 2 1 2011.3 82.71
4 -2 1 2677.01 112.33
4 -2 1 2678.46 109.55
-4 -2 -1 2779.46 111.81
-4 2 -1 2652.4 112.16
-4 2 -1 2630.75 110.37
4 2 1 2771.45 110.67
5 -2 1 1783.4 78.83
5 -2 1 1923.47 82.21
-5 -2 -1 1887.33 81.05
-5 2 -1 1807.71 81.08
-5 2 -1 1806.85 80.43
5 2 1 1847.18 80.77
6 -2 1 -0.08 3.5
6 -2 1 6.59 4.12
-6 -2 -1 -1.5 3.11
-6 2 -1 -1.85 2.27
6 2 1 2.29 3.65
7 -2 1 676.55 40.51
-7 -2 -1 764.15 42.76
7 -2 1 747.39 41.08
-7 2 -1 770.53 42.55
7 2 1 726.93 42.17
-8 -2 -1 1156.69 63.25
8 -2 1 1310.93 61.01
8 -2 1 1177.48 62.91
8 2 1 1162.9 62.63
-8 2 -1 1268.25 64.03
9 -2 1 678.45 42.29
9 -2 1 695.71 38.82
-9 -2 -1 629.72 43.49
-9 2 -1 561.87 40.46
9 2 1 656.29 42.18
10 -2 1 94.55 17.38
10 -2 1 95.75 15.41
-10 -2 -1 81.5 17.31
10 2 1 80.42 17.02
-10 2 -1 67.25 15.43
11 -2 1 210.54 23.51
-11 -2 -1 226.5 30.17
11 -2 1 252.87 28.67
11 2 1 262.43 30.52
-11 2 -1 214.45 28.22
12 -2 1 431.18 35.51
-12 -2 -1 489.48 40.7
12 2 1 467.08 38.19
-12 2 -1 476.94 38.68
11 -3 -1 60.84 14.36
11 -3 -1 50.89 12.86
-11 -3 1 47.57 15.24
-11 3 1 21.06 10.98
11 3 -1 46.14 13.74
-10 -3 1 17.25 10.45
10 -3 -1 26.52 9.76
10 -3 -1 26.69 9.29
10 3 -1 18.14 9.44
-10 3 1 27.57 10.95
-9 -3 1 675.36 43.94
9 -3 -1 677.51 41.18
9 -3 -1 638.04 39.89
-9 3 1 638.57 42.6
9 3 -1 578.12 40.85
8 -3 -1 710.62 43.84
8 -3 -1 753.32 44.15
-8 -3 1 799.29 46.66
8 3 -1 850.05 47.16
-8 3 1 761.08 46.31
-7 -3 1 71.13 12.96
7 -3 -1 99.74 14.98
7 -3 -1 66.49 12.57
-7 3 1 72.23 13.2
7 3 -1 71.41 12.91
-6 -3 1 164.15 19.2
6 -3 -1 204.25 16.62
6 -3 -1 198.03 21.75
-6 3 1 212.92 21.66
6 3 -1 221.3 18.28
-5 -3 1 1783.56 75.48
5 -3 -1 1593.48 70.69
-5 3 1 1569.34 73.9
5 3 -1 1633.65 73.42
4 -3 -1 363.19 25.03
4 -3 -1 336.41 19.21
-4 -3 1 334.98 22.14
4 3 -1 334.07 21.38
4 3 -1 344.2 17.69
-4 3 1 326.09 22.05
3 -3 -1 102.74 14.52
-3 -3 1 88.79 11.33
-3 3 1 105.49 12.67
3 3 -1 110.17 11.8
-2 -3 1 1298.02 56.46
2 -3 -1 1263.2 59.73
2 3 -1 1211.45 54.54
2 3 -1 1237.01 54.42
1 -3 -1 1394.71 65.44
1 3 -1 1418.38 61.23
1 3 -1 1469.16 63.05
-1 3 1 1478.7 59.29
0 -3 -1 1675.39 73.43
0 3 -1 1707.73 69.89
0 3 -1 1662.38 72.94
-1 -3 -1 5.28 3.37
-1 3 -1 21.2 4.62
1 3 1 5.54 2.66
-1 3 -1 23.87 6.31
-2 -3 -1 1124.89 47.65
2 -3 1 1079.23 52.7
-2 -3 -1 1024.02 50.49
-2 3 -1 1124.34 53.1
-2 3 -1 1096.8 50.77
2 3 1 1096.1 47.82
3 -3 1 1322.46 62.41
-3 -3 -1 1330.31 53.32
-3 -3 -1 1315.61 59.94
-3 3 -1 1267.79 58.86
-3 3 -1 1378.77 62.97
3 3 1 1221.87 56.61
-4 -3 -1 1478.9 67.48
-4 3 -1 1452.72 66.46
4 3 1 1483.1 65.14
-5 -3 -1 20.01 6.52
5 -3 1 22.26 7.77
5 -3 1 27.66 6.69
-5 3 -1 40.59 9.61
5 3 1 32.63 7.54
-5 3 -1 36.26 8.53
6 -3 1 301.25 21.72
-6 -3 -1 268.99 22.16
6 -3 1 295.8 24.26
6 3 1 303.64 22.31
-6 3 -1 287.69 22.75
7 -3 1 1220.59 59.59
-7 -3 -1 1164.67 61.23
7 -3 1 1175.88 61.64
-7 3 -1 1167.72 60.8
7 3 1 1187.11 60.7
8 -3 1 311.88 26.26
8 -3 1 327.32 31.09
-8 -3 -1 317.26 32.27
-8 3 -1 321.31 27.13
8 3 1 360.29 28.11
9 -3 1 6.3 5.53
-9 -3 -1 -1.19 5.34
9 -3 1 4.53 7.43
-9 3 -1 9.32 7.05
9 3 1 0.63 5.64
-10 -3 -1 604.75 43.82
10 -3 1 500.57 38.25
10 -3 1 517.4 36.3
10 3 1 487.33 38.21
-10 3 -1 533.52 40.41
-11 -3 -1 376.07 41.59
11 -3 1 329.22 32.37
11 -3 1 297.76 33.05
-11 3 -1 272.55 34
11 3 1 428.54 42.09
10 -4 -1 74.95 16.86
-10 -4 1 67.74 17.69
-10 4 1 56.1 15.27
10 4 -1 51.02 14.35
9 -4 -1 49.25 12.96
-9 -4 1 87.39 17.76
9 4 -1 82.93 16.13
-9 4 1 86.85 17.47
-8 -4 1 105.07 18.27
8 -4 -1 88.65 16.6
-8 4 1 100.97 18.11
8 4 -1 82.27 16.15
7 -4 -1 221.21 25.65
-7 -4 1 224.93 24.97
-7 4 1 169.9 22.23
7 4 -1 277.89 27.35
-6 -4 1 296.61 24.69
6 -4 -1 311.07 30.86
6 4 -1 330.89 24.27
-6 4 1 310.57 24.8
5 -4 -1 4.87 5.05
-5 -4 1 11.42 5.93
5 4 -1 3.65 4.27
-5 4 1 1.67 4.37
-4 -4 1 137.58 17.67
4 -4 -1 197.34 22.73
4 -4 -1 176.21 17.64
-4 4 1 190.07 20.29
4 4 -1 166.71 17.42
-3 -4 1 322.71 20.5
3 -4 -1 265.68 27.24
-3 -4 1 332.87 22.93
3 4 -1 317.56 21.03
3 4 -1 295.24 19.7
-2 -4 1 401.78 26.57
2 -4 -1 414.21 29.18
-2 -4 1 421.06 25.86
2 4 -1 396.49 25.36
2 4 -1 480.05 25.95
-1 -4 1 0.21 3.07
1 -4 -1 0.97 3.86
1 4 -1 7.87 4.68
1 4 -1 6 3.6
0 -4 -1 139.19 16.86
0 -4 1 140.58 17.3
0 4 -1 155.94 17.64
0 4 1 170.89 12.23
0 4 -1 164.27 13.19
1 -4 1 971.72 50.79
-1 -4 -1 949.25 46.84
-1 4 -1 1015.06 51.05
-1 4 -1 946.97 44.77
1 4 1 947.26 43.77
-2 -4 -1 8.03 4.92
2 -4 1 7.86 5.8
-2 -4 -1 7.94 4.06
-2 4 -1 10.16 6.15
2 4 1 9.04 3.89
-3 -4 -1 50.27 10.37
3 -4 1 63.14 13.03
3 4 1 85.72 10.89
-3 4 -1 88.42 14.4
-4 -4 -1 481.22 31.05
4 -4 1 523.2 35.09
-4 4 -1 436.41 29.48
4 4 1 483.41 28.04
5 -4 1 94.69 13.06
-5 -4 -1 59.03 11.61
5 -4 1 80.87 15.67
5 4 1 74.79 11.82
-5 4 -1 70.4 12.43
6 -4 1 -3.05 4.25
6 -4 1 4.52 4.7
-6 -4 -1 0.67 4.54
6 4 1 -0.42 4
-6 4 -1 0.59 4.51
7 -4 1 109.73 16.33
-7 -4 -1 134.25 20.34
7 -4 1 129.9 20.26
-7 4 -1 112.85 18.05
7 4 1 140.24 18.92
-8 -4 -1 80.86 16.22
8 -4 1 83.35 15.51
8 -4 1 60.18 14.11
8 4 1 98.25 17.37
-8 4 -1 75.57 15.63
9 -4 1 68.74 16.04
-9 -4 -1 78.55 17.2
-9 4 -1 73.89 16.21
9 4 1 62.69 14.64
8 -5 -1 20.45 10.06
-8 -5 1 -2.7 6.79
8 5 -1 2.46 6.27
-8 5 1 2.81 6.56
-7 -5 1 16.64 9.23
7 -5 -1 2.5 7.34
-7 5 1 16.82 8.54
7 5 -1 -0.55 5.98
6 -5 -1 8.46 7.52
-6 -5 1 1.62 6.45
6 5 -1 3.42 4.99
5 -5 -1 64.05 15.08
-5 -5 1 42.24 11
5 5 -1 70.33 12.57
-4 -5 1 59.41 13.17
4 -5 -1 54.11 13.03
4 5 -1 51.8 10.58
-3 -5 1 6.29 5.24
3 -5 -1 -3.31 4.42
3 5 -1 1.92 4.62
-2 -5 1 140.69 18.2
2 -5 -1 118.07 18.3
-1 -5 1 14.17 7.48
1 -5 -1 31.82 9.28
0 -5 1 33.95 10.38
0 -5 -1 13.16 6.76
1 -5 1 21.08 8.76
-1 -5 -1 22.98 7.23
-2 -5 -1 9.61 5.4
2 -5 1 11.2 8.02
-3 -5 -1 13.85 7.12
3 -5 1 29.07 10.99
-4 -5 -1 4.69 6.07
4 -5 1 0.5 6.76
5 -5 1 0.03 5.24
-5 -5 -1 6.61 7.23
6 -5 1 2.04 6.77
-6 -5 -1 -2.71 6.36
-6 5 -1 -1.77 5.02
-7 -5 -1 5.4 6.81
7 -5 1 16.69 9.23
-7 5 -1 8.06 7.68
-4 -6 1 35.63 11.87
4 -6 -1 37.19 13.09
-3 -6 1 130 20.07
3 -6 -1 89.64 18.22
2 -6 -1 82.94 17.22
-2 -6 1 66.95 14.92
1 -6 -1 0.05 6.63
-1 -6 1 -0.95 6.43
-1 -6 -1 73.72 15.66
1 -6 1 58.63 15.16
-2 -6 -1 49.77 14.12
2 -6 1 39.89 12.85
-3 -6 -1 21.03 10.23
3 -6 1 10.63 8.82
-4 -6 -1 43.71 13.07
4 -6 1 21.68 9.89
-13 0 2 346.37 37.94
13 0 -2 461.16 35.76
12 0 -2 257.09 30
-12 0 2 248.2 29.9
11 0 -2 314.16 27.54
-11 0 2 378.69 30.46
10 0 -2 869.93 49.31
-10 0 2 814.63 49.28
9 0 -2 2354.27 104.68
9 0 -2 2334.62 97.08
-9 0 2 2243.65 104.15
8 0 -2 1580.45 77.65
-8 0 2 1727.8 78.67
8 0 -2 1725.41 72.38
7 0 -2 1419.95 68.12
-7 0 2 1494.24 68.55
7 0 -2 1493.68 63.59
6 0 -2 4756.8 196.92
6 0 -2 4930.85 192.81
-6 0 2 5169.34 197.79
5 0 -2 4169.87 166.19
-5 0 2 4187.77 166.44
4 0 -2 -2.94 1.59
4 0 -2 1.19 2.95
-4 0 2 0.39 2.71
-3 0 2 723.21 32.57
3 0 -2 722.63 31.28
3 0 -2 734.24 32.25
2 0 -2 7739.75 293.55
2 0 -2 7599.96 293.6
-2 0 2 7957.43 293.97
-1 0 2 666.02 26.78
1 0 -2 673.33 27.78
1 0 -2 701.44 27.49
0 0 -2 631.07 26.24
0 0 -2 631.03 26.13
0 0 -2 672.06 25.33
0 0 2 649.13 26.2
-1 0 -2 1611.43 61.69
-1 0 -2 1534.66 60.9
2 0 2 6130.07 236.62
-2 0 -2 6193.57 234.52
-2 0 -2 6287.98 237.28
-3 0 -2 2283.72 102.34
-3 0 -2 2767.44 98.88
-4 0 -2 1739.21 70.54
-4 0 -2 1745.48 75.78
4 0 2 1787.16 76.05
5 0 2 3170.82 129.78
-5 0 -2 3504.75 130.42
-5 0 -2 3175.95 122.93
5 0 2 2720.41 122.29
6 0 2 1799.07 77.11
-6 0 -2 1961.04 84.28
7 0 2 107.67 11.05
-7 0 -2 119.51 16.29
-8 0 -2 67.97 13.08
8 0 2 88.44 15.08
8 0 2 68.33 9.23
-9 0 -2 1246.64 64.92
9 0 2 1258.1 64.93
-10 0 -2 228.91 26.92
10 0 2 234.43 26.24
-11 0 -2 5.48 6.7
11 0 2 4.69 6.79
-12 0 -2 157.89 25
12 0 2 118.7 21.17
-12 -1 2 204.97 27.03
12 -1 -2 179.79 24.6
-12 1 2 199.03 27.82
12 1 -2 215.24 27.84
11 -1 -2 262.18 21.06
11 -1 -2 258.35 28.21
-11 -1 2 222.2 26.86
-11 1 2 260.83 30.05
11 1 -2 324.83 33.2
10 -1 -2 28.2 9.69
-10 -1 2 47.48 11.71
10 -1 -2 43.44 9.67
-10 1 2 56.34 13.87
10 1 -2 26.19 9.13
-9 -1 2 7.94 5.25
9 -1 -2 7.9 5.31
9 -1 -2 -0.36 2.97
-9 1 2 12.07 6.25
9 1 -2 6.02 6.19
8 -1 -2 887.61 42.78
8 -1 -2 836.82 44.47
-8 -1 2 892.38 47.07
8 1 -2 792.2 37.38
-8 1 2 780.47 45.48
8 1 -2 794.95 45.84
-7 -1 2 1315.28 64
7 -1 -2 1350.76 60.43
7 -1 -2 1374.4 62.6
-7 1 2 1249.34 63.01
-6 -1 2 272.04 20.67
6 -1 -2 301.47 19.39
6 -1 -2 293.6 19.95
-6 1 2 311.15 21.18
6 1 -2 291.59 15.53
5 -1 -2 1196.55 52.67
-5 -1 2 1194.77 53.55
5 -1 -2 1172.44 52.5
-5 1 2 1167.96 53.39
5 1 -2 1184 47.62
5 1 -2 1046.83 52.24
4 -1 -2 2291.36 96.03
4 -1 -2 2348.16 95.45
-4 -1 2 2324.73 95.47
4 1 -2 2383.74 91.37
4 1 -2 2335.46 95.79
-4 1 2 2415.62 96.03
-2 -1 2 1096.27 44.73
2 -1 -2 1072.56 44.23
2 1 -2 1126.62 45.91
-2 1 2 1264.53 44.73
2 1 -2 1109.1 43.9
-2 1 2 906.25 45.04
-1 -1 2 4791.44 168.65
1 -1 -2 4159.65 166.62
1 -1 -2 4585.91 166.36
1 -1 -2 4447.37 170.3
1 1 -2 4409.05 169
-1 1 2 4096.91 169.73
1 1 -2 4593.71 170.02
0 -1 -2 2330.51 95.98
0 -1 -2 2571.67 97.41
0 1 -2 2561.01 98.22
0 1 -2 2589.98 98.16
0 1 2 2596.55 95.51
-1 -1 -2 7523.84 287.48
-1 -1 -2 7914.43 289.05
-1 1 -2 7677.11 287.47
-1 1 -2 7444.43 288.77
1 1 2 7369.8 286.38
1 1 2 7731.51 287.7
-2 -1 -2 280.05 11.33
-2 -1 -2 241.22 14.81
-2 1 -2 291.83 14.79
2 1 2 278.73 15.45
2 1 2 277.4 11.5
-2 1 -2 263.68 14.73
3 -1 2 3145.61 126.75
-3 -1 -2 3185.62 120.54
-3 -1 -2 3245.57 127.34
3 1 2 3200.41 120.47
-3 1 -2 3251.2 126.5
-4 -1 -2 6340.32 243.37
4 -1 2 6154.03 242.46
-4 1 -2 6380.35 243.5
-4 1 -2 6295.93 241.78
4 1 2 6229.97 235.13
4 1 2 6058.99 243.92
4 1 2 6318.05 234.84
5 -1 2 261.74 16.98
-5 -1 -2 232.63 17.84
5 -1 2 241.7 17.72
5 1 2 270.07 11.89
5 1 2 235.48 18.26
5 1 2 259.34 12.14
-5 1 -2 250.06 18.44
-5 1 -2 241.13 16.61
6 -1 2 324.76 21.18
6 -1 2 322.58 23.06
-6 1 -2 330.06 21.08
6 1 2 353.51 23.95
6 1 2 356.83 15.78
-6 1 -2 290.09 22.47
7 -1 2 1204.04 60.31
7 -1 2 1214.74 55.81
-7 1 -2 1047.32 57.79
7 1 2 1236.07 59.59
-8 -1 -2 1578.33 79.17
8 -1 2 1550.46 78.01
8 -1 2 1578.64 72.05
-8 1 -2 1641.59 78.28
8 1 2 1696.96 78.44
9 -1 2 65.86 10.92
-9 -1 -2 69.74 14.93
9 -1 2 95.27 17.03
9 1 2 98.17 16.33
-9 1 -2 89.05 16.32
-10 -1 -2 231.56 28.04
10 -1 2 231 26.57
10 1 2 214.91 25.96
-10 1 -2 247.09 28.08
11 -1 2 832.77 51.47
-11 -1 -2 882.67 54.4
-11 1 -2 803.33 51.57
11 1 2 825.4 51.68
12 -1 2 286.05 32.51
-12 -1 -2 214.76 29.71
-12 1 -2 294.77 33.11
12 1 2 256.71 31.25
-12 -2 2 2.71 6.51
12 -2 -2 2.18 5.61
12 -2 -2 0.29 5.55
12 2 -2 -1.53 7.08
-12 2 2 2.71 6.33
11 -2 -2 9.01 7.35
11 -2 -2 16.96 7.52
-11 -2 2 13.79 8.36
11 2 -2 5.26 6.96
-11 2 2 9.7 7.8
10 -2 -2 45.06 11.02
-10 -2 2 49.28 13.39
10 -2 -2 52.22 11.48
10 2 -2 43.06 12.8
-10 2 2 43.7 12.38
9 -2 -2 130.73 17.23
9 -2 -2 122.74 16.56
-9 -2 2 155.57 22.45
9 2 -2 138.73 20.12
-9 2 2 161.37 21.76
-8 -2 2 172.67 21.05
8 -2 -2 121.22 16.09
8 -2 -2 121.07 15.83
-8 2 2 132.42 18.74
8 2 -2 146.86 19.34
7 -2 -2 84.06 12.64
-7 -2 2 70.44 12.19
7 -2 -2 65.11 11.43
-7 2 2 53.86 10.92
7 2 -2 74.09 13.08
6 -2 -2 477.6 28.13
6 -2 -2 509.17 29.59
-6 -2 2 483.46 28.65
6 2 -2 430.52 28.2
6 2 -2 479.63 21.34
5 -2 -2 97.68 13
5 -2 -2 125.5 13.45
-5 -2 2 122.39 13.33
5 2 -2 112.16 7.32
5 2 -2 108.93 12.82
-4 -2 2 24.36 5.36
4 -2 -2 23.79 6.19
4 -2 -2 31.47 5.74
4 2 -2 19.61 3.47
4 2 -2 17.2 4.87
-3 -2 2 3.94 2.78
3 -2 -2 3.18 3.38
3 -2 -2 8.14 2.8
3 2 -2 3.2 2.8
-3 2 2 6.62 3.18
3 2 -2 3.55 1.92
2 -2 -2 1018.19 50.71
2 2 -2 1182.7 49.75
-2 2 2 1145.87 50.23
2 2 -2 1209.41 48.04
1 -2 -2 30.02 5.61
1 -2 -2 36.85 3.93
1 2 -2 26.33 4.56
0 -2 -2 8.92 3.14
0 2 -2 4.76 2.66
0 2 -2 -0.2 1.64
-1 -2 -2 1125.66 45.18
-1 2 -2 1072.68 47.67
1 2 2 1060.88 44.34
-2 -2 -2 367.37 16.51
-2 2 -2 380.18 21.49
2 2 2 388.67 19.09
-2 2 -2 356.24 19.76
-3 -2 -2 0.46 0.7
-3 -2 -2 0.76 1.67
-3 -2 -2 0.78 0.75
-3 2 -2 -1.43 2.07
3 2 2 -0.02 2
-3 2 -2 4.03 3.16
4 -2 2 512.28 26.63
-4 -2 -2 350.01 25.02
4 2 2 529.24 27.21
-4 2 -2 482.89 27.38
-4 2 -2 494.95 26.57
5 -2 2 289.83 20.35
5 -2 2 316.31 20.2
-5 2 -2 279.02 19.65
-5 2 -2 263.41 19.77
5 2 2 248.11 19.34
6 -2 2 212.02 20.88
-6 -2 -2 139.37 17.91
6 -2 2 237.16 18.34
-6 2 -2 191.63 19.66
6 2 2 194.41 20.3
-6 2 -2 228.03 18.44
7 -2 2 73.24 12.89
-7 -2 -2 64.56 12.57
7 -2 2 56.59 11.04
-7 2 -2 83.36 14.37
7 2 2 55.51 11.28
8 -2 2 -3.01 4
8 -2 2 -3.26 3.01
-8 -2 -2 4.29 5.13
-8 2 -2 6.81 5.96
8 2 2 -0.46 3.61
9 -2 2 26.4 9.96
9 -2 2 33.95 9.21
-9 -2 -2 19.47 9.05
9 2 2 55.41 13.09
-9 2 -2 20.45 9.26
-10 -2 -2 85.77 18.85
10 -2 2 77.65 13.91
10 -2 2 98.65 18.23
-10 2 -2 70.08 15.59
10 2 2 115.65 19.34
-11 -2 -2 11.63 9.36
11 -2 2 13.34 7.46
11 -2 2 5.13 7.29
11 2 2 -0.8 5.67
-11 2 -2 3.61 7.11
11 -3 -2 35.97 11.42
-11 -3 2 44.02 14.47
-11 3 2 56.88 16.11
11 3 -2 20.39 10.39
10 -3 -2 31.53 9.91
10 -3 -2 23.69 9.21
-10 -3 2 55.38 15.49
-10 3 2 45.03 13.57
10 3 -2 32.16 12.01
9 -3 -2 108.03 16.39
9 -3 -2 93.12 15.86
-9 -3 2 87.54 17.03
9 3 -2 109.23 19.13
-9 3 2 140.11 21.78
8 -3 -2 19.02 7.37
8 -3 -2 22.66 8.84
-8 -3 2 27.31 9.4
-8 3 2 10.55 7.28
8 3 -2 32.73 9.6
7 -3 -2 127.93 16.64
7 -3 -2 161.26 19.54
-7 -3 2 148.62 18.77
7 3 -2 160.68 19.71
-7 3 2 157.56 20.06
6 -3 -2 31.47 8.8
6 -3 -2 38.96 8.35
-6 -3 2 28.79 7.92
-6 3 2 26.96 8.07
6 3 -2 16.87 6.45
-5 -3 2 1.97 3.8
5 -3 -2 7.94 3.9
5 -3 -2 6.87 4.71
5 3 -2 1.47 3.44
-5 3 2 -0.84 2.81
4 -3 -2 663.03 38.29
-4 -3 2 631 35.09
4 -3 -2 725.12 32.51
4 3 -2 691.23 35.48
3 -3 -2 26.29 7.22
3 -3 -2 20.22 3.93
-3 -3 2 19.83 5.16
3 3 -2 21.93 4.88
3 3 -2 21.61 5.73
-3 3 2 11.16 4.43
2 -3 -2 37.21 8.22
-2 -3 2 51.31 8
2 3 -2 55.34 8.01
2 3 -2 42.9 6.88
1 -3 -2 468.64 27.39
1 3 -2 490.75 25.96
1 3 -2 520.83 26.92
0 -3 -2 262.79 17.36
0 3 -2 255.8 17.92
0 3 -2 264.53 16.48
0 3 2 262.43 13.82
-1 -3 -2 122.12 11.8
-1 3 -2 116.17 13.33
-1 3 -2 121.4 10.33
-2 -3 -2 21 4.15
-2 -3 -2 9.84 4.33
-2 3 -2 20.54 5.78
-2 3 -2 14.84 5.21
2 3 2 21.05 4.58
-3 -3 -2 205.51 17.04
-3 -3 -2 239.13 12.1
3 3 2 242.47 15.75
-3 3 -2 240.06 16.93
-4 -3 -2 109.56 14.04
-4 3 -2 101.36 13.11
4 3 2 80.97 10.84
-5 -3 -2 108.37 15.05
5 -3 2 145.05 16.16
5 -3 2 127.4 16.93
-5 3 -2 127.71 15.73
5 3 2 137.31 15.44
-5 3 -2 133.85 17.75
6 -3 2 43.71 11.02
-6 -3 -2 59.36 12.02
6 -3 2 46.17 9.52
-6 3 -2 63.44 11.69
-6 3 -2 66.17 12.74
6 3 2 60.37 11.58
7 -3 2 135.85 17.54
7 -3 2 112.49 18
-7 -3 -2 94.52 16.22
-7 3 -2 132.97 17.84
7 3 2 125.19 17.81
8 -3 2 112.02 17.97
8 -3 2 110.06 17.4
-8 -3 -2 93.05 16.6
-8 3 -2 91.14 16.48
8 3 2 120.28 18.57
9 -3 2 3.68 6.7
-9 -3 -2 -0.16 5.71
9 -3 2 8.42 6.69
9 3 2 -2.85 4.53
-9 3 -2 -0.82 5.86
-10 -3 -2 56.38 15.58
10 -3 2 41.27 13.62
10 -3 2 16.48 8.62
10 3 2 45.97 13.65
-10 3 -2 44.19 13.95
10 -4 -2 167.77 23.77
-10 -4 2 140.88 23.55
-10 4 2 130.86 23.04
10 4 -2 207.32 28.96
9 -4 -2 600.12 40.37
-9 -4 2 511.53 39.12
-9 4 2 525.05 39.74
9 4 -2 552.36 39.68
-8 -4 2 79.95 16.17
8 -4 -2 72.26 15.14
-8 4 2 58.61 13.58
8 4 -2 69.09 14.83
-7 -4 2 -8.18 3.77
7 -4 -2 5.86 6.07
7 4 -2 22.46 8.18
-7 4 2 5.8 5.41
-6 -4 2 745.66 42.83
6 -4 -2 762.41 45.39
-6 4 2 678.08 42.44
6 4 -2 771.56 42.47
5 -4 -2 451.01 31.86
-5 -4 2 429.63 28.81
-5 4 2 430.22 29.31
5 4 -2 393.02 27.18
-4 -4 2 274.07 20.8
4 -4 -2 253.16 26.32
4 4 -2 233.58 18.71
3 -4 -2 221.25 23.94
-3 -4 2 278.04 20.43
3 4 -2 251.42 18.84
3 4 -2 262.69 18.42
-2 -4 2 1405.08 64.85
2 -4 -2 1355.88 67.15
2 4 -2 1366.97 63.85
2 4 -2 1456.71 63.81
1 -4 -2 367.52 25.03
1 4 -2 370.07 22.74
1 4 -2 324.76 23.19
0 -4 -2 33.34 7.87
0 4 -2 25.97 6.74
0 4 -2 17.77 6.6
1 -4 2 1332.9 64.55
-1 -4 -2 1394.5 60.08
-1 4 -2 1289.07 64.15
1 4 2 1314.8 56.74
-1 4 -2 1294.44 59.43
-2 -4 -2 478.05 25.61
-2 -4 -2 497.4 30.69
2 -4 2 446.22 31
2 4 2 486.44 25.68
-2 4 -2 499.13 32.22
-3 -4 -2 162.73 18.78
3 -4 2 257.64 25.55
3 4 2 198.58 14.82
-3 4 -2 133.54 18.7
-4 -4 -2 413.7 29.44
4 -4 2 483.8 33.45
4 4 2 477.95 26.92
-4 4 -2 431.47 31.83
-4 4 -2 434.26 28.8
5 -4 2 255.3 20.01
5 -4 2 251.09 27.71
-5 -4 -2 222.87 24.31
-5 4 -2 232.67 26.3
5 4 2 227.6 18.73
-5 4 -2 246.21 24.89
6 -4 2 305.77 31.84
6 -4 2 286.73 22.53
-6 -4 -2 223.81 25.64
-6 4 -2 283.53 23.25
6 4 2 306.08 22.97
-7 -4 -2 15.31 8.56
7 -4 2 20.03 8.99
7 -4 2 21.64 8.05
-7 4 -2 24.84 8.96
7 4 2 22.83 8.5
8 -4 2 6.72 7.24
8 -4 2 15.7 8.86
-8 -4 -2 29.12 10.55
-8 4 -2 3.89 5.62
8 4 2 14.31 7.28
9 -4 2 139.5 21.81
9 -4 2 220.41 28.02
-9 -4 -2 155.99 24.17
-9 4 -2 194.95 27.22
9 4 2 172.92 24.24
8 -5 -2 148.18 23.54
-8 -5 2 139.34 22.5
8 5 -2 107.31 18.85
-8 5 2 118 20.9
7 -5 -2 262.03 31.6
-7 -5 2 239.53 28.36
-7 5 2 193.69 26.11
7 5 -2 240.87 25.67
-6 -5 2 4.26 6.17
6 -5 -2 6.91 7.08
6 5 -2 0.02 5.34
5 -5 -2 235.73 27.91
-5 -5 2 187.46 23.15
5 5 -2 220.82 22.72
-4 -5 2 234.59 24.76
4 -5 -2 223.95 27.13
4 5 -2 271.07 21.64
-3 -5 2 494.05 33.95
3 -5 -2 555.02 37.47
3 5 -2 567.86 33.44
2 -5 -2 -3.07 4.33
-2 -5 2 1.88 5.08
-2 -5 2 1.98 4.43
2 5 -2 7.47 5.2
-1 -5 2 241.89 26.42
1 -5 -2 279.47 26.56
1 5 -2 276.6 20.63
1 5 -2 257.45 26.18
0 -5 2 684.24 42.09
0 -5 -2 686.61 38.54
0 5 -2 641.99 36.4
0 5 -2 642.24 40.81
1 -5 2 238.38 27.17
-1 5 -2 271.97 28.75
2 -5 2 19.25 9.04
-2 -5 -2 43.39 10.79
-2 5 -2 44.72 11.97
3 -5 2 386.41 36.8
-3 -5 -2 341.82 27.68
-4 -5 -2 618.87 40.37
4 -5 2 625.22 43.54
-5 -5 -2 81.96 15.82
5 -5 2 62.19 15.21
-6 -5 -2 18.25 9.1
6 -5 2 26.2 11.34
-6 5 -2 38.43 11.47
-7 -5 -2 276.24 30.93
7 -5 2 254.47 31
-7 5 -2 253.68 29.49
-4 -6 2 4.01 7.37
4 -6 -2 -5.77 6.62
-3 -6 2 45.79 13.18
3 -6 -2 56.52 14.17
-2 -6 2 149.94 21.62
2 -6 -2 111.64 19.27
-1 -6 2 32.18 11.22
0 -6 2 51.56 14.81
1 -6 2 13.47 9.21
-1 -6 -2 -2.92 5.61
2 -6 2 139.37 23.17
-2 -6 -2 152.43 22.46
-3 -6 -2 56.08 14.65
3 -6 2 30.42 13.39
13 0 -3 -0.39 6.19
-13 0 3 11.21 8.99
12 0 -3 -3.22 5.05
-12 0 3 -1.98 5.41
-11 0 3 -3.38 4.2
11 0 -3 -3.66 4.41
10 0 -3 3.67 5.45
10 0 -3 -1.4 3.87
-10 0 3 0.94 5.24
9 0 -3 -1.7 3.53
-9 0 3 3.45 4.49
9 0 -3 -0.08 3.11
8 0 -3 2.36 3.08
-8 0 3 -0.68 4.02
8 0 -3 1.13 3.96
7 0 -3 2.19 2.85
-7 0 3 0.61 3.11
7 0 -3 -0.97 2.66
6 0 -3 1.76 2.57
-6 0 3 3.9 3.28
6 0 -3 1.06 2.62
-5 0 3 -2.32 2.5
5 0 -3 1.26 2.7
5 0 -3 -3.87 1.83
4 0 -3 2.21 1.83
-4 0 3 -1.67 1.88
4 0 -3 0.42 1.98
3 0 -3 -1.31 2.37
-3 0 3 -2.34 2.06
3 0 -3 -6.2 1.48
-2 0 3 1.41 1.46
2 0 -3 2.01 1.6
2 0 -3 0.77 1.53
1 0 -3 -7.83 1.91
1 0 -3 -9.93 1.67
-1 0 3 -9.75 1.16
0 0 -3 0.17 1.29
0 0 -3 -0.69 0.84
0 0 -3 -0.54 1.21
-1 0 -3 2.32 1.51
-1 0 -3 5.46 1.8
-2 0 -3 1.19 1.33
2 0 3 0 1.54
-2 0 -3 -2.14 1.54
3 0 3 -4.38 2.12
-3 0 -3 -3.21 2.12
-3 0 -3 -0.97 1.84
-4 0 -3 -0.66 3.14
4 0 3 -1.55 3.27
-4 0 -3 -1.07 1.59
5 0 3 3.24 3.48
-5 0 -3 1.35 3.35
-5 0 -3 3.8 2.41
-6 0 -3 -1.04 2.14
-6 0 -3 -3.07 2.43
6 0 3 0.85 2.26
6 0 3 -0.6 2.73
7 0 3 1.44 2.92
7 0 3 -0.27 3.51
-7 0 -3 -2.7 3.42
8 0 3 -0.26 2.67
-8 0 -3 -2.54 3.25
8 0 3 1.68 4.32
9 0 3 -3.88 3.33
-9 0 -3 -3.28 3.79
-10 0 -3 8.98 5.81
10 0 3 -2.41 4.27
11 0 3 2.88 7.02
-11 0 -3 -1.46 4.55
-12 0 -3 10.73 7.93
12 0 3 -1.58 6.3
13 -1 -3 53.72 14.22
-13 -1 3 63.79 16.49
13 1 -3 90.48 18.14
-13 1 3 73.17 17.28
12 -1 -3 17.72 9
-12 -1 3 13.52 8.34
12 1 -3 13.42 9.56
-12 1 3 -2.24 5.65
11 -1 -3 430.53 32.29
-11 -1 3 423.37 32.5
11 -1 -3 442.05 28.65
11 1 -3 470.52 35.05
-11 1 3 378.29 32.6
-10 -1 3 351.71 27.54
10 -1 -3 300.36 22.6
10 -1 -3 334.54 26.15
-10 1 3 275.86 30.3
10 1 -3 283.73 30.39
9 -1 -3 148.51 17.1
9 -1 -3 153.54 19.25
-9 -1 3 173.48 21.14
-9 1 3 104.97 17.26
9 1 -3 113.34 17.89
8 -1 -3 61.91 11.28
-8 -1 3 91.08 14.78
8 -1 -3 69.16 11.03
8 1 -3 75.12 13.2
8 1 -3 58.79 8.13
-8 1 3 83.9 13.92
7 -1 -3 1374.69 62.86
-7 -1 3 1351.76 64.22
7 -1 -3 1367.91 61.4
-7 1 3 1277.37 63.67
7 1 -3 1336.82 56.89
7 1 -3 1327.62 63.97
6 -1 -3 805.16 41.13
6 -1 -3 800.78 40.91
-6 -1 3 865.11 43.29
-6 1 3 859.94 42.85
6 1 -3 852.42 42.56
-5 -1 3 704.49 36.71
5 -1 -3 700.37 35.28
5 -1 -3 729.44 36.29
-5 1 3 752.04 36.66
5 1 -3 758.58 32.45
4 -1 -3 1297.13 55.45
4 -1 -3 1278.13 57.13
-4 -1 3 1388.36 56.85
-4 1 3 1305.4 56.31
4 1 -3 1285.57 53.29
3 -1 -3 172.93 10.42
-3 -1 3 194.85 11.31
-3 1 3 173.89 11.46
3 1 -3 187.26 10.45
-2 -1 3 4297.12 159.85
2 -1 -3 4193.83 158.44
-2 1 3 3992.05 159.29
2 1 -3 4193.6 160.42
-2 1 3 4277.58 161.65
1 -1 -3 1072.67 44.54
-1 -1 3 1089.88 42.24
1 1 -3 1051.84 44.78
1 1 -3 1070.76 44.15
0 -1 -3 7.95 2.1
0 1 -3 3.58 2.04
0 1 -3 6.32 1.58
0 1 -3 8.25 2.55
0 1 3 17.07 2.46
-1 -1 -3 1603.84 61.57
-1 -1 -3 1649.88 64.22
-1 1 -3 1576.82 62.17
1 1 3 1476.23 63.44
-2 -1 -3 73.45 4.62
-2 1 -3 71.34 7.62
-2 1 -3 63.27 6.91
2 1 3 107.24 8.72
-3 -1 -3 13.83 1.99
-3 -1 -3 11.44 3.78
-3 1 -3 12.28 3.65
3 1 3 8.64 3.81
3 1 3 12.86 2
-3 1 -3 5.35 2.91
-4 -1 -3 1279.52 49.94
4 -1 3 1242.29 56.48
-4 -1 -3 1255.55 57.08
-4 1 -3 1294.04 55.56
4 1 3 1299.03 58.55
-4 1 -3 1275.09 57.2
-5 -1 -3 1380.63 62.99
5 -1 3 1374.2 62.42
-5 1 -3 1368.22 60.18
-5 1 -3 1351.34 62.84
5 1 3 1357.46 54.29
5 1 3 1376.44 63.46
-6 -1 -3 69.69 11.94
6 -1 3 60.05 9.63
6 -1 3 78.46 12.85
6 1 3 86.87 6.01
6 1 3 70.53 11.77
-6 1 -3 54.67 10.87
-6 1 -3 88.31 11.39
-7 -1 -3 98.61 16.04
7 -1 3 76.55 13.81
7 -1 3 80.69 11.69
-7 1 -3 81.63 11.88
-7 1 -3 58.1 11.91
7 1 3 83.3 14.27
8 -1 3 957.79 54.37
-8 -1 -3 910.85 53.83
8 -1 3 1032.59 49.41
8 1 3 945.74 52.26
-8 1 -3 968.61 53.22
9 -1 3 613 41.97
-9 -1 -3 599.98 42
9 -1 3 643.54 36.33
-9 1 -3 653.27 41.77
9 1 3 739.92 43.19
-10 -1 -3 7.42 7.26
10 -1 3 -1.99 5.54
-10 1 -3 11.61 7.73
10 1 3 0.47 5.58
-11 -1 -3 240.67 30.45
11 -1 3 209.94 27.17
-11 1 -3 223.57 28.58
11 1 3 220.57 27.6
12 -1 3 263.57 31.88
-12 -1 -3 276.24 33.05
-12 1 -3 188.19 28.17
12 1 3 257.05 30.97
12 -2 -3 459.89 34.14
-12 -2 3 423.89 35.68
12 -2 -3 395.42 30.56
-12 2 3 394.66 41.21
12 2 -3 506.55 39.05
11 -2 -3 62.93 13.82
-11 -2 3 43.34 13.5
11 -2 -3 46.11 11.11
11 2 -3 47.1 13.85
-11 2 3 37.86 12.16
10 -2 -3 27.23 8.95
-10 -2 3 20.88 9.18
10 -2 -3 9.55 6.8
10 2 -3 20.47 10.09
-10 2 3 27.95 10.87
9 -2 -3 824.68 43.12
-9 -2 3 717.38 45.16
9 -2 -3 740.33 42
-9 2 3 683.82 44.48
9 2 -3 711 44.73
-8 -2 3 877.99 49.23
8 -2 -3 912.64 45.99
8 -2 -3 857.39 46.18
-8 2 3 814.77 48.37
8 2 -3 890.59 48.89
7 -2 -3 158.4 16.74
-7 -2 3 168.24 18.82
7 -2 -3 153.08 17.98
-7 2 3 154.03 18.85
7 2 -3 173.38 19.26
6 -2 -3 1839.94 77.7
-6 -2 3 1717.21 78.67
6 -2 -3 1796.23 80.35
6 2 -3 1744.09 79.78
-6 2 3 1839.82 80.23
6 2 -3 1816.25 72.28
5 -2 -3 2963.56 118.85
5 -2 -3 2951.55 122.65
-5 -2 3 2907.31 119.9
-5 2 3 2919.29 121.07
5 2 -3 3013.59 114.98
5 2 -3 2860.33 120.86
-4 -2 3 1471.28 64.26
4 -2 -3 1542.91 63.44
4 2 -3 1539.95 61.51
4 2 -3 1454.69 65.45
-4 2 3 1518.73 65.8
3 -2 -3 471.76 21.6
-3 -2 3 444.8 22.89
3 -2 -3 435.5 25.45
3 2 -3 433.72 23.9
-3 2 3 453.4 24.31
3 2 -3 430.98 21.52
2 -2 -3 3968.53 150.2
2 -2 -3 4057.22 150.94
2 -2 -3 3982.71 157.6
-2 -2 3 4236.08 154.74
2 2 -3 4102.08 156.37
-2 2 3 3496.43 155.98
1 -2 -3 7035.97 261.84
1 -2 -3 7009.65 255.17
1 2 -3 6113.26 260.09
1 2 -3 7046.51 261.41
0 -2 -3 1110.52 42.18
0 -2 -3 996.41 44.65
0 2 3 1028.1 41.31
0 2 -3 1026.03 45.63
0 2 -3 1090.72 46.18
-1 -2 -3 73.06 5.92
1 2 3 74.45 5.71
-1 2 -3 68.94 8.4
-1 2 -3 74.25 8.78
-2 -2 -3 1941.51 80.41
-2 -2 -3 1941.99 74.49
-2 2 -3 1929.35 80.1
2 2 3 1883.8 77.26
-2 2 -3 1878.08 78.08
-3 -2 -3 4852.3 184.49
-3 -2 -3 4873.21 193.14
-3 -2 -3 4893.5 184.34
-3 2 -3 4934.92 193.14
3 2 3 4950.07 191.3
-3 2 -3 4881.91 190.97
-4 -2 -3 628.53 35.67
-4 2 -3 731.68 35.68
4 2 3 673.54 35.4
-4 2 -3 745.06 36.7
5 -2 3 52.6 9.64
-5 2 -3 67.33 10.62
5 2 3 44.46 9.17
-5 2 -3 60.85 10
-6 -2 -3 1106.16 59.16
6 -2 3 1233.97 59.45
6 -2 3 1310.29 59.83
6 2 3 1129.92 59.24
-6 2 -3 1293.06 60.28
-6 2 -3 1258.14 59.4
7 -2 3 256.67 24.95
7 -2 3 258.05 22.29
-7 -2 -3 290.24 23.67
-7 2 -3 277.47 23.14
7 2 3 301.51 23.77
-7 2 -3 264.33 21.47
-8 -2 -3 437.56 33.22
8 -2 3 535.47 35.27
8 -2 3 470.95 31.55
-8 2 -3 385.8 31.31
8 2 3 486.43 33.28
9 -2 3 246.86 29.58
9 -2 3 271.96 26.35
-9 -2 -3 243.18 29.99
9 2 3 250.01 28
-9 2 -3 217.29 26.65
-10 -2 -3 254.32 32.1
10 -2 3 246.31 25.56
10 -2 3 235.39 29.5
-10 2 -3 248.93 29.96
10 2 3 259.67 29.82
11 -2 3 397.34 34.86
-11 -2 -3 457.73 38.76
-11 2 -3 412.88 35.42
11 2 3 438.28 35.19
11 -3 -3 181.3 23.75
-11 -3 3 173.28 26.82
11 3 -3 190.53 28.06
-11 3 3 245.45 30.79
-10 -3 3 452.64 36.93
10 -3 -3 487.96 34.36
10 3 -3 489.05 37.64
-10 3 3 477.75 37.22
-9 -3 3 103.07 18.08
9 -3 -3 83.31 14.16
9 -3 -3 100.61 16.45
9 3 -3 112.45 18.65
-9 3 3 129.69 20.78
8 -3 -3 17.46 6.9
8 -3 -3 9.37 6.01
-8 -3 3 9.75 6.8
8 3 -3 7.45 6.01
-8 3 3 19.5 7.95
7 -3 -3 1386.44 70.35
7 -3 -3 1423.7 66.2
-7 -3 3 1441.44 69.16
7 3 -3 1499.13 70.45
-7 3 3 1441.61 70.39
6 -3 -3 1206.49 55.6
6 -3 -3 1232.85 61.05
-6 -3 3 1130.62 57.06
6 3 -3 1169.66 58.23
-6 3 3 1214.63 59
5 -3 -3 185.93 19.5
5 -3 -3 166.61 12.8
-5 -3 3 131.77 14.63
5 3 -3 139.89 15.38
5 3 -3 79.24 9.18
-5 3 3 104.86 14.03
4 -3 -3 115.54 9.63
-4 -3 3 121.09 13.62
4 -3 -3 150.89 17.5
4 3 -3 120.05 13.53
4 3 -3 121.08 9.87
-3 -3 3 1056.52 48.75
3 -3 -3 1054.79 44
3 -3 -3 985.16 51.4
3 3 -3 1095.47 47.44
3 3 -3 1086.99 49.79
2 -3 -3 1394.1 65.91
-2 -3 3 1473.48 63.51
2 3 -3 1447.62 64.31
2 3 -3 1524.67 63.29
1 -3 -3 238.58 17
1 3 -3 240.29 16.24
1 3 -3 239.02 16.27
0 -3 -3 463.17 24.9
0 3 -3 456.16 25.81
0 3 -3 446.01 24.94
0 3 3 463.9 20.64
-1 -3 -3 1754.1 69.98
-1 3 -3 1609.61 71.59
-1 3 -3 1670.56 73.96
1 3 3 1698.39 68.02
-2 -3 -3 1252.99 52.74
-2 3 -3 1307.17 57.41
-2 3 -3 1293.03 60.04
2 3 3 1275.22 54.14
-3 -3 -3 64 5.22
3 3 3 76.42 9.34
-3 3 -3 65.28 9.64
-4 -3 -3 3885.16 158.03
-4 3 -3 3787.43 158.51
-4 3 -3 3800.1 155.34
4 3 3 3881.31 154.11
-5 -3 -3 1556.72 73.35
5 -3 3 1607.76 71.97
5 -3 3 1445.38 72.83
-5 3 -3 1515.69 73.48
-5 3 -3 1588.2 71.8
5 3 3 1567.33 70.6
6 -3 3 -0.99 3.54
6 -3 3 4.96 5.14
-6 -3 -3 -0.4 3.8
6 3 3 6.84 5.04
-6 3 -3 4.96 4.93
-6 3 -3 0.52 4.77
7 -3 3 573.92 37.93
7 -3 3 596.18 37.2
-7 -3 -3 594.55 38.42
-7 3 -3 613.09 37.47
-7 3 -3 557.05 37.15
7 3 3 509.78 35.26
8 -3 3 891.5 50.26
-8 -3 -3 808.89 50.27
8 -3 3 821.14 49.89
8 3 3 845.95 49.74
-8 3 -3 814.62 49.48
-9 -3 -3 453.31 35.75
9 -3 3 420.84 33.9
9 -3 3 395.4 31.3
-9 3 -3 353.38 37.35
9 3 3 390.44 32.25
10 -3 3 3.3 6.42
10 -3 3 -0.54 7.19
-10 -3 -3 2.48 8.83
-10 3 -3 0.37 6.83
10 3 3 -2.71 5.19
10 -4 -3 36.22 12.44
-10 -4 3 34.81 12.48
-10 4 3 33.18 11.96
10 4 -3 52.3 15.48
9 -4 -3 25.75 10.5
-9 -4 3 19.55 10.17
9 4 -3 21.18 9.79
-9 4 3 35.97 11.45
8 -4 -3 119.62 19.44
-8 -4 3 127.18 20.26
-8 4 3 89.26 16.75
8 4 -3 119.32 18.98
7 -4 -3 6.17 6.06
-7 -4 3 4.63 5.6
7 4 -3 21.07 8.18
-7 4 3 20.67 8.04
6 -4 -3 180.18 22.99
-6 -4 3 199.63 22.08
6 4 -3 234.7 23.38
-6 4 3 218.93 24.31
5 -4 -3 235.32 25.85
-5 -4 3 250.36 20.66
5 4 -3 293.22 21.96
-5 4 3 260.37 22.12
4 -4 -3 91.38 15.75
-4 -4 3 94.27 13.3
4 4 -3 80.76 12.23
-3 -4 3 44.73 9.16
3 -4 -3 37.96 9.99
3 4 -3 42.12 9.07
3 4 -3 53.54 9.51
2 -4 -3 365.25 26.13
-2 -4 3 404.26 25.21
2 4 -3 386.4 25.01
2 4 -3 386.41 24.7
1 -4 -3 481.16 29.91
1 4 -3 514.15 29.1
1 4 -3 508.56 30.58
0 -4 -3 38.68 8.17
0 4 -3 44.81 9.73
0 4 -3 40.89 8.27
-1 -4 -3 9.59 4.35
-1 4 -3 -2.39 3.12
-1 4 -3 0.93 4.26
-2 -4 -3 99.71 14.56
-2 -4 -3 91.21 14
-2 4 -3 100.27 14.94
3 -4 3 388.55 27.79
-3 -4 -3 326.93 24.88
3 4 3 345.02 22.93
-3 4 -3 302.27 25.42
4 -4 3 181.41 22.12
-4 -4 -3 143.23 18.83
-4 4 -3 155.21 18.05
-4 4 -3 141.14 20.13
4 4 3 158.07 16.01
5 -4 3 61.69 14.07
-5 -4 -3 77.42 13.9
5 -4 3 80.15 13.52
-5 4 -3 70.64 12.58
5 4 3 58.64 10.61
-5 4 -3 87.97 15.58
6 -4 3 7.03 6.19
-6 -4 -3 -1.06 4.39
6 -4 3 1.82 4.59
-6 4 -3 1.1 6.57
-6 4 -3 12.67 6.07
6 4 3 3.07 4.72
7 -4 3 43.71 11.4
-7 -4 -3 51.82 12.91
7 -4 3 56.66 14.88
-7 4 -3 56.76 13.16
7 4 3 55.29 12.23
8 -4 3 17.93 8.96
8 -4 3 10.93 9.7
-8 -4 -3 30.18 10.76
-8 4 -3 4.22 7.03
8 4 3 17.21 8.29
9 -4 3 2.75 8.5
-9 -4 -3 -0.8 6.34
9 -4 3 -5.43 5.18
-9 4 -3 -1.21 6.76
9 4 3 -6.38 5.67
8 -5 -3 0.16 6.94
-8 -5 3 3.57 7.98
8 5 -3 -1.21 5.89
-8 5 3 10.04 7.67
-7 -5 3 13.62 8.08
7 -5 -3 8.8 6.71
7 5 -3 -1.65 5.15
-7 5 3 11.49 8.06
6 -5 -3 8.39 8.19
-6 -5 3 3.83 6.29
6 5 -3 2.57 5.83
-5 -5 3 0.02 4.87
5 -5 -3 4.78 7.45
5 5 -3 -1.45 4.7
4 -5 -3 6.28 6.57
-4 -5 3 6.94 6
4 5 -3 -0.08 4.76
-3 -5 3 -2.33 4.16
3 -5 -3 0.72 6.46
3 5 -3 -0.45 4.42
-2 -5 3 5.59 5.97
2 -5 -3 7.16 5.37
-2 -5 3 10.62 6.15
2 5 -3 11.66 6.06
2 5 -3 11.83 6.58
-1 -5 3 3.48 5.91
1 -5 -3 -5.89 4.2
1 5 -3 3.26 4.63
1 5 -3 0.26 4.77
0 -5 -3 -3.72 3.4
0 -5 3 1.55 4.99
0 5 -3 -4.38 3.8
0 5 -3 5.27 5.09
1 -5 3 103 16.92
-1 5 -3 127.51 19.08
2 -5 3 66.29 14.31
-2 -5 -3 59.55 13.11
-2 5 -3 37.16 10.65
3 -5 3 8.68 7.58
-3 -5 -3 7.82 6.25
-3 5 -3 1.52 5.7
4 -5 3 28.35 11.57
-4 -5 -3 32.23 10.29
-4 5 -3 32.61 11.15
5 -5 3 27.57 11.35
-5 -5 -3 25.12 10.16
-6 -5 -3 11.42 7.94
6 -5 3 28.64 11.94
-6 5 -3 10.08 6.73
7 -5 3 61.56 16.58
-7 -5 -3 66.16 15.91
-7 5 -3 72.66 15.18
4 -6 -3 118.1 21.77
-4 -6 3 102.8 18.24
-3 -6 3 5.03 6.72
3 -6 -3 3.85 6.5
-2 -6 3 149.87 21.28
2 -6 -3 132.07 20.19
-1 -6 3 183.55 24.16
0 -6 3 91.73 17.99
-1 -6 -3 62.01 14.72
1 -6 3 52.15 15.01
-2 -6 -3 68.22 15.88
2 -6 3 80.31 18.72
3 -6 3 124.25 22.69
-3 -6 -3 114.18 20.59
13 0 -4 2.65 6.88
-13 0 4 1 7.26
-12 0 4 237.79 29.02
12 0 -4 241.14 28.79
11 0 -4 403.3 31.95
-11 0 4 466.88 34.24
10 0 -4 419.72 26.67
-10 0 4 488.88 33.31
10 0 -4 389.99 30.51
-9 0 4 196.31 22.22
9 0 -4 145.6 19.03
9 0 -4 182.83 17.98
8 0 -4 1822.48 86.31
8 0 -4 1878.8 82.2
-8 0 4 2046.96 88.44
-7 0 4 1307.15 62.35
7 0 -4 1408.69 62.6
7 0 -4 1220.12 57.98
6 0 -4 498.79 26.58
6 0 -4 556.68 29.08
-6 0 4 445.11 27.96
5 0 -4 2121.4 87.39
5 0 -4 2141.44 88.42
-5 0 4 2135.44 89.2
-4 0 4 7887.45 298.52
4 0 -4 7706.43 297.96
3 0 -4 3681.08 154.56
-3 0 4 4202.3 154.12
3 0 -4 4104.13 154.59
2 0 -4 1158.14 47.1
-2 0 4 1130.8 45.74
2 0 -4 1167.13 47.86
0 0 -4 2046.78 83.17
0 0 -4 2125.5 81.22
0 0 -4 2161.58 83.16
-1 0 -4 1190.4 47.64
-1 0 -4 1136.27 46.99
-2 0 -4 922.77 38.98
-2 0 -4 933.93 40.55
3 0 4 2483.3 100.04
-3 0 -4 2459.79 96.95
-3 0 -4 2429.21 100.65
4 0 4 1430.6 61.77
-4 0 -4 1362.25 62.2
-4 0 -4 1334.59 56.6
5 0 4 200.2 16.65
-5 0 -4 224.45 17.71
-5 0 -4 190.27 12.7
-6 0 -4 693.18 32.7
-6 0 -4 652.8 38.1
7 0 4 1436.35 73.65
-7 0 -4 1517.09 65.49
-7 0 -4 1638.65 74.22
7 0 4 1483.8 65.59
8 0 4 1520.53 76.47
-8 0 -4 1564.5 76.11
-9 0 -4 87.38 16.02
9 0 4 90.08 16.56
10 0 4 27 10.19
-10 0 -4 39.33 11.93
11 0 4 966.78 58.57
-11 0 -4 1017.39 59.8
-13 -1 4 452.62 37.25
13 -1 -4 408.15 34.5
13 1 -4 443.5 37.1
-13 1 4 466.42 38.51
12 -1 -4 14.31 7.86
-12 -1 4 5.43 7.07
-12 1 4 15.02 8.76
12 1 -4 3.95 7.01
11 -1 -4 67.14 12.65
-11 -1 4 100.59 16.9
11 -1 -4 70.86 13.96
-11 1 4 64.02 15.76
11 1 -4 83.64 16.81
10 -1 -4 686.72 40.36
-10 -1 4 632.58 39.97
10 -1 -4 675.85 37.37
-10 1 4 542.49 39.93
10 1 -4 648.14 41.91
9 -1 -4 1145.49 54.39
9 -1 -4 1149.86 56.88
-9 -1 4 1077.62 56.88
9 1 -4 1025.03 57.49
-9 1 4 1054.26 58.15
-8 -1 4 74.48 13.51
8 -1 -4 64.84 11.58
8 -1 -4 107.35 13.68
-8 1 4 80.24 13.84
8 1 -4 73.56 9.7
8 1 -4 86.09 13.81
7 -1 -4 143.96 16.67
7 -1 -4 177.96 18.41
-7 -1 4 209.37 17.36
7 1 -4 218.02 13.99
7 1 -4 185.96 19.72
-7 1 4 233.92 22.53
6 -1 -4 1911.26 81.11
6 -1 -4 1772.4 81.24
-6 -1 4 1920.76 82.76
-6 1 4 1973.23 82.82
6 1 -4 1924.89 77.73
6 1 -4 1835.69 81.99
5 -1 -4 2327.51 101.79
-5 -1 4 2430.11 102.1
5 -1 -4 2579.93 100.43
5 1 -4 2541.2 102.45
-5 1 4 2434.93 101.36
-4 -1 4 322 18.26
4 -1 -4 287.82 18.31
4 -1 -4 293.93 16.09
4 1 -4 305.58 18.04
-4 1 4 286.21 17.32
-3 -1 4 4747.55 186.01
3 -1 -4 4930.13 188.5
3 -1 -4 4853.44 184.39
3 1 -4 4807.05 186.12
-3 1 4 4881.68 187.3
-2 -1 4 4068.98 155.73
2 -1 -4 4135.97 154.82
-2 1 4 4057.53 158.12
-2 1 4 4151.04 155.05
2 1 -4 4039.46 157.85
-1 -1 4 1756.62 66.22
1 -1 -4 1725.87 69.62
1 1 -4 1745.15 69.8
-1 1 4 1699.78 65.89
0 -1 -4 7.81 2.32
0 1 -4 0.2 1.24
0 1 -4 7.38 1.51
0 1 -4 0.5 1.39
0 1 4 7.03 1.7
-1 -1 -4 2649.36 112.77
-1 -1 -4 2949.83 111.11
-1 1 -4 2947.8 110.78
1 1 4 2952.5 112.46
-2 -1 -4 7558.2 282.12
-2 -1 -4 7479.27 277.99
2 1 4 7159.13 282.53
-2 1 -4 7168.41 281.41
-2 1 -4 7415.27 280.25
-3 -1 -4 2185.6 91.64
-3 -1 -4 2189.43 86.2
-3 1 -4 2120.11 90.29
-3 1 -4 2414.25 91.8
3 1 4 2253.77 93.65
-4 -1 -4 163.04 13.55
4 -1 4 121.68 13.74
-4 -1 -4 164.09 8.83
-4 1 -4 170.15 12.27
4 1 4 174.46 17.69
-4 1 -4 161.2 13.5
-5 -1 -4 2048.03 79.91
5 -1 4 2042.2 88.63
-5 -1 -4 2007.85 88.76
-5 1 -4 2078.83 86.14
-5 1 -4 1934.33 88.43
5 1 4 2137 90.53
-6 -1 -4 2243.13 98.29
6 -1 4 2216.98 97.52
-6 1 -4 2192.01 97.52
6 1 4 2326.45 98.52
6 1 4 2048.38 92.48
-6 1 -4 2253.43 93.65
7 -1 4 29.1 7.21
7 -1 4 46.24 10.96
-7 -1 -4 32.31 9.51
-7 1 -4 49.74 8.93
-7 1 -4 38.88 10.18
7 1 4 20.91 7.65
8 -1 4 295.59 31.42
8 -1 4 279.11 21.38
-8 -1 -4 245.12 28.62
8 1 4 307.83 24.86
-8 1 -4 265.58 27.62
9 -1 4 566.61 39.43
-9 -1 -4 508.79 37.59
9 -1 4 448.26 30.69
-9 1 -4 546.97 37.2
9 1 4 559.11 36.93
10 -1 4 51.28 13.78
-10 -1 -4 60.76 14.74
-10 1 -4 92.06 17.71
10 1 4 62.45 14.83
-11 -1 -4 16.44 9.22
11 -1 4 1.88 7.15
11 1 4 2.01 5.49
-11 1 -4 3.42 7.17
12 -2 -4 24.81 9.1
-12 -2 4 21.82 10.37
12 -2 -4 17.76 9.16
-12 2 4 24.91 11.22
12 2 -4 21.23 10.46
11 -2 -4 6.61 5.95
11 -2 -4 8.66 6.92
-11 -2 4 5.44 7.12
11 2 -4 3.68 7.79
-11 2 4 4.82 6.72
-10 -2 4 15.23 8.78
10 -2 -4 8.49 6.97
10 -2 -4 15.12 7.2
10 2 -4 1.87 5.36
-10 2 4 1.81 7.07
-9 -2 4 38 11.13
9 -2 -4 57.22 11.56
9 -2 -4 46.37 10.66
9 2 -4 46.15 11.28
-9 2 4 37.87 11.06
8 -2 -4 2.34 4.03
8 -2 -4 -0.3 3.87
-8 -2 4 4.97 5.59
-8 2 4 3.23 4.94
8 2 -4 -1.84 3.49
7 -2 -4 124.93 14.66
7 -2 -4 134.23 16.81
-7 -2 4 124.68 16.47
7 2 -4 145.62 17.94
-7 2 4 126.58 16.99
7 2 -4 158.94 10.83
-6 -2 4 8.5 4.08
6 -2 -4 0.68 3.07
6 -2 -4 18.2 6.66
6 2 -4 2.2 2.77
-6 2 4 15.71 6.01
6 2 -4 16.18 3.99
-5 -2 4 10.5 4.21
5 -2 -4 5.05 3.16
5 -2 -4 8.82 4.16
5 2 -4 5.44 3.67
5 2 -4 4.59 2.52
-5 2 4 11.11 4.68
4 -2 -4 926.93 44.14
-4 -2 4 885.02 40.31
4 -2 -4 958.18 38.73
4 2 -4 876.42 42.2
-4 2 4 845.43 41.79
4 2 -4 809.64 38.58
3 -2 -4 28.63 3.63
-3 -2 4 38.14 5.68
3 -2 -4 30.29 6.73
3 2 -4 21.12 5.31
-3 2 4 35.24 6.72
3 2 -4 25.14 4.74
2 -2 -4 182.38 13.76
-2 -2 4 195.24 11.74
2 2 -4 194.68 12.71
2 2 -4 208.14 14.03
1 -2 -4 12.86 3.78
1 2 -4 21.43 4.78
1 2 -4 25.4 5.01
0 -2 -4 21.07 4.36
0 -2 -4 29.58 3.06
0 2 4 31.67 2.99
0 2 -4 25.79 5.4
0 2 -4 29.81 5.62
-1 -2 -4 4.78 2.03
-1 2 -4 5.6 2.37
1 2 4 4.32 2
-1 2 -4 -0.51 2
-1 2 -4 5.63 3
-2 -2 -4 586.8 25.24
-2 -2 -4 568.02 30.04
-2 2 -4 570.98 27.85
2 2 4 594.48 27.86
-3 -2 -4 238.95 11.57
-3 -2 -4 258.86 17.83
-3 2 -4 258.23 16.15
-3 2 -4 266.37 17.58
3 2 4 256.41 16.78
-4 -2 -4 109.79 13.81
4 2 4 68.95 10.9
-4 2 -4 113.91 12.81
-4 2 -4 101.44 12.45
5 -2 4 310.36 21.95
-5 -2 -4 307.18 22.13
5 2 4 282.41 21.49
-5 2 -4 312.04 21.53
-5 2 -4 300.8 20.91
6 -2 4 90.45 13.95
-6 -2 -4 82.21 13.31
-6 2 -4 61.83 11.8
6 2 4 68.23 13.08
-6 2 -4 52.22 10.05
7 -2 4 373.84 27.95
7 -2 4 370.77 26.58
-7 -2 -4 350.07 27.71
-7 2 -4 400.69 28.72
-7 2 -4 382.14 27.05
7 2 4 399.52 28.87
8 -2 4 87.87 14.56
8 -2 4 74.21 14.99
-8 -2 -4 78.51 15.86
8 2 4 90.76 16.07
-8 2 -4 60.42 12.62
-8 2 -4 67.97 14.3
9 -2 4 2.3 4.53
9 -2 4 5.78 7.43
-9 -2 -4 -2.68 4.85
9 2 4 0.25 5.35
-9 2 -4 4.72 6.28
10 -2 4 66.79 17.25
-10 -2 -4 89.57 19.02
10 -2 4 51.33 11.81
-10 2 -4 37.67 12.38
10 2 4 54.39 13.68
-11 -2 -4 4.94 8.41
11 -2 4 -8.41 7.2
-11 2 -4 1.05 6.96
11 2 4 2.8 6.6
-11 -3 4 9.67 8.7
11 -3 -4 1.6 6.47
-11 3 4 10.74 9.44
11 3 -4 0.1 6.39
10 -3 -4 62.82 13.73
-10 -3 4 43.29 13.2
-10 3 4 59.86 15.82
10 3 -4 45.16 13.33
9 -3 -4 74.15 14.82
-9 -3 4 122.27 19.34
-9 3 4 82 16.23
9 3 -4 103.58 18.06
8 -3 -4 7.67 6.04
-8 -3 4 12.21 6.37
8 3 -4 16.23 7.9
-8 3 4 10.23 6.67
-7 -3 4 49.2 10.79
7 -3 -4 42.81 10.57
7 3 -4 36.04 10.01
-7 3 4 41.82 9.97
6 -3 -4 104.17 12.25
6 -3 -4 116.89 16.73
-6 -3 4 95.64 13.79
-6 3 4 109.47 15.13
6 3 -4 90.88 13.35
5 -3 -4 162.3 18.87
-5 -3 4 174.67 14.76
5 -3 -4 163.96 12.28
5 3 -4 156.44 17.46
5 3 -4 183.25 12.87
-5 3 4 154.14 17.39
4 -3 -4 17.43 4.18
-4 -3 4 29.28 6.43
4 -3 -4 36.05 8.86
4 3 -4 27.92 5.91
-4 3 4 15.96 5.94
4 3 -4 19.52 6.24
3 -3 -4 4.22 3.8
-3 -3 4 3.87 2.9
3 3 -4 2.71 3.29
3 3 -4 7.06 3.79
2 -3 -4 603.21 32.61
-2 -3 4 593.04 29.78
2 3 -4 583.89 31.42
2 3 -4 580.26 30.27
1 -3 -4 104.28 5.81
1 -3 -4 145.73 14.17
1 3 -4 92.39 11.75
1 3 -4 104.14 12.04
0 -3 -4 6.72 3.2
0 3 -4 7.36 3.68
0 3 4 6.52 2
0 3 -4 6.72 3.74
-1 -3 -4 449.28 22.67
1 3 4 441.06 20.78
-1 3 -4 462.46 26.48
-1 3 -4 421.93 24.93
-2 -3 -4 289.6 14.68
-2 3 -4 300.27 18.21
2 3 4 213.73 14.36
-2 3 -4 268.87 19.42
-3 -3 -4 32.82 6.39
-3 3 -4 36.9 7.47
3 3 4 25.39 5.6
-4 -3 -4 5.35 4.31
-4 3 -4 -1.04 3.49
-4 3 -4 4.1 3.43
4 3 4 7.22 4.03
-5 -3 -4 210.56 22.77
5 -3 4 230.48 19.38
-5 3 -4 258.52 24.65
-5 3 -4 228.27 18.71
5 3 4 228.96 18.42
-6 -3 -4 68.18 12.89
6 -3 4 57.29 11.75
6 -3 4 59.17 12.17
-6 3 -4 44.38 10.51
6 3 4 72.06 12.63
-6 3 -4 43.6 10.98
-7 -3 -4 34.7 10.54
7 -3 4 36.59 10.82
7 -3 4 38.34 10.27
-7 3 -4 52.4 12.4
-7 3 -4 45.74 11.7
7 3 4 38.25 10.28
-8 -3 -4 58.13 13.89
8 -3 4 37.89 11.13
8 -3 4 15.73 8.36
8 3 4 17.22 7.66
-8 3 -4 42.38 12.02
-9 -3 -4 62.55 15.86
9 -3 4 43.64 12.4
9 -3 4 16.38 9.41
9 3 4 32.07 11.25
-9 3 -4 36.5 11.78
10 -3 4 73.9 16.37
10 -3 4 29.6 12.48
-10 -3 -4 64.77 17.35
10 3 4 51.21 14.5
-10 3 -4 77.49 17.5
10 -4 -4 17.31 9.56
-10 -4 4 18.95 11
-10 4 4 7.1 8.11
10 4 -4 6.37 7.55
9 -4 -4 25.51 10.27
-9 -4 4 37.58 11.46
9 4 -4 32.8 11.06
-9 4 4 15.11 7.73
-8 -4 4 327.28 27.27
8 -4 -4 296.28 31.7
-8 4 4 344 28.52
8 4 -4 357.1 28.53
-7 -4 4 297.6 24.31
7 -4 -4 268.69 29.48
7 4 -4 286.24 24.04
-7 4 4 269.55 28.45
-6 -4 4 23.46 7.97
6 -4 -4 34.14 10.4
-6 4 4 19.81 7.36
6 4 -4 21.87 7.94
5 -4 -4 161.43 21.15
-5 -4 4 173.84 18.95
5 4 -4 177.74 19.87
-5 4 4 141.04 18.8
4 -4 -4 782.43 46.92
-4 -4 4 910.05 44.87
4 4 -4 910.31 46.02
4 4 -4 812.73 41.76
3 -4 -4 284.27 23.12
-3 -4 4 324.07 21.59
3 4 -4 290.64 21.49
3 4 -4 284.37 20.2
-2 -4 4 -0.52 2.95
2 -4 -4 -1.88 3.75
2 4 -4 1.28 3.95
2 4 -4 -0.4 3.19
1 -4 -4 324.24 22.64
1 4 -4 321.53 23.01
1 4 -4 358.91 23.17
0 -4 -4 553.85 30.85
0 4 -4 586.49 34.09
0 4 -4 558.45 32
-1 -4 -4 212.3 14.67
-1 4 -4 167.08 19.57
-2 -4 -4 34.28 8.77
-2 4 -4 46.17 10.78
-3 -4 -4 369.7 27.11
-3 4 -4 421.83 29.34
4 -4 4 448.76 32.23
-4 -4 -4 434.89 30.26
-4 4 -4 415.7 27.94
-4 4 -4 478.71 32.76
-5 -4 -4 59.4 12.71
5 -4 4 45.28 11.73
-5 4 -4 86.34 15.88
-5 4 -4 69.67 12.85
6 -4 4 144.77 19.31
6 -4 4 87.94 16.62
-6 -4 -4 113.45 18.08
-6 4 -4 105.17 16.55
-6 4 -4 94.28 17.52
7 -4 4 628.38 44.25
-7 -4 -4 580.47 41.65
7 -4 4 729.08 43.03
-7 4 -4 616.01 40.5
-7 4 -4 675.59 44.79
8 -4 4 227.18 29.44
8 -4 4 215.26 26.93
-8 -4 -4 249.1 30.44
-8 4 -4 238.07 28.39
-8 -5 4 6.82 7.24
8 -5 -4 11.75 9.02
8 5 -4 8.01 8.1
-8 5 4 13.38 8.72
-7 -5 4 83.56 16.38
7 -5 -4 88.7 18.03
7 5 -4 84.46 15.36
-6 -5 4 246.06 26.84
6 -5 -4 217.56 28.25
6 5 -4 223.82 25.43
-5 -5 4 280.51 23.74
5 -5 -4 273.2 30.33
5 5 -4 255.59 26.21
4 -5 -4 26.06 9.48
-4 -5 4 15.87 7.62
4 5 -4 19.64 7.55
3 -5 -4 285.56 28.87
-3 -5 4 296.48 23.48
3 5 -4 305.56 23.98
-2 -5 4 449.35 30.2
2 -5 -4 485.96 32.16
2 5 -4 472.4 30.66
2 5 -4 446.56 31.29
1 -5 -4 339.19 24.91
1 5 -4 331.73 26.8
1 5 -4 374.45 25.93
0 -5 -4 1.29 4.05
0 5 -4 10.89 6.67
0 5 -4 -0.25 3.41
-1 -5 -4 578.36 38.71
1 -5 4 581.46 39.16
-1 5 -4 659.13 40.91
-2 -5 -4 870.14 51.02
2 -5 4 901.93 53.16
-2 5 -4 953.4 54.19
3 -5 4 212.8 26.39
-3 -5 -4 187.7 24.08
-3 5 -4 256.33 28.83
-4 -5 -4 69.33 14.88
4 -5 4 65.6 15.96
-4 5 -4 71.08 16.7
-5 -5 -4 294.17 31.71
5 -5 4 305.07 34.34
-5 5 -4 344.79 35.71
6 -5 4 437.83 43.61
-6 -5 -4 476.32 35.84
-6 5 -4 398.02 31.87
-4 -6 4 166.7 23.09
4 -6 -4 152.42 23.48
-3 -6 4 58.03 13.92
3 -6 -4 32.45 11.72
-2 -6 4 3.7 6.35
2 -6 -4 0.65 6.82
-1 -6 4 45.47 12.43
0 -6 4 57.95 15.72
0 6 -4 38 12.87
1 -6 4 48.14 14.09
-1 -6 -4 66.9 15.26
-1 6 -4 55.5 14.72
-2 -6 -4 15.62 9.37
2 -6 4 39.43 13.42
-2 6 -4 46.34 13.98
-13 0 5 2.49 7.6
13 0 -5 -2.82 5.72
12 0 -5 7.05 6.68
-12 0 5 0.72 5.47
11 0 -5 0.59 5.3
-11 0 5 2.17 5.66
10 0 -5 7.45 5.22
10 0 -5 1.19 4.66
-10 0 5 0.03 4.41
9 0 -5 0.76 4.07
9 0 -5 -0.44 3.3
-9 0 5 -3.67 3.08
-8 0 5 -2.13 3.34
8 0 -5 1.05 3.68
8 0 -5 -3.13 2.77
7 0 -5 -1.82 2.54
7 0 -5 -0.01 2.89
-7 0 5 3.49 4.14
6 0 -5 -1.1 2.11
-6 0 5 -0.42 2.92
6 0 -5 -1.89 2.17
-5 0 5 5.55 3.47
5 0 -5 2.68 2.36
5 0 -5 1.29 2.6
4 0 -5 -0.58 1.85
4 0 -5 2.7 2.24
-4 0 5 -1.3 1.63
3 0 -5 -1.09 2
-3 0 5 -4.21 1.21
3 0 -5 -0.59 2.16
-2 0 5 -0.52 1.06
2 0 -5 0.92 1.45
2 0 -5 -0.93 1.33
1 0 -5 -5.59 0.91
1 0 -5 -3.7 1.54
0 0 -5 2.78 1.31
0 0 -5 -0.07 1.53
-1 0 -5 -1.04 1.61
-1 0 -5 3.4 2.01
-2 0 -5 -1.38 1.49
-2 0 -5 -1.58 1.75
3 0 5 -0.66 2.15
-3 0 -5 -1.32 2.16
-3 0 -5 -1.34 1.53
-4 0 -5 2.8 2.2
-4 0 -5 1.25 3.32
4 0 5 -0.46 2.35
-5 0 -5 2.75 2.43
-5 0 -5 0.68 3.42
5 0 5 -2.62 2.06
6 0 5 2.02 3.9
-6 0 -5 -1.16 3.23
-6 0 -5 1.97 2.57
7 0 5 -1.26 5.13
7 0 5 0.51 3.11
-7 0 -5 -1.98 3.28
-7 0 -5 -1.32 3.13
-8 0 -5 1.26 4.14
8 0 5 -1.24 4.59
-9 0 -5 -1.61 4.11
9 0 5 -1.47 4.6
-10 0 -5 -5.69 4.45
10 0 5 2.77 5.47
-11 0 -5 -4.89 6.18
11 0 5 -3.77 5.21
13 -1 -5 100.5 18.78
-13 -1 5 134.93 22.54
13 1 -5 101.99 20.52
-13 1 5 130.36 23.54
-12 -1 5 44.01 13.36
12 -1 -5 53.68 13.07
12 1 -5 24.62 10.55
-12 1 5 32.49 12.28
11 -1 -5 41.53 11.37
11 -1 -5 32.23 9.09
-11 -1 5 28.12 9.93
11 1 -5 30.3 11.07
-11 1 5 30.8 11.94
10 -1 -5 -1.03 4.01
-10 -1 5 0.78 4.49
10 -1 -5 -1.37 5.02
10 1 -5 -2.28 5.01
-10 1 5 1.91 4.83
9 -1 -5 317 22.76
9 -1 -5 302.22 23.39
-9 -1 5 264.44 22.22
-9 1 5 271.38 27.9
9 1 -5 247.64 18.3
9 1 -5 278.74 23.94
-8 -1 5 301.33 22.34
8 -1 -5 288.7 21.35
8 -1 -5 236.44 20.25
8 1 -5 318.19 23.44
-8 1 5 278.14 22.42
8 1 -5 260.72 18.01
7 -1 -5 11.59 5.24
-7 -1 5 16.99 6.31
7 -1 -5 13.16 5.46
-7 1 5 22.62 6.73
7 1 -5 16.77 4.82
7 1 -5 18.94 6.51
6 -1 -5 301.54 19.47
-6 -1 5 317.91 20.92
6 -1 -5 301.91 20.81
-6 1 5 342.26 21.39
6 1 -5 296.85 18.24
6 1 -5 328.14 21.39
5 -1 -5 1515.21 63.57
5 -1 -5 1506.28 66.72
-5 -1 5 1509.11 65.56
5 1 -5 1506.1 66.04
-5 1 5 1517.92 65.57
5 1 -5 1496.28 63.35
-4 -1 5 1193.47 52.41
4 -1 -5 1194.27 50.24
4 -1 -5 1288.19 54.62
4 1 -5 1218.54 51.71
4 1 -5 1204.32 53.43
-4 1 5 1190.1 52.31
3 -1 -5 6.71 2.03
3 -1 -5 2.08 1.91
-3 -1 5 7.96 2.76
3 1 -5 7.8 2.9
-3 1 5 0.42 1.95
3 1 -5 6.01 2.76
-2 -1 5 2816.11 112.81
2 -1 -5 2998.46 116.98
2 -1 -5 3052.11 112.66
-2 1 5 3167.26 116.27
2 1 -5 2630.28 115.64
2 1 -5 3037.77 117.3
-1 -1 5 2305.28 88.97
1 -1 -5 2271.64 93.67
-1 1 5 2639.28 93.35
1 1 -5 2210.16 93.89
0 -1 -5 1218.33 51.09
0 1 -5 1252.22 47.94
-1 -1 -5 -1.34 1.13
-1 -1 -5 0.67 1.54
1 1 5 0.66 1.55
-1 1 -5 -0.2 2.06
-1 1 -5 0.19 1.24
-2 -1 -5 3681.2 141.28
-2 -1 -5 3687.29 144.72
-2 1 -5 3581.27 144.46
-2 1 -5 3716.82 142.82
-3 -1 -5 1226.97 53.59
-3 -1 -5 1201.21 48.69
-3 1 -5 1202.28 52.4
-3 1 -5 1215.25 52.79
3 1 5 1123.85 54.24
-4 -1 -5 362.46 23.4
-4 -1 -5 407.33 18.77
-4 1 -5 392.64 22.14
4 1 5 389.91 25.35
-4 1 -5 399.14 23.99
-5 -1 -5 1159.86 46.44
-5 -1 -5 1192.54 55.37
-5 1 -5 1115.42 51.58
5 1 5 1140.26 56.36
-5 1 -5 1010.74 53.57
-6 -1 -5 452.47 29.59
6 -1 5 447.73 29.21
-6 1 -5 397.21 28.05
6 1 5 415.24 28.88
-6 1 -5 423.99 25.57
-7 -1 -5 841.67 47.79
7 -1 5 759.24 40.87
7 -1 5 749.55 45.16
7 1 5 822.79 45.72
-7 1 -5 852.8 46
-7 1 -5 733.2 40.55
8 -1 5 152.07 18.31
-8 -1 -5 179.52 23.97
8 -1 5 156.8 22.42
8 1 5 157.32 21.19
-8 1 -5 174.96 21.95
-8 1 -5 153.33 17.82
9 -1 5 65.06 15.63
-9 -1 -5 78.66 16.69
-9 1 -5 117 18.77
9 1 5 80.86 15.92
-10 -1 -5 159.43 24.17
10 -1 5 165.46 25.52
-10 1 -5 159 23.26
10 1 5 129.53 21.48
-11 -1 -5 40.66 13.75
11 -1 5 52.72 14.93
-11 1 -5 82.82 17.93
11 1 5 56.94 15.32
-12 -2 5 63.48 15.9
12 -2 -5 61.85 14.94
12 -2 -5 78.5 14.97
12 2 -5 70.4 17.36
-12 2 5 88.76 20.66
11 -2 -5 661.1 40.53
11 -2 -5 638.89 39.43
-11 -2 5 591.27 41.45
-11 2 5 678.65 45.73
11 2 -5 574.18 43.15
-10 -2 5 644.64 41.97
10 -2 -5 639.24 40
10 -2 -5 710.66 40.91
10 2 -5 687.87 44.88
-10 2 5 679.82 44.71
9 -2 -5 479.54 30.99
9 -2 -5 485.59 32.66
-9 -2 5 471.88 33.35
-9 2 5 556.29 36.16
9 2 -5 466.89 34.03
8 -2 -5 660.59 38.19
-8 -2 5 663.73 39.03
8 -2 -5 621.87 35.51
-8 2 5 621.09 38.36
8 2 -5 610.22 38.49
-7 -2 5 897.13 47.5
7 -2 -5 848.51 43.91
7 -2 -5 899.23 47.58
-7 2 5 950.14 47.93
7 2 -5 929.51 48.24
7 2 -5 922.08 41.62
-6 -2 5 2928.84 122.76
6 -2 -5 2947.3 119.82
6 2 -5 3030.04 118.66
-6 2 5 2963.78 124.22
5 -2 -5 186.03 12.06
-5 -2 5 172.17 13.49
-5 2 5 179.71 14.7
5 2 -5 173.81 12.4
4 -2 -5 201.95 15.67
-4 -2 5 193.09 12.9
4 -2 -5 179.26 10.38
-4 2 5 179.95 14.13
4 2 -5 195.37 13.02
4 2 -5 199.49 14.96
-3 -2 5 6157.93 237.91
3 -2 -5 6230.33 233.74
3 -2 -5 6215.96 242.93
3 2 -5 6196.38 242.02
-3 2 5 6151.99 241.61
3 2 -5 6344.31 239.92
-2 -2 5 342.86 17.21
2 -2 -5 372.03 20.8
2 2 -5 351.97 20.72
2 2 -5 330.21 19.22
1 -2 -5 11.99 3.71
1 2 -5 12.54 4.12
1 2 -5 8.47 3.21
0 -2 -5 1447.26 60.05
0 2 5 1405.75 55.92
0 2 -5 1471.38 62.47
0 2 -5 1477.6 62.66
-1 -2 -5 2045.87 87.47
-1 -2 -5 2129.7 84.03
-1 2 -5 2103.22 84.09
-1 2 -5 2099.66 87.87
1 2 5 2209.95 83.62
-1 2 -5 2033.57 87.49
-2 -2 -5 835.63 40.82
-2 -2 -5 819.19 35.59
-2 2 -5 873.33 40.9
-2 2 -5 853.66 37.99
-3 -2 -5 219.35 11.23
-3 -2 -5 212.45 16.57
-3 2 -5 231.94 16.45
3 2 5 199.1 15.26
-3 2 -5 244.69 15.27
-4 -2 -5 1359.42 53.16
-4 -2 -5 1444.89 63.97
-4 2 -5 1336.72 61.96
-4 2 -5 1461.92 61.44
4 2 5 1205.35 61.25
-5 -2 -5 1374.54 64.91
5 -2 5 1346.54 64.75
5 2 5 1304.59 63.86
-5 2 -5 1390.34 63.86
-5 2 -5 1361.96 62.82
-6 -2 -5 774.98 44.24
6 -2 5 812.06 44.56
-6 2 -5 745.31 42.05
6 2 5 812.66 44.24
-6 2 -5 769.24 42.99
7 -2 5 241.42 24.22
7 -2 5 286.77 28.79
-7 -2 -5 292.95 29.86
-7 2 -5 274.83 23.35
-7 2 -5 246.93 24.49
7 2 5 278.22 23.74
8 -2 5 924.68 55.22
-8 -2 -5 983.29 56.94
8 -2 5 1011.17 53.51
-8 2 -5 996.98 52.85
8 2 5 1037.28 55.78
-8 2 -5 882.43 53.64
-9 -2 -5 555.71 41.62
9 -2 5 483.51 39.19
9 -2 5 582.52 37.66
9 2 5 556 38.36
-9 2 -5 504.3 37.61
10 -2 5 3.72 9
-10 -2 -5 -1.44 7.28
10 -2 5 -3.93 5.39
-10 2 -5 5.01 6.85
10 2 5 -1.23 5.43
-11 -3 5 21.54 11.76
11 -3 -5 22.48 9.4
-11 3 5 13.73 10.23
11 3 -5 8.17 8.78
-10 -3 5 174.52 24.54
10 -3 -5 109.65 18.14
10 3 -5 150.45 23.68
-10 3 5 173.1 24.67
9 -3 -5 403.75 30.41
-9 -3 5 388.8 31.33
-9 3 5 404.21 32.03
9 3 -5 453.69 33.79
8 -3 -5 281.92 28.26
-8 -3 5 233.31 25.12
-8 3 5 269.55 27.36
8 3 -5 243.37 25.94
7 -3 -5 89.86 14.85
-7 -3 5 80.97 13.6
7 3 -5 64.57 12.43
-7 3 5 76.49 13.82
6 -3 -5 275.84 26.97
-6 -3 5 316.66 21.4
-6 3 5 306.95 22.47
6 3 -5 241.37 20.88
6 3 -5 271.63 19.29
5 -3 -5 953.01 51.73
-5 -3 5 990.19 47.59
-5 3 5 1004.32 50.37
5 3 -5 1036.8 46.03
5 3 -5 989.83 50.17
4 -3 -5 1400.47 68.16
-4 -3 5 1479.62 63.93
4 3 -5 1423.61 66.28
-4 3 5 1428.49 67.09
4 3 -5 1514.31 63.71
-3 -3 5 134.94 11.3
3 -3 -5 156.35 17.16
3 3 -5 148.76 14.78
3 3 -5 139.81 15.44
2 -3 -5 2041.68 85.57
-2 -3 5 2042.3 82.14
2 3 -5 1919.15 84
2 3 -5 1928.75 85.41
1 -3 -5 2398.42 97.79
1 3 -5 2352.63 98.3
1 3 -5 2299.63 98.72
0 -3 -5 490.2 24.97
0 3 5 456.84 19.45
0 3 -5 462.21 27.08
0 3 -5 474.91 27.15
-1 -3 -5 0.94 1.95
1 3 5 3.77 2.11
-1 3 -5 2.98 3.31
-1 3 -5 -0.06 2.66
-2 -3 -5 1676.87 77.37
-2 -3 -5 1775.73 70.82
-2 3 -5 1765.45 74.37
-3 -3 -5 1211.05 59.66
-3 3 -5 1200.16 59.57
-3 3 -5 1257.49 56.58
3 3 5 1308.24 55.33
-4 -3 -5 72.45 12.08
-4 3 -5 65.74 12.28
-4 3 -5 72.58 10.89
4 3 5 75.95 10.84
-5 -3 -5 43.71 10.07
-5 3 -5 70.77 13.08
-5 3 -5 38.57 9.02
5 3 5 40.13 8.72
-6 -3 -5 1038.82 54.93
6 -3 5 971.36 53.25
-6 3 -5 1072.31 52.96
6 3 5 940.15 51.72
-6 3 -5 958.28 53.51
-7 -3 -5 833.07 50.85
7 -3 5 879.07 50.72
7 -3 5 922.48 51.59
-7 3 -5 994.68 51.26
-7 3 -5 796.8 49.44
7 3 5 840.91 49.36
8 -3 5 9.24 7.19
8 -3 5 3.06 5.73
-8 -3 -5 -2.77 4
8 3 5 0.54 5.61
-8 3 -5 -2.22 5.17
-8 3 -5 8.16 6.76
9 -3 5 395.54 33.94
-9 -3 -5 386.17 40.24
9 -3 5 379.03 37.79
-9 3 -5 371 37.81
9 3 5 426.99 33.13
10 -3 5 385.89 37.03
10 -3 5 373.26 41.41
10 3 5 337.6 35.99
10 -4 -5 127.9 21.43
-10 -4 5 117.47 22.21
-10 4 5 180.02 26.41
10 4 -5 156.22 24.46
-9 -4 5 23.32 10.72
9 -4 -5 39.7 12.93
-9 4 5 23.23 10.23
9 4 -5 41.26 12.26
8 -4 -5 23.32 9.47
-8 -4 5 20.89 8.82
-8 4 5 42.1 11.93
8 4 -5 30.85 10.68
-7 -4 5 291.85 23.36
7 -4 -5 222.05 27.45
7 4 -5 262.48 27.46
-7 4 5 253.32 27.01
-6 -4 5 107.35 15.32
6 -4 -5 113.79 18.3
6 4 -5 79.08 13.95
-6 4 5 103.23 16.89
-5 -4 5 206.45 17.69
5 -4 -5 236.74 26.46
5 4 -5 179.42 20.5
-4 -4 5 118.15 14.54
4 -4 -5 114.35 17.14
4 4 -5 116.47 13.76
4 4 -5 104.67 15.33
3 -4 -5 292.2 23.79
-3 -4 5 311.96 21.57
3 4 -5 381.02 24.99
3 4 -5 324.3 22.14
-2 -4 5 62.98 10.5
2 -4 -5 70.24 11.76
2 4 -5 76.06 12.05
2 4 -5 68.81 11.57
1 -4 -5 32.63 7.58
1 4 -5 24.2 7.35
1 4 -5 29.06 7.64
0 -4 -5 11.65 4.47
0 4 -5 17.79 6.54
0 4 -5 3.71 4.2
-1 -4 -5 161.66 12.88
-1 4 -5 200.33 21.12
-2 -4 -5 137.27 17.5
-2 4 -5 185.61 21.21
-3 -4 -5 4.67 4.69
-3 4 -5 12.85 6.7
-4 -4 -5 67.53 13.16
-4 4 -5 94.8 14.16
-4 4 -5 65.94 13.15
-5 -4 -5 198.05 23.6
5 -4 5 203.9 24.56
-5 4 -5 217.38 22.33
-5 4 -5 183.03 23.46
6 -4 5 284.43 31.2
-6 -4 -5 236.43 27.7
6 -4 5 270.53 27.63
-6 4 -5 254.22 26.14
-6 4 -5 275.35 29.96
7 -4 5 32.09 10.29
7 -4 5 10.11 8.06
-7 -4 -5 31.87 11.55
-7 4 -5 26.01 9.75
-7 4 -5 18 9.76
-8 -4 -5 203.64 27.39
8 -4 5 150.1 23.83
8 -4 5 127.7 21.61
-8 4 -5 167.54 24.19
-8 -5 5 16.57 9.04
8 -5 -5 21.1 11.13
-8 5 5 23.89 10.68
8 5 -5 22.29 9.99
-7 -5 5 -1.42 5.98
7 -5 -5 0.67 6.09
7 5 -5 -0.83 5.87
-6 -5 5 1.48 5.72
6 -5 -5 -5.88 5.89
6 5 -5 -2.31 4.61
-5 -5 5 3.96 5.04
5 -5 -5 -5.19 4.91
5 5 -5 4.86 6.29
-4 -5 5 2.61 5.07
4 -5 -5 1.87 5.73
4 5 -5 -2.12 4.76
3 -5 -5 3.61 5.59
-3 -5 5 2.33 4.49
3 5 -5 -3.3 4.16
2 -5 -5 124.1 17.2
-2 -5 5 108.56 15.14
2 5 -5 113.96 16.31
2 5 -5 92.63 15.54
1 -5 -5 114.65 15.25
1 5 -5 82.46 14.53
1 5 -5 104.66 16.6
0 5 -5 17.53 7.31
0 5 -5 20.54 8.62
-1 -5 -5 23.92 9.22
-1 5 -5 14.41 7.9
-2 -5 -5 37.95 10.51
-2 5 -5 27.42 10.14
3 -5 5 9.79 7.8
-3 -5 -5 10.11 7.15
-3 5 -5 7.1 7
-4 -5 -5 47.57 12.39
4 -5 5 62.97 15.39
-4 5 -5 88.36 17.87
5 -5 5 8 8.2
-5 -5 -5 10.56 7.18
-5 5 -5 4.32 7.69
6 -5 5 -4.1 6.82
-6 -5 -5 14.29 8.94
6 -5 5 -2.64 6.19
-6 5 -5 63.71 17.82
-6 5 -5 1.84 5.96
3 -6 -5 45.45 12.54
-1 -6 5 5.44 9.03
0 -6 5 96.85 19.52
0 6 -5 122.78 21.56
-1 -6 -5 39.23 12.72
1 -6 5 37.44 13.38
-1 6 -5 47.86 14.64
13 0 -6 433.01 36.02
-13 0 6 469.29 36.87
-12 0 6 142.95 21.52
12 0 -6 146.55 22.69
11 0 -6 151.35 21.7
-11 0 6 141.39 20.54
10 0 -6 934.89 47.13
10 0 -6 818.21 49.59
-10 0 6 879.46 49.83
9 0 -6 730.24 42.08
9 0 -6 700.35 38.96
-9 0 6 694.58 41.19
8 0 -6 -3.33 2.6
8 0 -6 4 3.69
-8 0 6 0.91 4.26
-7 0 6 183.16 15.9
7 0 -6 212.58 16.46
7 0 -6 164.39 16.88
-6 0 6 3786.31 150.48
6 0 -6 3806.79 150.84
6 0 -6 3651.44 150.08
5 0 -6 1592.84 68.12
5 0 -6 1606.41 68.95
-5 0 6 1607.01 67.81
4 0 -6 55.98 7.94
4 0 -6 53.36 7.25
-4 0 6 74.21 7.95
3 0 -6 7792.49 289.75
3 0 -6 7359.92 290.58
-3 0 6 7602 287.31
-2 0 6 9999 358.5
2 0 -6 9109.76 362.1
2 0 -6 9421.27 361.03
1 0 -6 4127.7 160.43
1 0 -6 4123.5 159.54
0 0 -6 831.31 38.17
0 0 -6 889.84 35.56
-1 0 -6 6534.93 253.06
-1 0 -6 6771.04 254.8
-3 0 -6 2586.65 104.33
3 0 6 2532.77 104.12
-3 0 -6 2451.63 100.66
4 0 6 10.81 4.65
-4 0 -6 6.37 4.5
-4 0 -6 12.17 3.66
-5 0 -6 2354.84 102
5 0 6 2267.11 101.38
-5 0 -6 2398.75 95.53
6 0 6 3016.06 131.25
-6 0 -6 3089.8 123.1
-6 0 -6 3039.14 130.34
7 0 6 463.34 34.05
-7 0 -6 498.25 33.09
-7 0 -6 480.44 26.87
-8 0 -6 926.54 51.13
8 0 6 815.29 51.78
9 0 6 1194.56 65.77
-9 0 -6 1108.89 62.28
-10 0 -6 493.68 36.26
10 0 6 452.11 36.64
11 0 6 27.15 12.12
-11 0 -6 49.33 13.95
13 -1 -6 41.14 12.88
-13 1 6 36.73 12.8
13 1 -6 49.23 14.91
-12 -1 6 378.07 30.68
12 -1 -6 305.28 29.58
12 -1 -6 353.63 34.81
12 1 -6 266.67 32.91
-12 1 6 293.63 33.85
11 -1 -6 694.62 39.58
11 -1 -6 653.01 41.33
-11 -1 6 693.75 42.79
11 1 -6 647.1 43.46
-11 1 6 499.69 39.51
-10 -1 6 4.98 5.81
10 -1 -6 4.31 5.19
10 -1 -6 6.23 4.73
-10 1 6 2.92 4.67
10 1 -6 -4 3.73
9 -1 -6 256.39 24.66
9 -1 -6 249.73 20.97
-9 -1 6 278.05 21.93
9 1 -6 227.55 25.02
-9 1 6 235.38 25.24
9 1 -6 235.56 18.07
8 -1 -6 929.84 49.14
-8 -1 6 985.6 49.64
8 -1 -6 989.6 49.29
-8 1 6 1036.79 51.31
8 1 -6 921.09 45.97
8 1 -6 948.93 50.87
-7 -1 6 516.21 30.31
7 -1 -6 545.36 29.8
7 -1 -6 487.33 30.39
7 1 -6 488.35 30.67
7 1 -6 551.14 28.74
-7 1 6 539.59 31.1
6 -1 -6 641.6 33.91
6 -1 -6 605.66 30.7
-6 -1 6 581.49 31.76
-6 1 6 579.98 32.21
6 1 -6 629.51 30.89
6 1 -6 579.63 32.56
-5 -1 6 359.88 21.5
5 -1 -6 424.76 24.28
5 -1 -6 388.73 20.35
-5 1 6 382.9 21.99
5 1 -6 399.35 23.14
5 1 -6 363.94 21.14
4 -1 -6 1656.15 67.77
-4 -1 6 1383.58 63.12
4 -1 -6 1544.2 62.34
4 1 -6 1511.41 65.99
4 1 -6 1557.41 64.85
-4 1 6 1580.65 64.99
3 -1 -6 2726.6 106.37
-3 -1 6 2749.37 106.53
3 1 -6 2757.49 110.67
-3 1 6 2761.04 109
3 1 -6 2717.46 109.75
2 -1 -6 137.35 8
2 -1 -6 134.16 10.66
-2 -1 6 144.05 6.65
2 1 -6 128.24 10.7
2 1 -6 145.39 10.73
1 -1 -6 1535 63.63
1 1 -6 1539.82 64.29
1 1 -6 1507.96 64.27
0 -1 -6 1909.12 77.85
0 1 -6 1933.34 73.46
0 1 -6 1935.64 79.55
-1 -1 -6 295.39 16.71
-1 -1 -6 267.43 15.25
-1 1 -6 304.25 17.49
-1 1 -6 288.64 14.09
1 1 6 282.55 15.83
-2 -1 -6 1346.58 53.69
-2 -1 -6 1217.56 55.92
-2 1 -6 1314.86 54.32
-2 1 -6 1280.49 56.17
2 1 6 1297.91 56.16
-3 -1 -6 761.42 37.83
-3 -1 -6 810.37 34.15
-3 1 -6 767.8 37.11
-3 1 -6 735.44 37.07
3 1 6 799.88 38.88
-4 -1 -6 1481.72 60.15
-4 -1 -6 1515.42 66.75
-4 1 -6 1452.47 64.44
4 1 6 1493.04 68.53
-4 1 -6 1433.87 65.86
5 -1 6 1.93 3.18
-5 -1 -6 1.09 2.19
-5 -1 -6 3.86 3.77
-5 1 -6 -1.66 3.02
5 1 6 -1.1 3.2
-5 1 -6 -1.79 2.28
-6 -1 -6 145.96 19.08
6 -1 6 184.47 20.57
-6 1 -6 151.47 16.21
6 1 6 174.16 21.24
-6 1 -6 185.17 20.65
-7 -1 -6 1574.84 79.16
7 -1 6 1619.02 78.57
-7 1 -6 1574.5 72.48
7 1 6 1574.73 77.82
-7 1 -6 1621.67 77.17
8 -1 6 315.87 23.64
-8 -1 -6 342.86 29.12
8 -1 6 331.57 33.78
-8 1 -6 318.09 26.54
8 1 6 336.92 27.41
-8 1 -6 334 24.25
-9 -1 -6 21.87 10.04
9 -1 6 16.21 9.66
-9 1 -6 26.56 9.73
9 1 6 21.16 9.6
-10 -1 -6 202.15 27.97
10 -1 6 238.5 31.76
-10 1 -6 289.95 31.91
10 1 6 262.79 30.76
-11 -1 -6 229.01 31.31
11 -1 6 169.98 27.53
-11 1 -6 163.31 25.45
11 1 6 168.14 24.36
12 -2 -6 150.67 20.74
-12 -2 6 144.46 21.62
12 2 -6 113.09 22.48
-12 2 6 156.32 24.76
11 -2 -6 4.98 6.97
-11 -2 6 23.03 9.34
11 -2 -6 7.85 7.87
11 2 -6 23.26 11.38
-11 2 6 27.74 12.29
10 -2 -6 189.31 21.61
10 -2 -6 121.61 18.15
-10 -2 6 162.81 21.58
-10 2 6 127.21 20.36
10 2 -6 157.46 23.06
9 -2 -6 95.28 14.42
9 -2 -6 85.8 14.97
-9 -2 6 117.94 16.71
9 2 -6 115.6 18.22
-9 2 6 118.35 18.58
8 -2 -6 3.21 4.08
8 -2 -6 7.35 5.39
-8 -2 6 8.82 5.75
8 2 -6 2.46 4.35
-8 2 6 2.7 4.29
7 -2 -6 184.18 14.75
-7 -2 6 218.87 22.06
7 -2 -6 167.45 19.72
7 2 -6 184.97 14.28
7 2 -6 231.96 19.29
-7 2 6 190.32 20.31
-6 -2 6 40.54 8.42
6 -2 -6 38.23 6.57
6 2 -6 44.39 7.44
-6 2 6 38.74 8.42
5 -2 -6 367.68 18.41
-5 -2 6 345.63 21.03
-5 2 6 364.14 22.84
5 2 -6 357.57 20.71
4 -2 -6 261.32 12.9
-4 -2 6 257.61 15.58
4 -2 -6 265.65 19.03
-4 2 6 271.84 18.14
4 2 -6 281.48 17.17
3 -2 -6 28.24 6.68
-3 -2 6 36.03 5.19
3 2 -6 27.25 6.34
-3 2 6 31.37 6.6
3 2 -6 37.41 6.52
2 -2 -6 1137.32 50.49
-2 -2 6 1102.96 45.61
2 2 -6 1088.28 51.06
2 2 -6 1144.17 50.25
1 -2 -6 47.48 7.09
1 2 -6 50.18 7.92
1 2 -6 34.38 6.68
0 -2 -6 19.53 4.25
0 2 6 23.15 3.28
0 2 -6 10.23 4.18
0 2 -6 17.14 4.85
-1 -2 -6 380.09 22.29
-1 -2 -6 407.76 19.81
1 2 6 369.44 19.2
-1 2 -6 361.52 18.63
-2 -2 -6 261.22 18.16
-2 -2 -6 275.78 14.56
-2 2 -6 266.59 15.58
-2 2 -6 248.18 17.75
-3 -2 -6 15.93 3.27
-3 -2 -6 66.24 10.07
3 2 6 10.76 4.59
-3 2 -6 14.34 4.42
-3 2 -6 13.31 5.04
-4 -2 -6 38.94 8.99
-4 2 -6 62.39 10.04
4 2 6 47.16 9.31
-4 2 -6 58.41 9.51
5 -2 6 48.45 10.22
-5 -2 -6 51.3 10.51
-5 2 -6 52.84 9.63
5 2 6 57.17 11
-5 2 -6 65.98 11.31
6 -2 6 98.64 15.61
-6 -2 -6 95.4 15.45
6 2 6 95.35 15
-6 2 -6 128.75 16.46
-6 2 -6 101.13 15.11
-7 -2 -6 127.78 19.56
7 -2 6 91.97 16.25
-7 2 -6 101.62 16.87
7 2 6 104.7 16.75
-7 2 -6 102.36 15
8 -2 6 9.82 6.93
-8 -2 -6 1.58 5.57
8 -2 6 5.98 5.9
-8 2 -6 8.21 6.81
8 2 6 -1.57 4.09
-8 2 -6 1.06 5.7
9 -2 6 75.92 16.98
9 -2 6 94.02 16.62
-9 -2 -6 52.31 15.45
9 2 6 95.91 17.55
-9 2 -6 78.61 15.25
-9 2 -6 81.56 16.3
-10 -2 -6 79.43 19.22
10 -2 6 82.16 20.1
-10 2 -6 106.8 20.41
10 2 6 103.02 19.74
11 -3 -6 41.21 12.1
-11 -3 6 24.38 10.77
-11 3 6 42.51 13.38
11 3 -6 44.66 14.82
-10 -3 6 27 11.34
10 -3 -6 17.88 8.23
-10 3 6 36.67 13.17
10 3 -6 31.44 12.2
-9 -3 6 9.48 7.03
9 -3 -6 23.23 9.3
-9 3 6 17.06 8.47
9 3 -6 8.1 7.04
-8 -3 6 115.1 17.21
8 -3 -6 107.95 17.57
-8 3 6 108.3 16.68
8 3 -6 115.94 17.66
7 -3 -6 174.8 22.16
-7 -3 6 212.47 21.22
7 3 -6 208.23 23.12
-7 3 6 201.5 22.24
6 -3 -6 2.95 4.74
-6 -3 6 1.17 3.68
6 3 -6 7.2 3.95
-6 3 6 3.54 4.31
6 3 -6 5.31 4.67
-5 -3 6 74.34 10.59
5 -3 -6 42.67 10.01
5 3 -6 57.95 9.08
-5 3 6 48.42 9.78
5 3 -6 58.85 11.22
4 -3 -6 145.29 17.99
-4 -3 6 132.5 11.41
4 3 -6 144.37 14.68
4 3 -6 133.7 16.34
3 -3 -6 195.75 19.27
-3 -3 6 191.77 13.34
3 3 -6 169.95 16.76
3 3 -6 202.31 16.6
2 -3 -6 -3.1 2.09
-2 -3 6 -0.57 2.13
2 3 -6 -1.14 2.61
2 3 -6 0.59 2.82
1 -3 -6 53.38 8.4
1 3 -6 37.96 7.96
1 3 -6 66.82 10.36
0 -3 -6 318.71 19.23
0 3 -6 349.19 22.27
0 3 -6 322.01 21.88
-1 -3 -6 111.31 13.71
-1 -3 -6 90.25 9.77
-1 3 -6 89.73 12.53
-2 -3 -6 25.42 4.83
-2 -3 -6 34.67 8.27
2 3 6 19.43 4.4
-2 3 -6 28.47 6.05
-2 3 -6 21.99 6.64
-3 -3 -6 221.24 19.1
3 3 6 262.75 16.62
-3 3 -6 222.39 21.6
-3 3 -6 233.91 16.74
-4 -3 -6 302.47 23.09
4 3 6 300.53 20.55
-4 3 -6 284.25 22.53
-4 3 -6 277.77 19.82
-5 -3 -6 30.24 9.35
5 3 6 24.94 7.25
-5 3 -6 14.37 6.13
-5 3 -6 8.67 5.51
-6 -3 -6 56.22 12.73
6 -3 6 51.96 12.53
-6 3 -6 67.62 13.61
-6 3 -6 53.38 11.1
6 3 6 44.2 10.5
7 -3 6 171.43 23.25
7 -3 6 168.91 22.72
-7 -3 -6 168.3 23.18
-7 3 -6 214.33 24.89
-7 3 -6 173.19 21.25
7 3 6 157.78 21.36
8 -3 6 8.85 7.73
8 -3 6 2.46 5.64
-8 -3 -6 6.22 6.8
-8 3 -6 -0.77 5.36
-8 3 -6 3 6.55
8 3 6 1.51 5.98
-9 -3 -6 13.81 10.47
9 -3 6 21.8 10.48
9 -3 6 7.34 7.92
-9 3 -6 14.85 9.37
9 3 6 2.64 6.02
-9 3 -6 11.47 8.52
-10 -4 6 225.47 30.34
10 -4 -6 251.11 31.02
10 4 -6 253.23 31.18
-10 4 6 221.63 29.24
-9 -4 6 322.88 33.07
9 -4 -6 280.49 32.08
9 4 -6 317.23 33.92
-9 4 6 290.72 31.96
-8 -4 6 10.15 6.98
8 -4 -6 11.24 7.52
-8 4 6 20.53 8.89
8 4 -6 14.5 7.6
7 -4 -6 233.85 27
-7 -4 6 260.64 21.75
7 4 -6 254.91 26.95
-7 4 6 215.25 25.36
-6 -4 6 677.92 37.84
6 -4 -6 627.79 41.38
-6 4 6 636.08 40.53
6 4 -6 677.46 40.29
-5 -4 6 134.53 16.18
5 -4 -6 146.03 19.8
5 4 -6 147.51 18.68
4 -4 -6 36.29 9.95
-4 -4 6 40.64 8.74
4 4 -6 42.96 8.91
4 4 -6 47.48 10.5
-3 -4 6 713.02 38.01
3 -4 -6 816.7 43.05
3 4 -6 744.68 40.29
3 4 -6 738.23 41.87
-2 -4 6 529.88 30.37
2 -4 -6 623.93 34.46
2 4 -6 573.48 33.5
2 4 -6 565.98 34.32
1 -4 -6 435.95 27.16
1 4 -6 517.92 30.16
1 4 -6 425.81 28.89
0 -4 -6 176.35 16.82
0 4 -6 146.9 18.17
0 4 -6 192.63 20.13
-1 -4 -6 293.5 20.96
-1 -4 -6 324.97 24.51
-1 4 -6 325.42 24.14
-2 -4 -6 1054.42 55.4
-2 4 -6 1076.88 56.01
-3 -4 -6 76.08 13.88
-3 4 -6 73.21 14.05
-4 -4 -6 7.38 5.91
-4 4 -6 8.96 5.47
-4 4 -6 18.65 7.66
-5 -4 -6 436.73 32.51
-5 4 -6 485.21 34.47
-5 4 -6 401.76 28.37
6 -4 6 221.88 26.96
-6 -4 -6 252.36 28.02
6 -4 6 185.36 24.55
-6 4 -6 267.38 26.36
-6 4 -6 182.8 24.9
7 -4 6 16.23 8.93
-7 -4 -6 18.34 9.36
7 -4 6 43.38 13.11
-7 4 -6 33.62 11.89
-7 4 -6 35.85 10.71
-8 -4 -6 14.85 9.17
8 -4 6 1.82 7.91
8 -4 6 23.03 10.74
-8 4 -6 8.2 9.27
-8 4 -6 28.21 10.92
7 -5 -6 268.92 31.97
7 5 -6 277.56 29.88
6 -5 -6 23.26 10.25
6 5 -6 29.01 10.77
5 -5 -6 89.56 17.62
5 5 -6 109.1 17.71
4 -5 -6 406.7 31.52
4 5 -6 422.13 30.95
3 -5 -6 266.85 27.42
3 5 -6 229.2 25.15
3 5 -6 217.53 26.82
2 -5 -6 1.78 4.82
2 5 -6 4.98 5.71
2 5 -6 24.55 9.03
1 -5 -6 278.4 21.53
1 5 -6 251.81 27.08
1 5 -6 270.75 22.91
0 5 -6 329.43 32.04
0 5 -6 328.02 25.71
-1 -5 -6 47.59 12.43
-1 5 -6 28.17 9.79
-2 -5 -6 38.14 11.16
-2 5 -6 43.2 11.86
-3 -5 -6 369.02 30.51
-3 5 -6 386.22 31.56
4 -5 6 164.72 24.52
-4 -5 -6 128.59 19.8
-4 5 -6 185.24 25.56
-5 -5 -6 39.93 11.78
5 -5 6 43.45 13.85
-5 5 -6 10.8 8.69
-1 -6 6 62.37 15.85
1 6 -6 42.82 15.05
0 -6 -6 -0.49 6.77
0 -6 6 3.09 7.08
0 6 -6 9.99 8.38
-13 0 7 4.56 7.77
13 0 -7 6.42 7.87
12 0 -7 5.4 7.01
-12 0 7 2.26 7.08
11 0 -7 -0.44 5.59
11 0 -7 6.54 5.84
-11 0 7 -2.48 5.51
10 0 -7 -1.63 4.96
-10 0 7 -2.32 4.87
10 0 -7 2.09 3.92
9 0 -7 -4.3 3.55
-9 0 7 1.68 4.51
9 0 -7 0.06 3.64
8 0 -7 6.41 4.79
-8 0 7 -1.7 4.1
8 0 -7 -2.24 2.68
-7 0 7 3.14 3.75
7 0 -7 -2.89 2.63
7 0 -7 1.95 3.75
6 0 -7 1.88 2.81
6 0 -7 1.27 2.91
-6 0 7 -2.04 2.24
-5 0 7 -2.72 1.87
5 0 -7 -4.41 1.76
5 0 -7 -2.8 1.96
4 0 -7 3.95 2.8
-4 0 7 0.17 1.54
4 0 -7 -2.39 1.86
3 0 -7 -0.69 2.36
-3 0 7 -3.23 1.34
3 0 -7 -2.4 1.92
2 0 -7 0.72 1.43
2 0 -7 -0.1 1.76
1 0 -7 -3.41 1.58
1 0 -7 -0.35 1.18
1 0 -7 -2.13 1.85
0 0 -7 -0.22 1.34
0 0 -7 8.32 3.45
-1 0 -7 0.09 1.52
-1 0 -7 -1.33 1.71
-2 0 -7 -1.22 1.71
-2 0 -7 1.45 2.15
-3 0 -7 -0.94 2.05
-3 0 -7 -2.09 2.35
3 0 7 -1.13 2.35
4 0 7 1.56 3.38
-4 0 -7 3.29 2.81
-4 0 -7 -0.7 2.87
-5 0 -7 -2.95 3.15
-5 0 -7 -2.34 2.37
5 0 7 -4.04 2.68
6 0 7 2.35 4.48
-6 0 -7 -0.41 2.81
-6 0 -7 2.57 4.22
7 0 7 4.47 5.62
-7 0 -7 2.83 4.7
8 0 7 1.81 6.04
-8 0 -7 4.25 5.3
-9 0 -7 -5.45 3.75
9 0 7 0.22 7.64
10 0 7 -0.55 6.27
-10 0 -7 11.13 7.52
12 -1 -7 97.04 16.37
12 -1 -7 86.84 17.05
-12 -1 7 104.65 18.23
-12 1 7 87.77 17.34
12 1 -7 70.28 16.53
-11 -1 7 315.29 26.63
11 -1 -7 271.39 29.43
11 -1 -7 307.03 29.05
11 1 -7 277.91 31.73
-11 1 7 248.29 28.99
-10 -1 7 505.12 33.3
10 -1 -7 450.83 30.81
10 -1 -7 450.56 31.45
-10 1 7 377.9 30.59
10 1 -7 456.6 33.49
-9 -1 7 125.32 16.79
9 -1 -7 87.59 14.01
9 -1 -7 112.86 16.41
9 1 -7 97.28 13.44
-9 1 7 108.36 16.56
9 1 -7 140.16 18.85
8 -1 -7 26.21 8.53
8 -1 -7 26.93 7.18
-8 -1 7 52.15 10.87
8 1 -7 43.73 10.39
8 1 -7 48.24 9.04
-8 1 7 52.36 10.69
-7 -1 7 538.93 31.12
7 -1 -7 546.08 33.08
7 -1 -7 576.19 30.67
-7 1 7 567.7 32.48
7 1 -7 555.18 32.75
7 1 -7 593.33 31.04
6 -1 -7 111.95 14.54
6 -1 -7 129.27 11.17
-6 -1 7 134.38 13.93
6 1 -7 146.59 14.42
6 1 -7 139.95 14.84
-6 1 7 138.4 14.59
5 -1 -7 130.99 10.15
5 -1 -7 180.02 17.2
-5 -1 7 131.62 10.6
5 1 -7 124.37 12.98
5 1 -7 125.75 13.68
-5 1 7 137.78 11.47
4 -1 -7 386.12 19.86
-4 -1 7 421.21 20.2
-4 1 7 413.43 21.95
4 1 -7 423.24 22.99
4 1 -7 378.79 22.98
3 -1 -7 1117.2 46.72
3 -1 -7 1219.31 51.92
-3 -1 7 1155.76 45.11
-3 1 7 1122.37 49
3 1 -7 1085.47 50.81
3 1 -7 1112.4 50.28
2 -1 -7 1027.64 46.36
2 -1 -7 1063.42 42.38
2 1 -7 975.86 45.81
2 1 -7 1029.8 46.73
1 -1 -7 174.1 11.72
1 1 -7 123.91 11.07
1 1 -7 151.06 11.65
0 -1 -7 3035.5 122.69
0 1 -7 3168.5 117.26
0 1 -7 3117.82 124.6
0 1 -7 3077.9 124.58
-1 -1 -7 2016.36 83.01
-1 -1 -7 2000.99 82.12
-1 1 -7 2001.39 84.24
-1 1 -7 2064.51 79.39
-2 -1 -7 415.6 23.56
-2 -1 -7 457.18 22
-2 1 -7 416.88 21.7
2 1 7 433.88 23.65
-2 1 -7 431.49 23.98
-3 -1 -7 111.2 12.83
-3 -1 -7 134.22 9.68
3 1 7 140.53 14.73
-3 1 -7 138.18 13.86
-3 1 -7 116.86 12.59
-4 -1 -7 608 34.06
-4 -1 -7 625.98 29.08
4 1 7 674.23 36.29
-4 1 -7 622.25 32.8
-4 1 -7 603.32 33.47
-5 -1 -7 904.33 46.35
-5 -1 -7 914.38 38.68
5 -1 7 883.93 46.56
5 1 7 828.04 47.23
-5 1 -7 848.82 42.51
-5 1 -7 783.4 44.13
-6 -1 -7 143.97 19.4
6 -1 7 171.56 21.04
6 1 7 242.34 24.95
-6 1 -7 183.17 18.09
-6 1 -7 171.19 19.9
-7 -1 -7 92.54 17.18
7 -1 7 126.03 19.01
-7 1 -7 130.4 15.68
7 1 7 119.17 18.87
-7 1 -7 122.36 17.51
-8 -1 -7 224.92 27.98
8 -1 7 219.39 22.41
8 -1 7 228.57 28.24
8 1 7 258.22 27.97
-8 1 -7 261.29 24.31
-8 1 -7 263.47 28.41
-9 -1 -7 240.43 30.08
9 -1 7 254.93 32.01
-9 1 -7 283.49 30.61
9 1 7 219.74 27.54
-10 -1 -7 2.5 6.9
10 -1 7 4.4 8.75
10 1 7 7.23 7.09
-10 1 -7 1.55 5.9
-12 -2 7 475.76 34.78
12 -2 -7 466.72 33.85
12 2 -7 414.71 43.23
-12 2 7 368.66 39.51
-11 -2 7 237 26.52
11 -2 -7 253.07 27.06
-11 2 7 213.73 27.6
11 2 -7 235.9 29.79
10 -2 -7 245.16 26.23
-10 -2 7 299.43 24.8
-10 2 7 291.43 30.89
10 2 -7 275.78 30.51
9 -2 -7 970.01 52.97
9 -2 -7 957.44 52.75
-9 -2 7 921.95 51.24
9 2 -7 1012.34 55.26
-9 2 7 967.54 53.64
8 -2 -7 618.51 34.28
-8 -2 7 673.47 37.74
8 -2 -7 659.1 39.62
-8 2 7 720.75 40.06
8 2 -7 593.9 38.29
8 2 -7 602.38 33.51
-7 -2 7 19.08 7.09
7 -2 -7 15.82 7.4
7 -2 -7 14.57 5.1
-7 2 7 18.89 6.64
7 2 -7 21.33 7.37
7 2 -7 17.49 5.54
-6 -2 7 789.72 38.67
6 -2 -7 692.34 40.3
6 -2 -7 722.8 33.72
-6 2 7 740.83 38.92
6 2 -7 724.92 36.48
6 2 -7 711.34 39.53
5 -2 -7 2798.5 108.82
-5 -2 7 2779.67 113.59
5 2 -7 2837.71 113.95
-5 2 7 2719.33 115.17
-4 -2 7 732.24 34.29
4 -2 -7 742.22 30.84
4 -2 -7 740.83 38.96
-4 2 7 780.67 37.98
4 2 -7 760.98 37.05
-3 -2 7 16.92 3.55
3 -2 -7 5.76 3.79
3 2 -7 8.5 3.92
3 2 -7 11.44 4.2
2 -2 -7 1122.91 49.39
-2 -2 7 1020.87 42.82
2 2 -7 1083.18 49.24
1 -2 -7 2527.85 101.73
-1 -2 7 2487.47 95.95
1 2 -7 2454.54 102.91
0 -2 -7 1184.33 51.19
0 2 -7 1220.34 53.75
0 2 7 1124.38 47.89
-1 -2 -7 743.55 37.17
-1 -2 -7 774.92 34.54
-1 2 -7 786.14 32.73
1 2 7 670.36 33.92
-2 -2 -7 1228.48 55.97
-2 -2 -7 1217.74 50.83
-2 2 -7 1248.73 56.44
-2 2 -7 1136.82 50.94
2 2 7 1193.96 53.87
-3 -2 -7 1074.17 44.78
-3 -2 -7 1076.54 51.81
-3 2 -7 1080.13 51.35
-3 2 -7 1040.52 47.49
3 2 7 1029.37 50.1
-4 -2 -7 141.95 17.06
4 2 7 154.61 16.92
-4 2 -7 138.96 14.85
-4 2 -7 158.42 17.01
-5 -2 -7 437.63 28.64
5 -2 7 391.4 27.98
-5 2 -7 397.37 26.3
5 2 7 377.91 26.84
-5 2 -7 376.34 25.16
-6 -2 -7 2063.06 92.92
6 -2 7 2013.85 92.69
-6 2 -7 1909.73 89.41
6 2 7 2054.45 91.7
-6 2 -7 1878.42 89.23
7 -2 7 736.26 46.34
-7 -2 -7 716.96 45.9
-7 2 -7 750.09 44.59
7 2 7 797.66 45.76
-7 2 -7 782.94 44.12
8 -2 7 0.47 5.59
-8 -2 -7 4.89 7.07
8 -2 7 2.42 6.59
-8 2 -7 2.32 5.46
8 2 7 2.2 5.57
-8 2 -7 0.48 6.29
9 -2 7 347.72 33.81
-9 -2 -7 315.08 36.33
9 -2 7 345.56 38.22
-9 2 -7 345.21 35.88
9 2 7 305.82 33.18
-9 2 -7 392.54 30.15
10 -2 7 935.84 62.65
-10 -2 -7 881 60.4
-10 2 -7 894.07 56.3
10 2 7 931.72 56.83
11 -3 -7 297.24 31.74
-11 -3 7 331.43 33.64
-11 3 7 273.46 33.13
11 3 -7 265.68 32.98
10 -3 -7 399.11 32.68
-10 -3 7 464.82 34.05
-10 3 7 460.9 35.82
10 3 -7 471.19 36.3
-9 -3 7 23.31 9.53
9 -3 -7 61.98 14.16
9 3 -7 58.61 13.97
-9 3 7 62.54 13.85
8 -3 -7 98.55 16.94
-8 -3 7 113.54 17.5
8 3 -7 143.67 20.13
-8 3 7 147.31 19.48
7 -3 -7 563.5 35.95
-7 -3 7 591.48 33.04
-7 3 7 476.38 32.7
7 3 -7 446.9 32.39
6 -3 -7 889.43 52.61
-6 -3 7 1098.89 49.97
-6 3 7 966.1 51.62
6 3 -7 973.83 52.31
6 3 -7 1099.73 49.41
-5 -3 7 49.31 8.44
5 -3 -7 31.92 8.87
-5 3 7 57.36 10.77
5 3 -7 31.4 7.36
5 3 -7 42.16 9.51
4 -3 -7 1101.3 53.49
-4 -3 7 1046.3 47.1
4 3 -7 994.63 52.3
4 3 -7 1059.73 50.16
-3 -3 7 984.93 44.06
3 -3 -7 971.4 49.33
3 3 -7 1023.83 50.39
3 3 -7 1001.66 48
-2 -3 7 1139.55 49.14
2 -3 -7 1114.63 53.47
2 3 -7 1184.85 56
2 3 -7 1139.75 54.09
1 -3 -7 22.17 6
1 3 -7 34.28 8.3
1 3 -7 47.96 9.33
0 -3 -7 1852.95 79.32
0 3 -7 1906.87 83.34
0 3 -7 1899.58 83.4
-1 -3 -7 2375.95 104.89
-1 -3 -7 2509.82 99.57
-1 3 -7 2453.07 105.03
-2 -3 -7 99.39 13.98
-2 -3 -7 116.77 10.97
-2 3 -7 129.26 15.58
-2 3 -7 119.4 12.32
-3 -3 -7 74.23 12.75
-3 3 -7 90.86 11.19
-3 3 -7 80.13 12.84
-4 -3 -7 572.67 35.08
-4 3 -7 541.48 30.38
4 3 7 554.42 31.37
-4 3 -7 486.38 32.87
-5 -3 -7 1239.92 63.71
-5 3 -7 1292.89 64.06
5 3 7 1149.58 59.5
-5 3 -7 1282.51 60.26
-6 -3 -7 7.27 5.92
6 -3 7 28.77 9.41
6 3 7 26.2 8.54
-6 3 -7 24.34 9.37
-6 3 -7 22.83 7.61
7 -3 7 24.07 9.66
-7 -3 -7 53.25 13.33
-7 3 -7 46.1 13.45
7 3 7 46.52 11.93
-7 3 -7 33.93 10.38
-8 -3 -7 204.02 28.62
8 -3 7 279.09 32.39
8 -3 7 220.72 27.31
-8 3 -7 255.44 27.97
-8 3 -7 260.87 29.16
8 3 7 209.56 26.03
9 -3 7 135.84 23.63
-9 -3 -7 128.69 24.2
9 -3 7 154.97 24.93
9 3 7 109.38 19.78
-9 3 -7 128.91 22.04
-9 3 -7 161.3 24.71
9 -4 -7 176.98 25.73
9 4 -7 198.64 27.07
-9 4 7 155.97 23.37
8 -4 -7 51.32 13.59
8 4 -7 45.12 12.64
-8 4 7 44.04 12.28
7 -4 -7 2.2 5.24
-7 4 7 -0.16 5.21
7 4 -7 -2.34 4.22
6 -4 -7 47.22 12.25
6 4 -7 35.52 9.99
5 -4 -7 427.71 30.77
5 4 -7 382.36 28.58
5 4 -7 364.34 25.7
4 -4 -7 93.59 15.65
4 4 -7 55.41 12.05
4 4 -7 95.66 13.72
3 -4 -7 2.8 4.42
3 4 -7 0.49 4
3 4 -7 9.72 5.12
2 -4 -7 42.39 9.29
2 4 -7 33.99 8.76
2 4 -7 41.8 9.62
1 -4 -7 571.74 32.05
1 4 -7 561.2 34.32
1 4 -7 564.89 34.67
0 -4 -7 60.81 9.8
0 4 -7 61.43 11.79
0 4 -7 89.09 13.64
-1 -4 -7 61.72 12.82
-1 4 -7 57.51 11.79
-2 -4 -7 342.73 25.81
-2 4 -7 296.24 24.62
-3 -4 -7 -4.99 3.51
-3 4 -7 0.25 4.32
-4 -4 -7 72.2 14.33
-4 4 -7 81.76 15.1
-5 -4 -7 82.19 16.17
-5 4 -7 59.59 14.55
-6 -4 -7 165.47 23.22
6 -4 7 202.02 25.28
-6 4 -7 210.46 26.96
-7 -4 -7 117.85 20.42
7 -4 7 68.78 16.05
7 -4 7 114.47 20.28
-7 4 -7 110.27 20.02
7 -5 -7 53.87 15.55
7 5 -7 33.82 11.41
6 -5 -7 23.99 9.54
6 5 -7 16.5 9.2
5 -5 -7 16.68 9.05
5 5 -7 2.8 5.33
4 -5 -7 25.11 9.59
4 5 -7 16.57 7.83
3 -5 -7 61.58 12.95
3 5 -7 32.61 10.11
3 5 -7 48.27 12.14
2 -5 -7 -1.21 4.65
2 5 -7 8.28 6.3
2 5 -7 5.05 6.3
1 -5 -7 27.76 12.68
1 5 -7 46.97 11.71
1 5 -7 61.31 12.69
0 5 -7 0.65 5.49
0 5 -7 -1.15 4.54
-1 -5 -7 3.44 5.23
-1 5 -7 2.2 5.88
-2 -5 -7 18.14 7.96
-2 5 -7 17.37 8.84
-3 -5 -7 1.77 4.94
-3 5 -7 22.42 10.04
-4 -5 -7 47.02 12.64
-4 5 -7 46.39 13.42
5 -5 7 -1.15 7.68
-5 -5 -7 -1.71 6.21
-5 5 -7 -3.64 7.22
12 0 -8 877.29 55.27
-12 0 8 954.56 55.68
-11 0 8 1287.23 69.01
11 0 -8 1289.45 69.52
11 0 -8 1372.78 66.61
10 0 -8 218.41 23.39
10 0 -8 292.56 28.7
-10 0 8 223.81 25.43
9 0 -8 1371.03 63.61
9 0 -8 1168.75 60.65
-9 0 8 1184 61.54
-8 0 8 3075.8 128.68
8 0 -8 3078.23 129.41
8 0 -8 3024.02 128.78
-7 0 8 2176.48 94.3
7 0 -8 2288.22 96.62
7 0 -8 2191.16 94.76
-6 0 8 215.71 15.45
6 0 -8 223.91 16.28
6 0 -8 260.31 18.57
5 0 -8 1151.17 51.98
-5 0 8 1116.74 50.02
5 0 -8 1235.05 54.47
-4 0 8 2338.69 91.2
4 0 -8 2236.54 93.51
4 0 -8 2297.87 95.75
3 0 -8 452.82 23.4
3 0 -8 433.42 24.32
-3 0 8 440.49 20.29
2 0 -8 16.45 4.29
2 0 -8 19.98 4.92
1 0 -8 506.99 26.06
1 0 -8 547.12 22.71
1 0 -8 513.03 27.18
0 0 -8 5567.63 214.92
0 0 -8 5476.75 210.14
-1 0 -8 164.63 12.39
-1 0 -8 156.44 10.58
-2 0 -8 7.13 3.43
-2 0 -8 17.49 4.68
-3 0 -8 4929.58 190.06
3 0 8 4853.62 193.09
-3 0 -8 4730.92 192.03
4 0 8 672.64 37.66
-4 0 -8 747.05 38.58
-4 0 -8 657.29 34.1
-5 0 -8 982.51 46.28
5 0 8 985.95 51.94
-5 0 -8 1017.54 51.7
6 0 8 939.27 51.79
-6 0 -8 902.26 49.89
-6 0 -8 939.79 44.49
7 0 8 746.6 45.88
-7 0 -8 639.83 41.26
-8 0 -8 955.94 53.9
8 0 8 917.85 57.53
-9 0 -8 11.71 7.79
9 0 8 8.88 8.18
-10 0 -8 205.92 26.93
10 0 8 180.47 27.56
12 -1 -8 26.95 10.08
-12 -1 8 33.05 10.65
12 -1 -8 39.44 11.49
-12 1 8 27.45 12.43
12 1 -8 28.29 11.96
-11 -1 8 2.28 6.44
11 -1 -8 1.86 5.32
11 -1 -8 8.8 6.58
11 1 -8 1.36 5.96
-11 1 8 -0.99 6.29
10 -1 -8 396.89 29.73
-10 -1 8 432.85 30.47
10 -1 -8 460.59 30.68
10 1 -8 445.09 32.73
10 1 -8 375.29 28.68
-10 1 8 412.43 31.14
-9 -1 8 243.02 24.33
9 -1 -8 172.35 21.53
9 -1 -8 216.22 22.07
-9 1 8 219.37 23.97
9 1 -8 205.75 20.78
9 1 -8 208.13 23.57
8 -1 -8 91.73 14.88
8 -1 -8 88.53 12.64
-8 -1 8 81.82 12.88
8 1 -8 93.1 14.78
8 1 -8 97.08 13.44
-8 1 8 107.9 15.1
-7 -1 8 574.6 33.49
7 -1 -8 628.77 33.08
7 -1 -8 708.71 38.25
-7 1 8 605.06 34.3
7 1 -8 659.56 34.69
7 1 -8 651.94 36.09
6 -1 -8 835.05 43.43
-6 -1 8 833.21 39.45
6 -1 -8 781.24 38.37
6 1 -8 831.04 41.02
6 1 -8 861.11 42.36
-6 1 8 787.93 40.15
5 -1 -8 853.49 39.3
-5 -1 8 900.21 39.39
-5 1 8 880.48 41.16
5 1 -8 899.64 42.67
5 1 -8 851.8 43.05
4 -1 -8 30.78 5.07
4 -1 -8 33.07 7.18
-4 -1 8 43.3 5.09
4 1 -8 22.1 5.76
-4 1 8 33.99 6.13
4 1 -8 40.01 7.59
3 -1 -8 1230.06 49.5
-3 -1 8 1188.99 45.92
3 -1 -8 1149.42 53.81
3 1 -8 1199.22 53.52
3 1 -8 1149.62 53.59
2 -1 -8 3257.93 126.12
2 -1 -8 3226.68 130.56
2 1 -8 3178.53 130.62
2 1 -8 3329.84 131.37
1 -1 -8 2428.4 99.14
1 1 -8 2429.63 100.25
0 -1 -8 134.96 11.07
0 -1 -8 148.97 10.94
0 1 -8 156.78 14.88
0 1 -8 147.38 12.33
-1 -1 -8 3159.29 121.47
-1 -1 -8 3032.08 121.43
1 1 8 2947.7 120.87
-1 1 -8 2958.42 123.16
-1 1 -8 3073.85 117.3
-2 -1 -8 2631.76 101.67
-2 -1 -8 2685.62 104
-2 1 -8 2657.2 104.82
-2 1 -8 2139.66 99.73
2 1 8 2548.25 103.58
-3 -1 -8 109.48 13.05
-3 -1 -8 109.42 10.74
-3 1 -8 98.65 11.8
-3 1 -8 105.03 12.52
3 1 8 96.66 12.6
-4 -1 -8 236.44 14.75
4 -1 8 234.89 19.38
-4 -1 -8 228.74 18.2
-4 1 -8 222.1 16.98
4 1 8 221.44 18.95
-4 1 -8 230.27 17.67
-5 -1 -8 1078.43 50.3
-5 -1 -8 1176.75 56.14
5 -1 8 1085.39 55.82
5 1 8 1033.17 56.57
-5 1 -8 1033.04 53.52
-5 1 -8 1098.01 52.2
-6 -1 -8 640.05 40.23
6 -1 8 684.11 41.56
-6 1 -8 646.67 38.98
6 1 8 698.66 42.54
-6 1 -8 644.82 36.18
7 -1 8 30.18 10.68
-7 -1 -8 28.96 10.69
7 1 8 34.12 10.71
-7 1 -8 30.79 9.31
-7 1 -8 27.27 8.64
-8 -1 -8 229.59 28.83
8 -1 8 163.74 24.85
8 1 8 172.67 24.2
-8 1 -8 216.93 24.05
-8 1 -8 230.65 26.93
9 -1 8 707.6 48.55
-9 -1 -8 559.84 41.19
9 1 8 446.94 37.34
-9 1 -8 602.45 40.47
10 -1 8 466.41 47.97
-10 -1 -8 420.31 35.85
10 1 8 343.46 37.6
-10 1 -8 460.68 35.25
-12 -2 8 66.46 15.04
12 -2 -8 69.55 14.8
-12 2 8 75.26 17.73
12 2 -8 83.35 18.92
11 -2 -8 11.63 7.87
-11 -2 8 18.06 8.17
11 2 -8 12.95 8.76
-11 2 8 18.25 10
10 -2 -8 5.64 5.79
-10 -2 8 15.9 7.56
-10 2 8 6.06 6.08
10 2 -8 20.2 9.54
-9 -2 8 69.56 12.73
9 -2 -8 44.07 11.5
-9 2 8 30.05 9.39
9 2 -8 39.28 10.69
-8 -2 8 74.02 12.45
8 -2 -8 41.55 10.79
8 2 -8 50.66 9.63
-8 2 8 60.61 12.16
8 2 -8 55.96 11.88
7 -2 -8 133.86 18.57
-7 -2 8 153.85 16.89
-7 2 8 164.41 18.21
7 2 -8 183.15 17.75
7 2 -8 157.41 18.67
-6 -2 8 22.49 6.19
6 -2 -8 23.62 7.33
6 2 -8 13.37 5.35
6 2 -8 22.64 7.23
-6 2 8 17.14 6.15
5 -2 -8 31.5 5.37
-5 -2 8 27.85 6.3
5 -2 -8 28.77 8.05
5 2 -8 51.48 8.86
5 2 -8 29.25 7.28
-5 2 8 37.51 7.66
-4 -2 8 128.56 9.85
4 -2 -8 129.97 15.31
4 -2 -8 118.19 7.78
4 2 -8 157.17 15.58
-4 2 8 123.27 13.85
4 2 -8 111.12 13.64
-3 -2 8 185.31 11.01
3 -2 -8 208.18 16.12
3 2 -8 217.15 15.82
3 2 -8 186.99 15.71
2 -2 -8 8.16 3.88
2 2 -8 1.7 2.89
2 2 -8 15.28 5.01
1 -2 -8 186.57 13.65
-1 2 8 172.39 9.61
1 2 -8 203.38 15.03
1 2 -8 109.85 13.77
-1 -2 -8 47.63 8.51
-1 -2 -8 55.65 7.68
-1 2 -8 51.31 5.87
-1 2 -8 32.68 7.44
-2 -2 -8 270.65 18.97
-2 -2 -8 251.8 15.22
2 2 8 266.43 18.11
-2 2 -8 201.45 13.88
-2 2 -8 292.03 20.03
-3 -2 -8 44.84 9.22
-3 -2 -8 52.25 6.74
-3 2 -8 47.53 9.15
3 2 8 56.58 10.23
-3 2 -8 70.41 9.07
-4 -2 -8 154.01 18.45
-4 2 -8 138.19 16.63
4 2 8 126.94 16.11
-4 2 -8 160.59 16
5 -2 8 1.14 4.38
-5 -2 -8 -1.83 3.19
-5 2 -8 -1.03 3.44
5 2 8 0.23 4.67
-5 2 -8 1.75 4.34
6 -2 8 10.97 6.55
-6 -2 -8 3.41 5.02
-6 2 -8 2.15 5.01
-6 2 -8 10.55 6.34
6 2 8 20.42 7.55
7 -2 8 62.41 14.22
-7 -2 -8 43.07 12.08
7 2 8 50.96 12.57
-7 2 -8 69.19 14.18
-7 2 -8 62.56 12.72
8 -2 8 30.5 12.07
-8 -2 -8 14.71 9.4
8 2 8 40.44 11.71
-8 2 -8 4.89 7.07
-8 2 -8 23.82 9.28
9 -2 8 3.63 8.64
-9 -2 -8 -2.02 8.31
9 -2 8 -4.45 5.04
-9 2 -8 -5.69 5.63
-9 2 -8 0.81 6.9
9 2 8 -0.15 6.75
11 -3 -8 2.33 6.45
-11 3 8 2.9 7.99
11 3 -8 -3.69 5.45
10 -3 -8 107.36 18.54
-10 3 8 71.96 16.36
10 3 -8 90.01 18.55
9 -3 -8 -3.5 4.29
-9 3 8 1.48 5.63
9 3 -8 -1.34 5.22
8 -3 -8 40.4 11.85
8 3 -8 37.99 10.85
-8 3 8 62.27 12.88
7 -3 -8 114.52 17.67
-7 3 8 98.61 15.32
7 3 -8 110.39 16.67
6 -3 -8 33.42 9.99
6 3 -8 21.56 6.5
-6 3 8 26.03 8.08
6 3 -8 18.14 7.21
5 -3 -8 380.52 26.89
5 3 -8 344.73 23.27
5 3 -8 343.87 25.31
4 -3 -8 77.26 12.59
4 3 -8 77.11 11.22
4 3 -8 56.84 10.84
3 -3 -8 123.07 15.17
3 3 -8 84.13 13.15
3 3 -8 86.84 12.25
2 -3 -8 541.14 29.97
2 3 -8 522.1 30.39
2 3 -8 480.32 30.77
1 -3 -8 -0.03 2.85
1 3 -8 4.38 3.96
1 3 -8 2.27 3.91
0 -3 -8 6.95 3.95
0 3 -8 14.16 5.94
0 3 -8 14.92 5.88
-1 -3 -8 248.77 16.55
-1 -3 -8 257.55 20.06
-1 3 -8 245.04 19.69
-2 -3 -8 76.13 12.44
-2 3 -8 107.84 14.84
-3 -3 -8 36.07 9.26
-3 3 -8 30.67 8.63
-4 -3 -8 50.34 11.85
-4 3 -8 68.02 12.83
-5 -3 -8 186.19 22.62
-5 3 -8 133.16 18.72
-6 -3 -8 49.06 12.8
6 -3 8 49.45 12.51
-6 3 -8 67.49 14.29
7 -3 8 4.62 7.03
-7 -3 -8 7.86 7.47
-7 3 -8 -3.66 5.39
8 -3 8 135.26 21.59
-8 -3 -8 147.58 23.98
8 -3 8 105.5 20.72
-8 3 -8 123.13 20.74
9 -4 -8 77.51 17.96
9 4 -8 66.1 15.91
-9 4 8 93.33 18.18
8 -4 -8 245.25 29.55
-8 4 8 321.02 31.97
8 4 -8 237.02 27.42
7 -4 -8 225.55 27.47
-7 4 8 263.76 28.35
7 4 -8 278.39 28.82
6 -4 -8 95.93 17.37
6 4 -8 153.72 20.54
5 -4 -8 267.66 28.12
5 4 -8 298.67 22.73
5 4 -8 271.48 23.66
4 -4 -8 466.15 32.26
4 4 -8 511.77 31.6
4 4 -8 462.39 32.61
3 -4 -8 598.26 35.76
3 4 -8 560.39 36.59
3 4 -8 608.75 35.82
2 -4 -8 110.28 14.4
2 4 -8 79.33 14.26
2 4 -8 98.67 14.64
1 -4 -8 290.77 20.38
1 4 -8 250.55 21.93
1 4 -8 261.92 25.28
0 -4 -8 715.27 36.13
0 4 -8 669.92 39.91
0 4 -8 628.43 39
-1 -4 -8 41.07 10.06
-1 4 -8 60.08 12.04
-2 -4 -8 74.09 13.88
-2 4 -8 79.4 14.12
-3 -4 -8 409.73 30.87
-3 4 -8 433.16 31.8
-4 -4 -8 394.54 29.81
-4 4 -8 310.99 31.86
-5 -4 -8 57.45 13.73
-5 4 -8 45.57 12.73
-6 -4 -8 147.14 21.98
6 -4 8 74.3 15.89
-6 4 -8 113.46 19.26
7 -4 8 426.99 34.27
-7 -4 -8 329.44 35.89
7 -4 8 338.75 36.98
-7 4 -8 327.04 35.85
7 -5 -8 40.17 13.58
7 5 -8 57.68 14.13
6 -5 -8 234.28 29.09
6 5 -8 283.47 30.56
5 -5 -8 197.05 25.53
5 5 -8 139.76 21.42
4 -5 -8 0.43 5.83
4 5 -8 -3.92 4.59
3 -5 -8 264.25 26.61
3 5 -8 225.92 25.29
3 5 -8 233.58 26.48
2 -5 -8 773.44 41.69
2 5 -8 679.03 42.65
2 5 -8 633.06 42.3
1 5 -8 165.1 22
1 5 -8 137.15 19.81
0 -5 -8 2.24 5.9
0 5 -8 1.22 6.12
-1 -5 -8 614.57 40.84
-1 5 -8 551.26 39.4
-2 -5 -8 347.86 29.73
-2 5 -8 382.6 36.89
-3 -5 -8 40.92 12.84
-3 5 -8 49.87 14.29
-4 -5 -8 67.33 15.75
-4 5 -8 62.9 16.19
-12 0 9 -3.29 6.61
12 0 -9 -6.22 6.24
11 0 -9 6.69 7.3
11 0 -9 -2.43 4.47
-11 0 9 0.37 5.89
10 0 -9 0.46 4.66
-10 0 9 -2.33 5.05
10 0 -9 -1.31 5.14
9 0 -9 1.62 4.33
9 0 -9 -2.54 3.61
-9 0 9 -1.78 3.83
-8 0 9 0 3.51
8 0 -9 1.64 4.17
8 0 -9 -2.67 3.39
7 0 -9 -0.49 2.85
7 0 -9 0.01 3.46
-7 0 9 1.92 3.63
6 0 -9 5.91 4.11
6 0 -9 -2.03 2.96
-6 0 9 1.82 2.65
5 0 -9 -0.57 2.59
-5 0 9 -1.03 2.01
5 0 -9 -0.52 2.47
-4 0 9 0.6 1.85
4 0 -9 1.38 2.44
4 0 -9 2.14 2.8
3 0 -9 -3.19 1.86
3 0 -9 -0.12 1.99
2 0 -9 -0.01 2.22
2 0 -9 5.52 3.14
1 0 -9 4.58 1.93
1 0 -9 0.13 2.26
1 0 -9 -2.03 2.03
0 0 -9 0.54 1.55
0 0 -9 1.65 2.85
-1 0 -9 0.63 2.47
-1 0 -9 -0.79 1.81
-2 0 -9 0.95 2.43
-2 0 -9 1.9 2.94
-3 0 -9 -0.11 3.23
-3 0 -9 -2.39 2.33
3 0 9 -2.47 2.26
4 0 9 -1.33 3.39
-4 0 -9 -2.54 2.67
-4 0 -9 3.49 3.82
-5 0 -9 6.3 5.3
5 0 9 -2.08 3.83
-5 0 -9 7.09 4.44
6 0 9 6.72 5.75
-6 0 -9 0.93 4.05
-6 0 -9 -1.06 3.51
-7 0 -9 1.43 5.23
7 0 9 -2.49 5.06
-8 0 -9 1.89 5.36
8 0 9 12.04 8.95
-9 0 -9 2.19 5.21
9 0 9 6.38 8.09
12 -1 -9 138.54 22.65
12 -1 -9 159.79 22.01
-12 -1 9 155.03 22.03
12 1 -9 148.45 23.84
-12 1 9 131.46 21.74
11 -1 -9 56.12 12.96
11 -1 -9 75.19 15.54
-11 -1 9 75.14 14.97
11 1 -9 47.98 13.34
-11 1 9 73.97 15.85
10 -1 -9 11.59 6.9
10 -1 -9 11.02 6.56
-10 -1 9 12.35 7.17
10 1 -9 4.41 6.12
-10 1 9 5.58 6.38
10 1 -9 9.05 6.38
9 -1 -9 318.54 23.14
9 -1 -9 270.73 27.77
-9 -1 9 281.1 22.58
9 1 -9 344.34 26.18
-9 1 9 293.6 23.82
9 1 -9 278.57 22.09
8 -1 -9 1280.02 65.25
-8 -1 9 1208.49 60.49
8 -1 -9 1348.08 60.85
-8 1 9 1307.2 62.35
8 1 -9 1369.68 62.74
8 1 -9 1309.62 63.95
7 -1 -9 76.58 10.72
-7 -1 9 78.12 11.09
7 -1 -9 67.9 12.55
7 1 -9 65.47 10.97
-7 1 9 97.31 13.21
7 1 -9 80.61 12.74
6 -1 -9 476.92 28.72
6 -1 -9 398.99 22.71
-6 -1 9 430.7 22.84
-6 1 9 394.31 23.89
6 1 -9 393.02 25.69
6 1 -9 395.72 25.15
5 -1 -9 1764.79 75.44
-5 -1 9 1937.02 74.37
5 1 -9 1763.84 79.58
5 1 -9 1877.63 80.24
-5 1 9 1810.85 77.2
4 -1 -9 521.8 30.11
4 -1 -9 525.28 25.64
-4 -1 9 522.55 22.8
-4 1 9 559.14 27.53
4 1 -9 504.51 29.02
4 1 -9 540.14 29.86
3 -1 -9 1.63 2.18
3 -1 -9 -2.54 2.26
3 1 -9 -1.96 2.11
3 1 -9 0.37 2.22
2 -1 -9 764.37 38.35
2 -1 -9 786.02 34.7
2 1 -9 799.38 39
1 -1 -9 1073.98 48.35
1 1 -9 1060.27 49.44
1 1 -9 1022.42 49.24
0 -1 -9 8.2 3.66
0 -1 -9 15.79 4.23
0 1 -9 5.61 3.85
-1 -1 -9 52.32 7.71
-1 -1 -9 58.37 8.29
-1 1 -9 61.98 6.12
-1 1 -9 61.03 9.49
1 1 9 58.78 8.51
-2 -1 -9 640.09 31.44
-2 -1 -9 636.46 32.7
2 1 9 641.11 32.95
-2 1 -9 609.03 33.56
-3 -1 -9 574.55 28.89
-3 -1 -9 560.97 31.33
-3 1 -9 592.1 30.07
-3 1 -9 548.34 31.47
3 1 9 548.14 31.78
-4 -1 -9 8 3.69
-4 -1 -9 1.15 3.47
4 -1 9 2.5 4.13
-4 1 -9 1.87 3.64
4 1 9 -1.23 3.92
-4 1 -9 2.87 3.89
-5 -1 -9 208.16 23.05
5 -1 9 231.43 24.39
-5 1 -9 236.82 18.57
5 1 9 257.14 26.2
-5 1 -9 206.46 21.66
6 -1 9 503.32 35.48
-6 -1 -9 554.32 36.31
-6 1 -9 530.63 31.44
-6 1 -9 492.26 32.72
6 1 9 490.5 36.03
7 -1 9 158.45 23.31
-7 -1 -9 171.41 24.02
7 1 9 153.15 22.65
-7 1 -9 180.35 19.79
-7 1 -9 112.97 17.78
8 -1 9 25.45 10.82
-8 -1 -9 19.08 9.38
8 1 9 21.76 10.31
-8 1 -9 14.15 7.85
9 -1 9 169.23 27.23
-9 -1 -9 156.07 24.26
-9 1 -9 153.98 22.66
9 1 9 157.11 24.09
12 -2 -9 128.24 21.14
12 2 -9 149.24 25.15
-12 2 9 133.36 22.92
11 -2 -9 467.84 36.27
-11 2 9 537.34 39.47
11 2 -9 545.19 40.03
10 -2 -9 250.99 28.68
10 2 -9 300.33 31.75
-10 2 9 290.58 31.2
9 -2 -9 29.55 9.9
9 2 -9 3.41 5.51
-9 2 9 7.35 6.86
8 -2 -9 418.77 30.68
-8 2 9 388.83 27.58
8 2 -9 404.64 26.51
8 2 -9 398.62 29.12
7 -2 -9 1372.65 69.84
7 2 -9 1390.47 68.8
7 2 -9 1556.54 66.78
-7 2 9 1368.05 66.53
6 -2 -9 159.96 19.77
6 2 -9 189.52 18.45
6 2 -9 165.8 19.24
-6 2 9 177.66 18.39
5 -2 -9 285.54 22.26
-5 2 9 313.31 21
5 2 -9 333.8 21.29
5 2 -9 247.97 20.79
4 -2 -9 1115.88 53.77
4 2 -9 1074.07 53.42
4 2 -9 1079.6 52.08
3 -2 -9 1592.66 72.58
3 2 -9 1625.05 72.34
3 2 -9 1655.22 74.05
2 -2 -9 758.23 38.85
2 2 -9 765.53 40.37
2 2 -9 795.24 40.08
1 -2 -9 195.46 14.79
1 2 -9 193.97 19.17
0 -2 -9 2264.06 93.46
0 -2 -9 2120.65 91.14
0 2 9 2272.66 89.25
0 2 -9 2117.75 94.58
-1 -2 -9 1926.77 83.19
-1 -2 -9 1931.86 80.29
-1 2 -9 1863.65 83.93
1 2 9 1934.72 81.39
-2 -2 -9 1190.79 52
-2 -2 -9 1184.04 56.17
-2 2 -9 1141.31 57
2 2 9 1191.19 55.6
-3 -2 -9 249.71 16.02
-3 -2 -9 288.82 21.5
3 2 9 281.4 21.29
-3 2 -9 307.18 21.86
-4 -2 -9 1470.73 69.12
-4 2 -9 1420.54 68.28
4 2 9 1425.03 68.63
-5 -2 -9 1130.49 57.74
5 -2 9 1124.21 58.96
5 2 9 1109.79 56.72
-5 2 -9 994.14 54.37
6 -2 9 30.81 10.98
-6 -2 -9 20.99 8.59
-6 2 -9 17.68 8.29
6 2 9 35.83 9.99
-6 2 -9 29.79 8.77
-7 -2 -9 75.84 16.05
7 -2 9 62.54 14.71
7 2 9 57.36 13.15
-7 2 -9 55.19 12.97
-8 -2 -9 703.53 48.32
8 -2 9 709.59 48.87
8 2 9 610.6 43.15
-8 2 -9 731.7 44.34
9 -2 9 340.19 39.34
-9 -2 -9 303.74 38.22
9 2 9 345.97 36.55
11 -3 -9 3.07 6.96
-11 3 9 -1.54 6.44
11 3 -9 1.18 6.61
10 -3 -9 39.99 12.71
-10 3 9 50.24 13.4
10 3 -9 53.3 14.1
9 -3 -9 470.02 35.94
9 3 -9 520.82 37.8
-9 3 9 534.94 36.49
8 -3 -9 485.45 36.48
8 3 -9 582.01 38.13
-8 3 9 565.92 36.49
7 -3 -9 144.3 20.21
7 3 -9 142.56 17.22
7 3 -9 151.49 19.51
-7 3 9 161.24 20.22
6 -3 -9 488.38 33.94
6 3 -9 529.83 31.31
-6 3 9 513.64 32.88
6 3 -9 504.54 33.57
5 -3 -9 609.83 38.07
5 3 -9 649.2 35.91
5 3 -9 612.44 37.62
4 -3 -9 847.55 46.86
4 3 -9 976.35 46.99
4 3 -9 841.7 47.36
3 -3 -9 305.78 22.41
3 3 -9 336.6 24.35
3 3 -9 297.47 22.09
2 -3 -9 619.43 34.76
2 3 -9 614.12 36.91
2 3 -9 671.05 36.37
1 -3 -9 1306.04 59.94
1 3 -9 1241.97 63.04
1 3 -9 1379.59 63.4
0 -3 -9 587.5 34.38
0 -3 -9 592.87 31.15
0 3 -9 570.2 34.67
0 3 -9 558.58 34.45
-1 -3 -9 273.08 21.28
-1 -3 -9 295.56 18.39
-1 3 -9 233.26 23.82
-2 -3 -9 773.18 43.01
-2 3 -9 767.42 43.16
-3 -3 -9 1306.55 64.34
-3 3 -9 1246.85 63.44
-4 -3 -9 1.86 5.27
-4 3 -9 3.01 5.35
-5 -3 -9 545.89 36.1
-5 3 -9 468.12 33.95
6 -3 9 517.35 37.11
-6 -3 -9 507.87 36.05
-6 3 -9 412.61 33.38
-7 -3 -9 343.08 35.46
7 -3 9 292.8 32.78
-7 3 -9 324.61 33.04
8 -3 9 15.25 9.42
8 -3 9 5.11 7.92
-8 -3 -9 19.86 10.87
-8 3 -9 -1.28 8.44
9 -4 -9 -1.23 6.16
9 4 -9 -4.69 6.47
-9 4 9 3.17 7.17
8 -4 -9 57.16 14.99
8 4 -9 79.31 16.17
-8 4 9 72.5 15.62
7 -4 -9 164.83 23.62
7 4 -9 231.44 26.96
6 -4 -9 36.29 11.17
6 4 -9 20.33 8.54
5 -4 -9 229.52 25.48
5 4 -9 198.78 22.07
5 4 -9 197.95 23.69
4 -4 -9 12.51 7.3
4 4 -9 18.81 7.43
4 4 -9 26.29 8.66
3 -4 -9 165.11 19.74
3 4 -9 171.95 20.98
3 4 -9 171.99 20.59
2 -4 -9 47.42 9.98
2 4 -9 41.71 9.85
2 4 -9 34.15 9.76
1 -4 -9 4 4.03
1 4 -9 8.83 6.03
1 4 -9 11.61 6.32
0 -4 -9 169.67 19.72
0 -4 -9 168.71 20.93
0 4 -9 166.48 20.59
0 4 -9 156.9 20.22
-1 -4 -9 205.95 23.19
-1 4 -9 242.21 25.33
-2 -4 -9 102.08 16.49
-2 4 -9 113.51 17.45
-3 -4 -9 -3.43 4.66
-3 4 -9 -1.42 4.82
-4 -4 -9 346.22 28.84
-4 4 -9 346.77 33.99
-5 -4 -9 38.22 11.53
-5 4 -9 40.47 11.92
-6 -4 -9 22.53 9.86
6 -4 9 20.35 9.62
-6 4 -9 23.38 11
6 -5 -9 25.29 11.34
6 5 -9 16.33 9.23
5 -5 -9 -0.35 5.76
5 5 -9 -3.64 4.7
4 -5 -9 0.19 5.89
4 5 -9 0.39 5.6
3 -5 -9 -1.42 4.94
3 5 -9 2.43 6.16
3 5 -9 -1.13 5.47
2 -5 -9 13.76 7.73
2 5 -9 16.18 8.47
2 5 -9 13.92 8.57
1 5 -9 8.63 6.71
1 5 -9 -0.55 4.94
0 -5 -9 16.61 9.9
0 5 -9 -5.13 4.71
-1 -5 -9 27.83 10.53
-1 5 -9 17.26 9.38
-2 -5 -9 5.54 6.67
-2 5 -9 2.29 6.55
-3 -5 -9 2.76 6.96
-3 5 -9 -5.25 5.38
12 0 -10 70.41 15.69
-12 0 10 70.28 16.06
11 0 -10 400.14 31.23
-11 0 10 366.61 29.36
11 0 -10 401.01 30.33
-10 0 10 88.58 15.34
10 0 -10 70.57 13.71
10 0 -10 100.67 16.4
-9 0 10 683.15 38
9 0 -10 579.47 38.03
9 0 -10 661.26 38.66
8 0 -10 4.25 5.19
8 0 -10 3.18 4.47
-8 0 10 7.19 5.03
-7 0 10 213.11 15.97
7 0 -10 215.38 21.8
7 0 -10 215.17 17.05
6 0 -10 2285.6 99.19
-6 0 10 2383.95 96.56
6 0 -10 2431.78 102.84
-5 0 10 862.14 38.27
5 0 -10 846.18 41.59
5 0 -10 866.94 44.12
4 0 -10 15.7 4.77
-4 0 10 20.88 4
2 0 -10 3592.36 135.99
2 0 -10 3532.27 143.88
2 0 -10 3525.44 142.06
1 0 -10 420.39 19.02
1 0 -10 409.67 24.45
0 0 -10 33.74 5.12
0 0 -10 38.7 7.55
-2 0 -10 1250.65 56.96
-2 0 -10 1288.46 58.11
3 0 10 440.06 27.88
-3 0 -10 427.09 26.65
4 0 10 798.11 44.15
-4 0 -10 792.4 40.5
-4 0 -10 838.7 43.81
5 0 10 1708.82 82.31
-5 0 -10 1727.35 80.43
-5 0 -10 1754.29 76.64
6 0 10 600.72 39.81
-6 0 -10 605.84 37.92
-7 0 -10 1.78 5.51
7 0 10 0.4 6.23
-8 0 -10 315.13 32.2
8 0 10 274.01 34.27
-9 0 -10 1125.17 64.11
9 0 10 1218.87 72.2
12 -1 -10 295.42 32.19
12 1 -10 332.17 36.01
-12 1 10 350.39 36.26
11 -1 -10 384.69 30.54
11 1 -10 360.36 31.18
-11 1 10 415.3 31.84
10 -1 -10 52.64 12.87
10 -1 -10 97.56 15.46
10 1 -10 50.44 12.43
10 1 -10 44.46 11.11
-10 1 10 70.31 13.99
9 -1 -10 95.35 16.54
9 -1 -10 52.87 10.68
9 1 -10 71.63 13.38
9 1 -10 65.99 12.49
-9 1 10 68.53 12.56
8 -1 -10 1232.09 63.53
8 -1 -10 1215.55 57.76
8 1 -10 1292.4 62.35
8 1 -10 1273.04 61.3
-8 1 10 1208.77 59.8
7 -1 -10 1490.91 68.67
7 -1 -10 1333.03 61.06
-7 1 10 1345.67 62.76
7 1 -10 1406.08 65.38
7 1 -10 1336.51 65.36
6 -1 -10 3.99 3.41
6 -1 -10 6.59 4.77
6 1 -10 12.32 5.17
6 1 -10 4.92 3.92
-6 1 10 1.36 3.18
5 -1 -10 1573.33 64.21
5 -1 -10 1255.69 67.75
5 1 -10 1487.92 68.36
5 1 -10 1573.59 69.13
-5 1 10 1576.97 65.35
4 -1 -10 1896.36 85.91
4 -1 -10 1949.62 80.52
4 1 -10 1982.42 85.64
4 1 -10 2048.39 85.92
3 -1 -10 606.18 33.68
3 -1 -10 640.76 29.84
3 1 -10 633.19 34.1
2 -1 -10 112.07 12.73
2 1 -10 102.47 12.73
1 -1 -10 2723.75 113.99
1 -1 -10 2866.07 111.42
1 1 -10 2792.81 115.26
1 1 -10 2696.07 115.29
0 -1 -10 1733.02 72.11
0 -1 -10 1701.19 74.02
0 1 -10 1698.98 75.66
-1 -1 -10 643.2 32.01
-1 -1 -10 617.8 32.26
1 1 10 612.87 32
-1 1 -10 636.39 34.38
-2 -1 -10 301.37 19.37
-2 -1 -10 295.57 18.6
-2 1 -10 266.86 20.04
2 1 10 281.81 19.48
-3 -1 -10 1439.97 65.15
-3 -1 -10 1395.29 62.12
3 1 10 1421.41 66.03
-3 1 -10 1411.24 65.48
-4 -1 -10 1824.62 77.78
-4 -1 -10 1785.91 82.47
4 -1 10 1869.36 85.58
-4 1 -10 1806.62 81.98
4 1 10 1865.22 84.21
5 -1 10 3.34 5.78
-5 -1 -10 3.72 5.27
-5 1 -10 -4 3.8
5 1 10 1.12 4.59
-5 1 -10 9.18 6.74
6 -1 10 166.46 22.14
-6 -1 -10 155.81 22.6
-6 1 -10 147.18 17.49
6 1 10 153.08 22.06
-6 1 -10 195.23 22.18
7 -1 10 403.83 32.83
-7 -1 -10 357.37 30.68
7 1 10 369.62 37.37
-7 1 -10 379.85 27.33
-7 1 -10 380.44 30.18
-8 -1 -10 215.9 28.89
8 -1 10 204.99 28.81
8 1 10 287.9 33.19
-9 -1 -10 48.14 14.48
9 -1 10 24.23 13.61
9 1 10 22.02 10.82
11 -2 -10 5.48 6.93
11 2 -10 10.92 9.38
-11 2 10 14.35 9.13
10 -2 -10 45.42 13.46
10 2 -10 53.18 13.76
-10 2 10 57.07 13.58
9 -2 -10 16.59 8.52
9 2 -10 15.86 7.68
9 2 -10 7.56 6.04
-9 2 10 18.02 7.29
8 -2 -10 -1.85 4.01
8 2 -10 -3.87 3.34
-8 2 10 -0.43 4.28
8 2 -10 -3.02 4.28
7 -2 -10 139.11 18.87
7 2 -10 159.46 17.99
-7 2 10 115.58 15.36
7 2 -10 136.83 17.64
6 -2 -10 122.54 17.41
6 2 -10 82.96 12.77
-6 2 10 104.96 14.17
6 2 -10 126.06 16.74
5 -2 -10 38.26 10.06
5 2 -10 47.9 9.4
5 2 -10 32.3 8.73
4 -2 -10 25.71 7.54
4 2 -10 24.24 6.85
4 2 -10 7.92 5.03
3 -2 -10 -3.08 2.44
3 2 -10 3.8 4.7
3 2 -10 -0.01 3.06
2 -2 -10 -5 1.71
2 2 -10 -1.71 2.82
2 2 -10 0.44 3.31
1 -2 -10 51.93 9.11
1 2 -10 39.89 8.7
1 2 -10 52.57 9.93
0 -2 -10 107.6 12.3
0 -2 -10 119.26 14.03
0 2 -10 125.24 15.34
0 2 -10 128.1 15.6
-1 -2 -10 6.92 3.71
-1 -2 -10 5.44 4.3
-1 2 -10 3.29 4.57
-2 -2 -10 111.2 12.05
-2 -2 -10 111.96 14.37
-2 2 -10 102.4 14.59
2 2 10 131.23 15.61
-3 -2 -10 327.05 23.41
-3 2 -10 284.18 23.03
3 2 10 337.26 24.47
-4 -2 -10 138.67 18.24
-4 2 -10 144.03 17.83
4 2 10 148.26 18.76
5 -2 10 137.14 20.03
-5 -2 -10 135.51 18.74
-5 2 -10 129.7 17.21
5 2 10 150.01 19.84
6 -2 10 33.88 11.07
-6 -2 -10 61.3 14.51
6 2 10 42.08 11.06
-6 2 -10 53.46 11.84
-7 -2 -10 0.61 5.79
7 -2 10 -1.26 6.05
-7 2 -10 -0.86 5.43
7 2 10 -0.56 5.22
8 -2 10 4.2 7.51
-8 -2 -10 4.49 8.61
8 2 10 9.88 7.77
-8 2 -10 9.16 8.39
10 -3 -10 10.96 8.85
10 3 -10 8.64 7.56
-10 3 10 4.28 6.56
9 -3 -10 20.31 10.29
9 3 -10 56.48 13.92
-9 3 10 14.65 8.31
8 -3 -10 39.99 12.13
-8 3 10 43.2 11.5
8 3 -10 45.7 12.04
7 -3 -10 40.11 11.43
-7 3 10 51.33 11.35
7 3 -10 66.67 12.03
7 3 -10 42.07 10.88
6 -3 -10 24.72 8.52
6 3 -10 18.44 6.87
6 3 -10 5.97 5.89
5 -3 -10 9.31 6.55
5 3 -10 15.35 6.05
5 3 -10 11.23 5.72
4 -3 -10 331.54 25.14
4 3 -10 337.34 24.29
4 3 -10 341.52 25.88
3 -3 -10 0.08 4.43
3 3 -10 7.24 5.16
3 3 -10 1.86 4.35
2 -3 -10 14.5 6.35
2 3 -10 10.63 5.38
2 3 -10 8.68 5.35
1 -3 -10 452.54 27.71
1 3 -10 504.99 31.88
1 3 -10 452.4 30.11
0 -3 -10 59 11.39
0 -3 -10 60.7 9.76
0 3 -10 60.58 11.98
0 3 -10 69.92 12.75
-1 -3 -10 68.65 12.17
-1 -3 -10 64.46 9.54
-1 3 -10 79.18 13.13
-2 -3 -10 164.13 19.93
-2 3 -10 184.94 21.03
-3 -3 -10 93.37 15.61
-3 3 -10 68.81 13.27
-4 -3 -10 57.01 12.1
-4 3 -10 65.13 13.62
-5 -3 -10 17.25 8.37
-5 3 -10 13.57 7.42
6 -3 10 50.07 14.17
-6 -3 -10 46.51 13.09
-6 3 -10 38.86 12.2
7 -3 10 62.05 15.11
-7 -3 -10 30.82 12.11
-7 3 -10 42.58 13.12
8 -4 -10 1.99 6.51
8 4 -10 6.68 7.37
7 -4 -10 242.09 28.53
7 4 -10 175.75 24.23
6 -4 -10 373.4 30.35
6 4 -10 350.79 28.99
5 -4 -10 15.87 8.19
5 4 -10 13.32 6.96
5 4 -10 30.07 9.51
4 -4 -10 14.19 7.66
4 4 -10 1.01 4.91
4 4 -10 6.01 5.74
3 -4 -10 160.2 20.04
3 4 -10 204.74 24.12
3 4 -10 215.42 23.82
2 -4 -10 176.01 19.84
2 4 -10 192.2 23.15
2 4 -10 207.83 23.19
1 -4 -10 280.44 21.4
1 4 -10 321.75 30.1
1 4 -10 273.33 27.78
0 -4 -10 27.92 9.84
0 4 -10 6.96 6.11
-1 -4 -10 219.33 24.6
-1 4 -10 239.97 26
-2 -4 -10 374.47 29.21
-2 4 -10 350.6 28.48
-3 -4 -10 85.1 16.09
-3 4 -10 105.92 18.19
-4 -4 -10 163.46 23.21
-4 4 -10 238.55 27.9
-5 -4 -10 392.38 32.47
-5 4 -10 340.91 36.39
5 -5 -10 203.72 26.6
5 5 -10 189.18 25.79
4 -5 -10 400.59 31.71
4 5 -10 425.76 34.04
4 5 -10 435.51 45.82
3 -5 -10 133.47 18.8
3 5 -10 114.22 19.6
3 5 -10 132.49 20.3
2 5 -10 38.83 11.49
2 5 -10 45.68 12.81
1 5 -10 529.87 36.36
1 5 -10 424.36 34.05
0 -5 -10 506.55 36.71
0 5 -10 454.35 35.14
-1 -5 -10 7.75 8.04
-1 5 -10 2.95 7.36
-2 -5 -10 34.75 11.8
-2 5 -10 24.66 10.84
12 0 -11 -4.98 6.35
12 0 -11 -2.23 7.13
11 0 -11 8.6 6.93
11 0 -11 2.84 7.11
10 0 -11 2.32 5.46
10 0 -11 -0.95 5.46
9 0 -11 1.62 4.75
9 0 -11 0.05 4.96
8 0 -11 2.4 5.17
8 0 -11 1.64 4.2
7 0 -11 0.99 3.59
7 0 -11 -1.39 3.19
6 0 -11 -2.86 3
6 0 -11 -1.11 3.4
5 0 -11 -0.93 2.35
5 0 -11 -0.28 2.91
4 0 -11 1.24 3.09
4 0 -11 0.77 2.7
3 0 -11 -1.71 2.45
3 0 -11 -0.8 2.48
2 0 -11 2.32 3.11
2 0 -11 3.19 3.2
1 0 -11 0.46 2.64
0 0 -11 0.89 2.86
-1 0 -11 3.47 3.57
-2 0 -11 7.43 4.47
-3 0 -11 0.1 4.17
-3 0 -11 -1.8 2.95
3 0 11 -0.54 3.49
-4 0 -11 -1.74 3.16
-4 0 -11 1.69 4.34
4 0 11 2.23 4.17
5 0 11 -2.45 3.66
-5 0 -11 -4.71 4.19
-5 0 -11 3.67 3.98
-6 0 -11 -2.48 4.72
6 0 11 3.42 6.1
7 0 11 2.29 6.73
-7 0 -11 4.15 5.8
-8 0 -11 6.07 9.02
8 0 11 8.17 9.4
12 -1 -11 3.27 7.28
-12 1 11 20.57 9.95
12 1 -11 15.76 10.09
11 -1 -11 128.96 21.18
11 1 -11 117.07 20.31
-11 1 11 177.68 23.62
10 -1 -11 132.04 20.59
10 1 -11 135.87 19.75
-10 1 11 135.89 18.96
10 1 -11 80 14.7
9 -1 -11 21.22 8.93
9 1 -11 14.43 7.33
9 1 -11 14.35 6.98
-9 1 11 16.6 7.18
8 -1 -11 248.01 18.82
8 -1 -11 302.64 29.25
8 1 -11 267.25 22.21
-8 1 11 257.77 20.28
8 1 -11 279.24 26.57
7 -1 -11 222.05 16.73
7 -1 -11 273.52 27.01
-7 1 11 238.04 17.79
7 1 -11 204.95 21.64
7 1 -11 270.63 25.23
6 -1 -11 257.62 24.99
6 -1 -11 257.62 17.03
6 1 -11 242.67 19.84
6 1 -11 231.6 19.23
-6 1 11 258.24 17.69
5 -1 -11 3.48 3.22
5 -1 -11 -1.5 2.77
5 1 -11 -2.01 2.75
5 1 -11 5.17 4.38
4 -1 -11 679.88 37.01
4 -1 -11 655.65 31.61
4 1 -11 656.88 36.28
4 1 -11 622.95 35.66
3 -1 -11 873.69 45.76
3 -1 -11 946.69 41.6
3 1 -11 939.75 46.51
3 1 -11 912.2 46.05
2 -1 -11 543.94 30.75
2 1 -11 545.8 31.46
1 -1 -11 409 22
1 -1 -11 406.32 24.58
1 1 -11 410.02 25.65
1 1 -11 362.49 24.72
0 -1 -11 492.62 28.45
0 -1 -11 532.62 26.78
0 1 -11 460.85 29.17
-1 -1 -11 1914.23 80.46
-1 -1 -11 1854.79 81.6
-1 1 -11 1960.24 84.52
1 1 11 1861.99 81.17
-2 -1 -11 13.04 4.86
-2 -1 -11 20.17 5.75
-2 1 -11 15.86 5.93
2 1 11 25.29 6.56
-3 -1 -11 141.37 15.05
-3 -1 -11 176.48 18.37
3 1 11 153.27 18.38
-3 1 -11 153.8 17.47
-4 -1 -11 897.64 44.08
-4 -1 -11 875.79 47.57
4 -1 11 911.12 50.47
-4 1 -11 930.08 47.94
4 1 11 899.53 48.97
5 -1 11 89.18 15.98
-5 -1 -11 91.9 15.91
-5 1 -11 101.58 14.73
5 1 11 64.96 13.9
-6 -1 -11 2.1 6.57
6 -1 11 -0.55 5.64
6 1 11 8.16 7.1
-6 1 -11 1.91 5.11
7 -1 11 178.16 25.58
-7 -1 -11 166.73 24.23
7 1 11 216.55 28.58
8 -1 11 229.46 30.56
-8 -1 -11 224.64 28.89
8 1 11 212.48 29.6
11 -2 -11 -2.44 5.63
11 2 -11 -4.93 6.12
-11 2 11 -1.14 6.42
10 -2 -11 75.59 16.46
10 2 -11 92.03 17.66
-10 2 11 83.32 15.08
9 -2 -11 844.54 52.61
-9 2 11 861 49.04
9 2 -11 874.48 51.59
9 2 -11 958.64 49.71
8 -2 -11 446.91 33.46
8 2 -11 438.75 29.53
8 2 -11 462.87 31.83
-8 2 11 415.72 28.93
7 -2 -11 94.62 16.29
7 2 -11 61.44 12.32
7 2 -11 83.34 13.24
-7 2 11 49.85 10.07
6 -2 -11 331.84 25.92
6 2 -11 295.79 22.79
6 2 -11 326.68 25.15
-6 2 11 343.44 23.6
5 -2 -11 1095.84 55.51
5 2 -11 1069.31 54.8
5 2 -11 1039.63 53.31
4 -2 -11 1155.66 58.9
4 2 -11 1237.21 58.95
4 2 -11 1213.91 59.93
3 -2 -11 13.59 6.15
3 2 -11 12.66 5.98
3 2 -11 8.35 4.66
2 -2 -11 561.76 32.51
2 2 -11 590.63 34.96
2 2 -11 585.16 34.15
1 -2 -11 1119.72 54
1 -2 -11 1139.69 53.92
1 2 -11 1141.59 56.88
1 2 -11 1185.7 56.95
0 -2 -11 529.07 29.64
0 -2 -11 487.72 28.42
0 2 -11 475.85 30.78
-1 -2 -11 20.65 5.76
-1 -2 -11 7.15 4.93
-1 2 -11 17.28 7.39
-2 -2 -11 1553.95 68.88
-2 -2 -11 1577.26 72.82
-2 2 -11 1602.85 75.04
-3 -2 -11 1316.86 66.17
-3 2 -11 1474.19 68.93
-4 -2 -11 142.87 19.07
-4 2 -11 147.45 19.03
5 -2 11 255.28 28.56
-5 -2 -11 278.22 28.38
5 2 11 295.13 36.09
-5 2 -11 239.37 25.14
-6 -2 -11 1028.58 60.41
6 -2 11 1125.5 62.72
-6 2 -11 1166.76 59.82
6 2 11 1075.61 64.8
7 -2 11 411.33 35.2
-7 -2 -11 410.73 41.17
7 2 11 399.76 42.1
-7 2 -11 472.73 34.12
10 -3 -11 279.48 32.91
-10 3 11 288.45 32.1
10 3 -11 343.78 35.59
9 -3 -11 68.84 16.4
-9 3 11 42.52 12.08
9 3 -11 35.24 11.75
8 -3 -11 276.33 31.96
8 3 -11 301.26 30.81
-8 3 11 309.57 25.87
7 -3 -11 997.42 57.84
7 3 -11 1028.54 56.78
7 3 -11 1015.51 53.72
6 -3 -11 317.86 31.45
6 3 -11 323.79 25.88
6 3 -11 247.72 25.3
5 -3 -11 37.1 10.34
5 3 -11 36.28 9.11
5 3 -11 28.94 9.16
4 -3 -11 1945.47 90.77
4 3 -11 2023.11 92.79
4 3 -11 1985.64 90.28
3 -3 -11 1164.31 57.78
3 3 -11 1157.66 58.99
3 3 -11 1167.13 60.4
2 -3 -11 5.3 4.67
2 3 -11 15.63 6.86
2 3 -11 13.27 6.8
1 -3 -11 384.37 25.23
1 3 -11 376.97 27.91
1 3 -11 402.59 27.81
0 -3 -11 541.2 30.48
0 -3 -11 517.08 32.73
0 3 -11 499.07 33.55
-1 -3 -11 625.74 37.6
-1 3 -11 618.58 38.57
-2 -3 -11 109.47 16.38
-2 3 -11 118.32 17.6
-3 -3 -11 134.66 19.13
-3 3 -11 140.99 19.52
-4 -3 -11 513.29 36.05
-4 3 -11 571.46 37.57
-5 -3 -11 369.27 30.85
-5 3 -11 428.63 32.1
6 -3 11 37.14 12.41
-6 -3 -11 17.89 8.71
-6 3 -11 7.89 8.58
8 -4 -11 119.73 21.5
8 4 -11 124.7 21.51
7 -4 -11 -3.07 6.05
7 4 -11 9.46 7.88
6 -4 -11 1.37 6.95
6 4 -11 2.97 4.57
6 4 -11 7.73 7.21
5 -4 -11 179.82 23.09
5 4 -11 160.74 20.76
5 4 -11 145.29 21.27
4 -4 -11 150.2 20.28
4 4 -11 133.43 19.03
4 4 -11 115.74 18.52
3 -4 -11 -3.42 3.78
3 4 -11 -1.8 4.99
3 4 -11 3.97 6.79
2 -4 -11 30.74 9.21
2 4 -11 33.63 10.5
2 4 -11 59.64 12.75
1 -4 -11 83.91 12.96
1 4 -11 57.43 12.38
1 4 -11 62.05 13.59
0 -4 -11 58.83 12.92
0 4 -11 97.61 16.68
-1 -4 -11 7.46 6.93
-1 4 -11 13.63 7.24
-2 -4 -11 184.08 23.45
-2 4 -11 165.5 22.03
-3 -4 -11 197.28 24.9
-3 4 -11 210.33 26.12
-4 -4 -11 36.3 12.12
-4 4 -11 47.11 13.65
4 -5 -11 0.54 6.45
4 5 -11 3.24 6.27
4 5 -11 -7.26 5.99
3 -5 -11 -1.84 6.37
3 5 -11 18.45 10.23
3 5 -11 9.39 7.14
2 5 -11 1.08 7.25
2 5 -11 2.85 6.87
1 -5 -11 -1.84 6.79
1 5 -11 -5.19 5.4
1 5 -11 6.83 7.46
0 -5 -11 -5.21 4.47
0 5 -11 -1.8 6.64
11 0 -12 153.55 22.62
11 0 -12 201.07 26.09
10 0 -12 29.8 9.92
10 0 -12 46.96 11.99
9 0 -12 331.94 32.11
9 0 -12 285.08 23.55
8 0 -12 649.97 37.83
8 0 -12 707.3 41.97
7 0 -12 332.12 22.94
7 0 -12 342.71 25.88
6 0 -12 4.71 4.44
6 0 -12 4.82 4.38
5 0 -12 537 30.51
5 0 -12 526.13 32.46
4 0 -12 2198.92 97.32
4 0 -12 2262.18 94.97
3 0 -12 1010.55 49.61
3 0 -12 1101.96 52.68
2 0 -12 348.14 22.53
2 0 -12 380.87 24.64
1 0 -12 1614.31 73.16
0 0 -12 2840.4 119.17
-1 0 -12 1634.93 74.1
-2 0 -12 197.83 19.5
3 0 12 2853.26 124.5
-3 0 -12 2925.17 121.84
4 0 12 2055.52 95.53
-4 0 -12 2108.89 91.43
5 0 12 114.18 18.46
-5 0 -12 134.88 16.6
6 0 12 458.95 35.45
7 0 12 1335.65 75.19
11 -1 -12 108.67 20.41
11 1 -12 123.06 20.65
10 -1 -12 476.57 37.25
10 1 -12 555.38 37.16
10 1 -12 618.28 39.59
9 -1 -12 467.62 33.91
-9 1 12 439.65 30.05
9 1 -12 446.66 31.65
9 1 -12 383.91 30.1
8 -1 -12 8.41 6.37
8 1 -12 4.45 4.75
8 1 -12 17.22 7.04
-8 1 12 10.49 5.43
7 -1 -12 521.74 35.31
-7 1 12 521.81 30.42
7 1 -12 561.07 34.74
7 1 -12 553.25 33.78
6 -1 -12 934.76 50.04
-6 1 12 904.98 44.35
6 1 -12 876.03 47.48
6 1 -12 935.02 48.89
5 -1 -12 780.62 37.49
5 -1 -12 772.5 43.02
5 1 -12 751.9 41.97
5 1 -12 767.04 41.95
4 -1 -12 3.88 3.89
4 -1 -12 -2.29 2.44
4 1 -12 -0.8 3.47
4 1 -12 1.81 3.31
3 -1 -12 1336.55 57.4
3 -1 -12 1300.8 62.3
3 1 -12 1325.23 62.88
3 1 -12 1312.13 62.69
2 -1 -12 758.03 39.05
2 1 -12 687.7 38.76
2 1 -12 707.07 39.03
1 -1 -12 4.22 4.04
1 1 -12 3.68 4.17
0 -1 -12 145.4 15.87
0 -1 -12 132.56 15.16
0 1 -12 152.29 17.67
-1 -1 -12 305.78 19.83
-1 -1 -12 284.19 20.32
1 1 12 321.5 20.97
-1 1 -12 278.46 21.79
-2 -1 -12 619.4 33.13
-2 -1 -12 614.49 33.3
2 1 12 597.06 33.9
-2 1 -12 548.61 34.59
-3 -1 -12 -1.85 3.31
-3 -1 -12 -1.97 3.19
3 1 12 -5.89 3.7
-3 1 -12 -3.73 4.11
-4 -1 -12 174.99 20.5
4 -1 12 140.4 19.79
4 1 12 159.4 20.49
-4 1 -12 186.43 20.48
5 -1 12 460.79 34.21
-5 -1 -12 424.91 32.37
5 1 12 477.44 34.57
-5 1 -12 480.25 31.34
-6 -1 -12 378.84 31.42
6 -1 12 410.64 33.35
6 1 12 390.15 39.06
-6 1 -12 400.99 28.52
7 -1 12 13.61 9.9
7 1 12 10.5 9.69
11 -2 -12 8.97 8.94
11 2 -12 -1 6.62
-11 2 12 -3.3 5.97
10 -2 -12 1.31 6.51
10 2 -12 0.63 5.42
-10 2 12 3.09 5.88
9 -2 -12 0.83 5.69
9 2 -12 0.61 4.84
9 2 -12 2.77 6.41
-9 2 12 1.23 5.8
8 -2 -12 20.11 9.04
-8 2 12 29.43 8.72
8 2 -12 17.76 8.59
8 2 -12 42.3 10.28
7 -2 -12 81.85 14.88
-7 2 12 66.2 12.35
7 2 -12 72.92 13.14
7 2 -12 63.74 13.44
6 -2 -12 14.99 7.78
6 2 -12 11.47 5.96
6 2 -12 22.05 8.01
5 -2 -12 1.94 4.06
5 2 -12 -0.84 3.27
5 2 -12 2.85 5.39
4 -2 -12 740.86 42
4 2 -12 739.39 41.83
4 2 -12 755.29 43.07
3 -2 -12 75.99 12.36
3 2 -12 64.65 11.78
3 2 -12 51.73 11.36
2 -2 -12 18.76 6.27
2 2 -12 17.53 7.13
2 2 -12 19.27 6.91
1 -2 -12 462.84 28.03
1 -2 -12 450.93 28.28
1 2 -12 527.69 32.37
1 2 -12 472.95 30.66
0 -2 -12 43.43 8.84
0 -2 -12 40.03 8.74
0 2 -12 28.78 8.48
-1 -2 -12 49.57 10.09
-1 -2 -12 55 9.7
-1 2 -12 41.15 9.76
-2 -2 -12 11.66 5.21
-2 -2 -12 6.08 4.77
-2 2 -12 17.23 7.66
-3 -2 -12 108.14 15.5
-3 2 -12 84.51 14.82
-4 -2 -12 16.75 7.69
-4 2 -12 5.17 5.96
-5 -2 -12 85.94 16.15
5 -2 12 113.83 19.62
-5 2 -12 103.39 16.64
-6 -2 -12 5.68 7.31
6 -2 12 10.19 8.51
-6 2 -12 6.01 6.47
-7 -2 -12 61.7 16.3
7 -2 12 52.8 15.75
-7 2 -12 39.67 11.64
9 -3 -12 106.93 19.77
-9 3 12 66.06 15.01
9 3 -12 80.67 17.08
8 -3 -12 -0.84 6.33
8 3 -12 3.92 5.89
7 -3 -12 23.11 10.21
7 3 -12 31.35 10.74
7 3 -12 37.01 10.65
6 -3 -12 233.92 27.44
6 3 -12 202.08 22.78
6 3 -12 168.72 22.17
5 -3 -12 25.51 9.3
5 3 -12 26.12 8.11
5 3 -12 20.46 8.71
4 -3 -12 0.91 4.92
4 3 -12 -0.18 4.75
4 3 -12 2.34 5.3
3 -3 -12 59.71 12.01
3 3 -12 68.72 13.51
3 3 -12 52.56 11.7
2 -3 -12 149.62 17.56
2 3 -12 144.17 19.27
2 3 -12 133.92 18.14
1 -3 -12 28.71 8.89
1 -3 -12 14.07 6.62
1 3 -12 15.69 7.45
1 3 -12 27.31 9.15
0 -3 -12 3.11 4.18
0 -3 -12 -2.01 4.06
0 3 -12 2.66 5.07
-1 -3 -12 257.14 22.28
-1 3 -12 271.71 27.95
-2 -3 -12 31.23 9.38
-2 3 -12 30.29 9.6
-3 -3 -12 9.31 6.35
-3 3 -12 8.64 7.07
-4 -3 -12 94.97 16.89
-4 3 -12 95.51 16.75
-5 -3 -12 71.23 16
-5 3 -12 57.47 14.52
7 -4 -12 63.2 15.85
7 4 -12 79.99 16.16
6 -4 -12 -4.46 4.87
6 4 -12 0.37 5.12
6 4 -12 4.79 5.89
5 -4 -12 204.69 25.28
5 4 -12 227.84 27.4
5 4 -12 196.89 23.95
4 -4 -12 508.98 34.83
4 4 -12 513.01 35.48
4 4 -12 453.39 35.25
3 -4 -12 159.71 20.33
3 4 -12 156.55 21.13
3 4 -12 148.53 21.63
2 -4 -12 82.74 14.43
2 4 -12 105.79 18.61
2 4 -12 72.57 14.79
1 -4 -12 634.79 41.02
1 4 -12 621.36 41.84
1 4 -12 667.55 42.45
0 -4 -12 427.68 32.4
0 4 -12 475.89 34.04
-1 -4 -12 87.1 16.56
-1 4 -12 64.88 14.37
-2 -4 -12 144.66 21.72
-2 4 -12 148.04 21.6
-3 -4 -12 337.88 34.75
-3 4 -12 346.94 34.98
11 0 -13 0.16 6.33
11 0 -13 -0.88 6.37
10 0 -13 7.1 6.59
10 0 -13 -1.05 5.48
9 0 -13 2.9 5.04
9 0 -13 -2.12 4.39
8 0 -13 3.29 4.28
8 0 -13 -2.09 3.7
7 0 -13 0.03 4.17
7 0 -13 -2.64 4.02
6 0 -13 -1.73 3.37
6 0 -13 2.05 4.53
5 0 -13 -2.28 3.29
5 0 -13 3.55 3.8
4 0 -13 -1.37 3.35
4 0 -13 -0.52 2.99
3 0 -13 0.41 3.13
3 0 -13 -2.25 3.08
2 0 -13 0.27 3.17
1 0 -13 -3.13 2.41
0 0 -13 0.68 4.14
-1 0 -13 0.97 3.68
-2 0 -13 7.6 4.65
-3 0 -13 2.65 4.34
3 0 13 -0.67 4.22
4 0 13 4.19 5.06
-4 0 -13 -1.85 3.85
5 0 13 5.31 6.25
6 0 13 0.49 6.6
7 0 13 -6.57 7.18
11 -1 -13 6.15 7.33
11 1 -13 27.45 10.71
11 1 -13 6.46 7.43
10 -1 -13 163.51 24.43
10 1 -13 261.23 28.15
10 1 -13 247.73 27.52
9 -1 -13 260.69 29.74
9 1 -13 249.86 26.37
9 1 -13 246.84 27.37
8 -1 -13 236.42 27.15
8 1 -13 220.11 25.39
8 1 -13 232.89 24.8
7 -1 -13 3.01 5.37
7 1 -13 -3.38 4.15
7 1 -13 -2.84 3.37
6 -1 -13 392.96 30.01
6 1 -13 443.29 30.39
6 1 -13 497.61 30.73
5 -1 -13 536.98 33.51
5 1 -13 458.88 31.07
5 1 -13 524.92 32.71
4 -1 -13 100.51 15.01
4 1 -13 114.13 15.32
4 1 -13 85.32 13.82
3 -1 -13 200.03 21.18
3 1 -13 202.26 20.99
3 1 -13 232.63 22.61
2 -1 -13 486.64 29.81
2 1 -13 481.04 30.17
2 1 -13 439.84 29.66
1 -1 -13 305.38 22.1
1 1 -13 296.38 22.86
0 -1 -13 19.22 6.59
0 1 -13 40.21 9.4
-1 -1 -13 45.2 9.5
-1 1 -13 42.22 9.86
1 1 13 40.02 8.91
-2 -1 -13 194.72 19.04
2 1 13 204.28 20.59
-2 1 -13 182.09 21.07
-3 -1 -13 430.89 26.61
3 1 13 386.63 28.01
-3 1 -13 403.19 28.58
4 -1 13 190.46 24.38
4 1 13 212.47 24.36
-4 1 -13 265.71 25.3
5 -1 13 56.73 13.76
5 1 13 46.3 13
-5 1 -13 44.56 11.16
6 -1 13 308.04 34.08
-6 1 -13 311.04 25.37
6 1 13 275.61 32.95
10 -2 -13 275.33 33.11
10 2 -13 243.84 28.88
9 -2 -13 15.57 9.24
9 2 -13 5.88 6.68
9 2 -13 -2.89 5.23
-9 2 13 2.41 6.11
8 -2 -13 150.41 22.89
8 2 -13 188.86 23.51
-8 2 13 219.52 22.56
8 2 -13 229.86 25.15
7 -2 -13 525.04 36.12
7 2 -13 491.8 32.97
7 2 -13 423.81 32.02
6 -2 -13 781.47 46.48
6 2 -13 794.28 45.89
6 2 -13 751.41 44.23
5 -2 -13 1.56 4.92
5 2 -13 1.7 4.43
5 2 -13 8.41 6.39
4 -2 -13 401.17 28.43
4 2 -13 413.62 28.93
4 2 -13 356.32 27.1
3 -2 -13 2077.9 93.13
3 2 -13 2069.04 95.25
3 2 -13 2081.19 94.42
2 -2 -13 282.7 20.6
2 -2 -13 284.67 21.72
2 2 -13 280.17 23.51
2 2 -13 311.62 23.84
1 -2 -13 7.93 5.3
1 -2 -13 11.32 5.74
1 2 -13 17.17 7.29
0 -2 -13 1728.14 76.92
0 -2 -13 1749.54 77.51
0 2 -13 1622.42 80.23
-1 -2 -13 654.13 37.38
-1 -2 -13 694.67 36.96
-1 2 -13 640.73 39.65
-2 -2 -13 101.55 15.33
-2 2 -13 107.65 17
-3 -2 -13 521.32 33.38
-3 2 -13 495.26 34.69
-4 -2 -13 952.36 52.1
-4 2 -13 896.75 51.99
-5 -2 -13 470.86 34.5
5 -2 13 440.24 35.68
-5 2 -13 470.68 34.03
-6 -2 -13 11.52 9.26
6 -2 13 5.98 8.5
-6 2 -13 13.08 8.16
9 -3 -13 322.46 36.22
9 3 -13 375.75 37.3
8 -3 -13 174.44 25.16
8 3 -13 156.58 21.96
8 3 -13 164.99 23.09
7 -3 -13 8.65 8.21
7 3 -13 -1.62 5.01
7 3 -13 2.26 5.46
6 -3 -13 233.32 27.25
6 3 -13 255.14 27.83
6 3 -13 216.75 25.2
5 -3 -13 688.06 42.88
5 3 -13 655.47 42.86
5 3 -13 670.09 41.38
4 -3 -13 195.53 22.65
4 3 -13 141.97 20.74
4 3 -13 194.16 23.13
3 -3 -13 51.27 11.37
3 3 -13 44.95 11.03
3 3 -13 37.61 11.43
2 -3 -13 678.37 39.81
2 3 -13 756.01 43.46
2 3 -13 680.89 43.34
1 -3 -13 846.15 45.58
1 -3 -13 853.72 47.14
1 3 -13 874.12 50.4
1 3 -13 861.76 49.09
0 -3 -13 57.63 10.97
0 -3 -13 72.86 13.84
0 3 -13 58.88 13.18
-1 -3 -13 125.18 17.62
-1 3 -13 121.98 18.86
-2 -3 -13 733.4 44.72
-2 3 -13 788.14 47.21
-3 -3 -13 322.05 27.12
-3 3 -13 314.96 31.84
-4 -3 -13 66.35 15.06
-4 3 -13 64.82 14.72
6 -4 -13 78.48 17.56
6 4 -13 98.12 18.61
6 4 -13 90.77 16.74
5 -4 -13 23.28 9.62
5 4 -13 30.14 10.72
5 4 -13 16.04 7.77
4 -4 -13 168.7 22.08
4 4 -13 150.55 22.41
4 4 -13 163.59 22.89
3 -4 -13 187.92 22.47
3 4 -13 279.97 29.55
3 4 -13 193.34 25.71
2 -4 -13 179.06 20.84
2 4 -13 125.91 19.99
2 4 -13 169.87 23.03
1 -4 -13 53.08 13.31
1 4 -13 39.18 12.51
0 -4 -13 136.93 20.49
0 4 -13 130.51 20.32
-1 -4 -13 131.2 20.74
-1 4 -13 174.33 24.29
-2 -4 -13 2.44 6.27
-2 4 -13 5.77 7.03
10 0 -14 1220.47 67.53
9 0 -14 453.15 31.44
9 0 -14 495.08 35.66
8 0 -14 2.69 5.38
8 0 -14 -2.45 4.25
7 0 -14 261.44 21.05
7 0 -14 267.4 27.72
6 0 -14 1861.96 83.67
6 0 -14 1871.9 87.83
5 0 -14 1100.88 53.45
5 0 -14 1060.28 56.52
4 0 -14 -0.48 3.8
4 0 -14 0.12 4.08
3 0 -14 1645.24 78.55
3 0 -14 1732.68 76.36
2 0 -14 1530.13 72.59
1 0 -14 824.61 44.69
0 0 -14 1076.55 55.08
-1 0 -14 2122.42 95.16
-2 0 -14 561.25 34.43
3 0 14 2.15 4.79
-3 0 -14 5.25 5.57
-4 0 -14 143.98 17.95
4 0 14 151.4 21.42
5 0 14 735.93 47.37
6 0 14 596.23 43.24
10 -1 -14 14.25 8.74
10 1 -14 -7.03 5.48
10 1 -14 -4.47 5.23
9 -1 -14 252.55 30.26
9 1 -14 283.64 28.52
9 1 -14 286.37 30.65
8 -1 -14 268.06 30.14
8 1 -14 268.05 28.77
8 1 -14 277.46 23.55
7 -1 -14 16.08 7.56
7 1 -14 31.33 8.99
7 1 -14 39.79 10.85
6 -1 -14 2.78 4.18
6 1 -14 7.86 5.49
6 1 -14 -4.34 3.89
5 -1 -14 693.13 41.65
5 1 -14 705.71 41.01
5 1 -14 712.04 41.92
4 -1 -14 492.3 31.96
4 1 -14 471.7 31.43
4 1 -14 469.05 31.19
3 -1 -14 201.78 21.09
3 1 -14 161.5 19.88
3 1 -14 177.14 19.77
2 -1 -14 82.79 13.16
2 1 -14 73.17 12.85
2 1 -14 75.85 13.29
1 -1 -14 499.71 30.26
1 1 -14 404.24 29.41
0 -1 -14 1327.51 62.6
0 1 -14 1239.87 63.8
-1 -1 -14 22.16 7.42
-1 1 -14 34.04 9.85
-2 -1 -14 146.09 17.38
-2 1 -14 151.72 19.39
3 1 14 281.24 30.4
-3 1 -14 253.17 25.61
4 -1 14 547.58 38.21
-4 1 -14 538.68 35.58
4 1 14 491.22 35.69
5 -1 14 76.43 16.52
-5 1 -14 107.95 17.05
5 1 14 106.46 19.69
6 -1 14 87.79 19.76
6 1 14 164.61 26.19
9 -2 -14 59.99 14.95
9 2 -14 71.94 15.01
9 2 -14 73.94 15.04
8 -2 -14 34.29 12.1
8 2 -14 23.69 9.56
8 2 -14 21.82 8.83
7 -2 -14 5.44 6.19
7 2 -14 -0.37 5.45
7 2 -14 -3.57 4.51
6 -2 -14 105.66 17.62
6 2 -14 104.42 17.34
6 2 -14 118.24 17.84
5 -2 -14 62.09 13.09
5 2 -14 64.86 13.54
5 2 -14 87.75 15.45
4 -2 -14 -2.12 4.22
4 2 -14 2.2 4.52
4 2 -14 -2.75 4.78
3 -2 -14 11.01 6.58
3 2 -14 4.34 5.3
3 2 -14 3.96 5.3
2 -2 -14 143.77 18.2
2 2 -14 174.43 21.27
2 2 -14 195.15 22.62
1 -2 -14 37.96 9.91
1 2 -14 43.62 10.52
0 -2 -14 4.21 5.31
0 2 -14 5.09 5.5
-1 -2 -14 376.38 25.81
-1 2 -14 376.57 28.97
-2 2 -14 37.09 11.19
-3 2 -14 16.93 8.53
-4 2 -14 70.53 15.24
5 -2 14 99.99 19.58
-5 2 -14 88.05 16.58
8 -3 -14 85.1 18.88
8 3 -14 56.55 13.48
8 3 -14 81.54 16.9
7 -3 -14 45.39 13.86
7 3 -14 29.71 10.11
7 3 -14 34.55 11.84
6 -3 -14 10.35 7.18
6 3 -14 16.09 7.79
6 3 -14 13.69 8.88
5 -3 -14 85.36 15.99
5 3 -14 110.85 18.54
5 3 -14 107.69 17.73
4 -3 -14 134.51 18.61
4 3 -14 109.44 18.96
4 3 -14 84.82 15.72
3 -3 -14 4.45 6.43
3 3 -14 -1.98 5.08
3 3 -14 -1.52 4.34
2 -3 -14 42.62 10.76
2 -3 -14 25.48 8.19
2 3 -14 13.13 7.89
2 3 -14 27.58 9.37
1 -3 -14 82.17 14.76
1 -3 -14 108.47 15.46
1 3 -14 94.84 16.51
0 -3 -14 57.6 12.16
0 3 -14 17.24 8.68
-1 -3 -14 11.04 6.63
-1 3 -14 11.71 8.3
-2 -3 -14 13.98 8.19
-2 3 -14 17.92 8.83
-3 -3 -14 132.69 20.21
-3 3 -14 93.39 18.47
5 -4 -14 154.26 23.09
5 4 -14 172.09 23.49
5 4 -14 166.82 24.75
4 -4 -14 16.33 8.18
4 4 -14 -1.16 5.59
4 4 -14 5.32 7.4
3 -4 -14 217.13 24.37
3 4 -14 209.26 28.14
3 4 -14 193.7 25.93
2 -4 -14 238.68 27.98
2 4 -14 267.43 31.07
2 4 -14 241.2 29.08
1 -4 -14 170.11 22.94
1 4 -14 164.69 23.76
0 -4 -14 88.86 17.22
0 4 -14 53.02 14.04
10 0 -15 3.88 7.48
9 0 -15 -2.07 5.33
8 0 -15 7.77 6.23
7 0 -15 -4.77 3.67
7 0 -15 1.58 5.22
6 0 -15 -2.93 4.09
6 0 -15 7.31 5.61
5 0 -15 5.05 5.6
5 0 -15 -2.58 3.78
4 0 -15 1.15 4.39
4 0 -15 -2.37 3.61
3 0 -15 1.1 4.1
2 0 -15 5.39 5.32
1 0 -15 -1.1 3.63
0 0 -15 6.75 4.97
-1 0 -15 2.26 5.42
-2 0 -15 5.38 5.91
2 0 15 1.85 4.42
3 0 15 -2.99 4.63
-3 0 -15 -5.51 4.45
4 0 15 5.7 6.25
5 0 15 2.62 7.78
9 -1 -15 7.94 7.93
9 1 -15 -7.14 5.34
9 1 -15 -0.74 5.56
8 -1 -15 128.34 21.05
8 1 -15 138.44 19.28
8 1 -15 154.18 22.53
7 -1 -15 535.08 37.01
7 1 -15 470.56 33.35
7 1 -15 535.48 36.46
6 -1 -15 77.52 14.82
6 1 -15 85.62 14.41
6 1 -15 55.04 12.7
5 -1 -15 33.41 10.25
5 1 -15 18.63 7.45
5 1 -15 16.8 7.74
4 -1 -15 381.07 27.07
4 1 -15 286.11 28.71
4 1 -15 307.71 24.93
3 -1 -15 232.14 24.92
3 1 -15 223.97 23.75
3 1 -15 261.79 26.15
2 -1 -15 275.46 25.95
2 1 -15 242.55 25.39
1 -1 -15 31 8.97
1 1 -15 26.58 8.83
0 -1 -15 392.91 27.76
0 1 -15 407.42 29.64
-1 -1 -15 347.73 25.66
-1 1 -15 318.61 26.19
-2 -1 -15 11.23 6.67
-2 1 -15 4.75 5.81
-3 1 -15 277.45 27.73
4 -1 15 157.52 22.88
-4 1 -15 183.41 22.99
5 -1 15 104.64 19.58
-5 1 -15 161.38 21.16
9 -2 -15 320.66 36.33
9 2 -15 436.66 33.07
9 2 -15 379.72 31.69
8 -2 -15 204.71 27.04
8 2 -15 201.7 25.4
8 2 -15 183.69 24.07
7 -2 -15 15.19 9.15
7 2 -15 21.34 9.2
7 2 -15 31.35 10.82
6 -2 -15 409.91 31.93
6 2 -15 361.21 30.48
6 2 -15 445.79 32.17
5 -2 -15 914.34 52.24
5 2 -15 896.33 52.3
5 2 -15 926.51 52.38
4 -2 -15 149.2 19.76
4 2 -15 155.63 20.88
4 2 -15 173.28 22.12
3 -2 -15 154.42 19.41
3 2 -15 141.66 20.1
3 2 -15 201.93 23.72
2 -2 -15 1241.72 62.64
2 2 -15 1346.16 66.95
2 2 -15 1174.3 64.34
1 -2 -15 1045.59 55.36
1 2 -15 1108.53 58.94
0 -2 -15 120.35 16.51
0 2 -15 162.49 21.56
-1 -2 -15 531.94 51.59
-1 2 -15 490.58 35.08
-2 2 -15 1109.19 61.55
-3 2 -15 476.28 35.77
-4 2 -15 9.94 8.24
7 -3 -15 375.16 37.21
7 3 -15 308.22 33.33
7 3 -15 287.9 31.57
6 -3 -15 205.68 26.56
6 3 -15 298.33 31.98
6 3 -15 218.4 26.68
5 -3 -15 3.59 6.62
5 3 -15 2.72 5.06
5 3 -15 -0.2 6.11
4 -3 -15 186.58 23.25
4 3 -15 181.86 24.31
4 3 -15 125.36 19.91
3 -3 -15 420.21 30.36
3 3 -15 365.4 31.4
3 3 -15 414.16 31.94
2 -3 -15 146.75 19.03
2 3 -15 149.77 21.31
2 3 -15 131.94 21.28
1 -3 -15 6.15 5.84
1 3 -15 2.02 6.18
0 3 -15 229.27 27.83
-1 3 -15 446.7 35.34
-2 3 -15 28.65 10.94
9 0 -16 95.31 18.85
8 0 -16 817.57 51.08
7 0 -16 528.06 37.84
6 0 -16 71.03 15.05
5 0 -16 633.67 40.58
4 0 -16 791.8 44.75
4 0 -16 819.29 47.26
3 0 -16 175.92 21.47
2 0 -16 26.57 8.62
1 0 -16 1286.12 65.68
0 0 -16 683.92 41.76
-1 0 -16 40.12 11.07
2 0 16 248.56 26.8
-2 0 -16 255.5 26.16
-3 0 -16 1032.84 55.52
3 0 16 1031.64 57.73
4 0 16 198.74 25.76
9 -1 -16 167.38 24.87
9 1 -16 137.18 20.31
9 1 -16 167.98 24.24
8 -1 -16 30.8 11.41
8 1 -16 41.9 11.15
8 1 -16 21.07 10.3
7 -1 -16 643.63 42.69
7 1 -16 608.07 41.66
7 1 -16 632.13 40.35
6 -1 -16 399.25 31.73
6 1 -16 392.92 29.84
6 1 -16 423.9 31.67
5 -1 -16 129.34 19.27
5 1 -16 154.83 20.71
5 1 -16 161.71 21.4
4 -1 -16 51.3 12.13
4 1 -16 66.91 13.54
4 1 -16 61.12 12.81
3 -1 -16 193.36 22.7
3 1 -16 172 22.46
3 1 -16 230.85 24.7
2 -1 -16 1014.28 54.26
2 1 -16 1001.99 55.49
1 -1 -16 180.61 21.41
1 1 -16 167.96 21.64
0 -1 -16 112.63 16.35
0 1 -16 106.97 17.8
-1 -1 -16 699.2 41.46
-1 1 -16 692.39 43.24
-2 -1 -16 805.75 46.26
-2 1 -16 818.58 48.26
3 -1 16 55.26 14.6
-3 1 -16 63.95 14.04
8 -2 -16 42.99 14.4
8 2 -16 49.03 13.85
8 2 -16 54.71 14.35
7 -2 -16 41.71 13.06
7 2 -16 14.7 9.12
7 2 -16 45.97 12.98
6 -2 -16 61.05 14.99
6 2 -16 58.18 13.27
6 2 -16 28.44 10.63
5 -2 -16 12.97 7.32
5 2 -16 25.04 10.33
5 2 -16 28.8 9.92
4 -2 -16 14.36 7.46
4 2 -16 26.88 9.82
4 2 -16 8.88 7.19
3 -2 -16 18.42 8.15
3 2 -16 22.8 9.21
3 2 -16 9.51 7.87
2 -2 -16 -3.38 4.33
2 2 -16 -3.9 3.9
1 -2 -16 53.09 12.07
1 2 -16 86.45 16.53
0 -2 -16 13.76 7.51
0 2 -16 5.1 6.46
-1 2 -16 1.8 6.53
-2 2 -16 10.68 8.41
5 -3 -16 40.77 12.02
5 3 -16 59.99 14.56
5 3 -16 38.02 11.95
4 -3 -16 44.82 13
4 3 -16 34.42 12.66
4 3 -16 32.58 11
3 -3 -16 32.89 10.43
3 3 -16 47.63 13.1
3 3 -16 54.5 14.37
2 -3 -16 147.18 19.94
2 3 -16 166.21 22.89
1 3 -16 26.75 9.84
0 3 -16 12.78 9.42
8 0 -17 -2.97 7.31
7 0 -17 -2.94 5.88
6 0 -17 1.68 5.59
5 0 -17 0.96 5
4 0 -17 -1.84 4.9
3 0 -17 0.63 4.29
2 0 -17 3.25 5.19
1 0 -17 -2.87 5.4
0 0 -17 9.72 6.66
-1 0 -17 -1 5.51
-2 0 -17 2.42 7.23
7 -1 -17 2.63 7.01
7 1 -17 -2.63 5.35
7 1 -17 -2.16 6.15
6 -1 -17 144.7 21.42
6 1 -17 117.36 18.43
6 1 -17 107.97 18.81
5 -1 -17 281.78 30.33
5 1 -17 288.7 29.24
5 1 -17 253.2 28.58
4 -1 -17 17.75 9.11
4 1 -17 18.5 8.97
4 1 -17 19.78 9.93
3 -1 -17 8.03 6.65
3 1 -17 2.25 5.44
2 -1 -17 342.01 27.32
2 1 -17 317.7 31.91
1 -1 -17 274.83 27.41
1 1 -17 244.24 27.33
0 -1 -17 31.79 10.69
0 1 -17 60.85 13.15
-1 -1 -17 94.06 16.45
-1 1 -17 89.76 17.42
-2 1 -17 251.08 28.36
6 -2 -17 252.65 30.94
6 2 -17 286.95 31.46
6 2 -17 282.13 31.55
5 -2 -17 27.73 10.08
5 2 -17 32.58 11.29
5 2 -17 58.68 14.43
4 -2 -17 447.76 33.28
4 2 -17 453.49 34.22
4 2 -17 413.8 33.22
3 -2 -17 492.02 34.11
3 2 -17 456.01 34.85
3 2 -17 436.09 34.23
2 -2 -17 206.41 24.1
2 2 -17 202.4 25.49
1 -2 -17 134.99 19.06
1 2 -17 129.61 21.21
0 -2 -17 522.32 38.19
0 2 -17 554.9 39.11
6 0 -18 804.67 50.56
5 0 -18 58.83 14.83
4 0 -18 33.48 10.97
3 0 -18 1147.23 62.49
2 0 -18 563.62 38.83
1 0 -18 44.34 12.7
0 0 -18 145.92 21.62
6 -1 -18 12.76 9.5
6 1 -18 -1.22 6.28
6 1 -18 -1.11 6.17
5 -1 -18 272.79 30.65
5 1 -18 317.09 31.08
5 1 -18 286.24 31.42
4 -1 -18 494.98 35.89
4 1 -18 450.4 35.15
3 -1 -18 83.38 16.22
3 1 -18 89.2 17.88
2 -1 -18 65.29 13.9
2 1 -18 76.07 15.62
1 -1 -18 212.52 24.9
1 1 -18 207.26 26.29
0 -1 -18 290.68 29.57
0 1 -18 283.65 31.15
