#------------------------------------------------------------------------------
#$Date: 2019-11-17 05:00:36 +0200 (Sun, 17 Nov 2019) $
#$Revision: 228007 $
#$URL: file:///home/coder/svn-repositories/cod/cif/7/12/12/7121298.cif $
#------------------------------------------------------------------------------
#
# This file is available in the Crystallography Open Database (COD),
# http://www.crystallography.net/
#
# All data on this site have been placed in the public domain by the
# contributors.
#
data_7121298
loop_
_publ_author_name
'Bezrukov, Andrey A.'
'T\"ornroos, Karl W'
'Le Roux, Erwan'
'Dietzel, Pascal D. C.'
_publ_section_title
;
 Incorporation of an intact dimeric Zr<sub>12</sub> oxo cluster from a
 molecular precursor in a new zirconium metal-organic framework.
;
_journal_issue                   22
_journal_name_full
'Chemical communications (Cambridge, England)'
_journal_page_first              2735
_journal_page_last               2738
_journal_paper_doi               10.1039/c8cc00507a
_journal_volume                  54
_journal_year                    2018
_chemical_formula_moiety         'C78 H86 O64 P2 Zr12, 4(C2 H4 O2)'
_chemical_formula_sum            'C86 H102 O72 P2 Zr12'
_chemical_formula_weight         3444.25
_space_group_crystal_system      triclinic
_space_group_IT_number           2
_space_group_name_Hall           '-P 1'
_space_group_name_H-M_alt        'P -1'
_symmetry_space_group_name_Hall  '-P 1'
_symmetry_space_group_name_H-M   'P -1'
_atom_sites_solution_hydrogens   geom
_audit_creation_method           SHELXL-2017/1
_audit_update_record
;
2017-11-15 deposited with the CCDC.
2018-02-19 downloaded from the CCDC.
;
_cell_angle_alpha                72.790(2)
_cell_angle_beta                 80.540(2)
_cell_angle_gamma                74.886(2)
_cell_formula_units_Z            1
_cell_length_a                   12.2903(16)
_cell_length_b                   16.666(2)
_cell_length_c                   19.138(2)
_cell_measurement_reflns_used    9282
_cell_measurement_temperature    103(2)
_cell_measurement_theta_max      26.00
_cell_measurement_theta_min      2.27
_cell_volume                     3598.8(7)
_computing_cell_refinement       'Bruker AXS SAINT V8.30C, 2013'
_computing_data_collection       'Bruker AXS APEX2 2013.4-1'
_computing_data_reduction        'Bruker AXS SAINT V7.68A, 2013'
_computing_structure_refinement  'SHELXL-2017/1 (Sheldrick, 2017)'
_computing_structure_solution    'SHELXT 2014/4 (Sheldrick, 2014)'
_diffrn_ambient_temperature      103(2)
_diffrn_measured_fraction_theta_full 0.999
_diffrn_measured_fraction_theta_max 0.997
_diffrn_measurement_device_type  'Bruker APEX-II Pt135 CCD'
_diffrn_measurement_method       '\w scans'
_diffrn_radiation_type           MoK\a
_diffrn_radiation_wavelength     0.71073
_diffrn_reflns_av_R_equivalents  0.0664
_diffrn_reflns_av_unetI/netI     0.0675
_diffrn_reflns_Laue_measured_fraction_full 0.999
_diffrn_reflns_Laue_measured_fraction_max 0.997
_diffrn_reflns_limit_h_max       15
_diffrn_reflns_limit_h_min       -15
_diffrn_reflns_limit_k_max       20
_diffrn_reflns_limit_k_min       -20
_diffrn_reflns_limit_l_max       23
_diffrn_reflns_limit_l_min       -23
_diffrn_reflns_number            45275
_diffrn_reflns_point_group_measured_fraction_full 0.999
_diffrn_reflns_point_group_measured_fraction_max 0.997
_diffrn_reflns_theta_full        25.242
_diffrn_reflns_theta_max         26.045
_diffrn_reflns_theta_min         1.918
_diffrn_source                   'Bruker TXS Rotating anode'
_exptl_absorpt_coefficient_mu    0.941
_exptl_absorpt_correction_T_max  1.0000
_exptl_absorpt_correction_T_min  0.6607
_exptl_absorpt_correction_type   multi-scan
_exptl_absorpt_process_details   'SADABS 2012/1, Bruker AXS'
_exptl_crystal_colour            colourless
_exptl_crystal_density_diffrn    1.589
_exptl_crystal_description       'thin pinacoid'
_exptl_crystal_F_000             1704
_exptl_crystal_size_max          0.145
_exptl_crystal_size_mid          0.047
_exptl_crystal_size_min          0.034
_refine_diff_density_max         3.000
_refine_diff_density_min         -0.906
_refine_diff_density_rms         0.138
_refine_ls_extinction_method     none
_refine_ls_goodness_of_fit_ref   1.059
_refine_ls_hydrogen_treatment    constr
_refine_ls_matrix_type           full
_refine_ls_number_parameters     786
_refine_ls_number_reflns         14174
_refine_ls_number_restraints     0
_refine_ls_restrained_S_all      1.059
_refine_ls_R_factor_all          0.0705
_refine_ls_R_factor_gt           0.0470
_refine_ls_shift/su_max          0.001
_refine_ls_shift/su_mean         0.000
_refine_ls_structure_factor_coef Fsqd
_refine_ls_weighting_details
'w=1/[\s^2^(Fo^2^)+(0.0743P)^2^] where P=(Fo^2^+2Fc^2^)/3'
_refine_ls_weighting_scheme      calc
_refine_ls_wR_factor_gt          0.1278
_refine_ls_wR_factor_ref         0.1389
_reflns_Friedel_coverage         0.000
_reflns_number_gt                10150
_reflns_number_total             14174
_reflns_threshold_expression     'I > 2\s(I)'
_cod_data_source_file            c8cc00507a2.cif
_cod_data_source_block           Compound2
_cod_depositor_comments
'Adding full bibliography for 7121298--7121299.cif.'
_cod_original_cell_volume        3598.9(8)
_cod_database_code               7121298
_shelx_shelxl_version_number     2017/1
_shelx_space_group_comment
;
The symmetry employed for this shelxl refinement is uniquely defined
by the following loop, which should always be used as a source of
symmetry information in preference to the above space-group names.
They are only intended as comments.
;
_shelx_estimated_absorpt_t_min   0.876
_shelx_estimated_absorpt_t_max   0.969
_shelx_res_file
;
TITL AB1059_a.res in P-1 - SQUEEZED!
    ab1059_a_sq.res
    created by SHELXL-2017/1 at 17:25:11 on 31-Oct-2017
REM FINAL DATA
REM test for P=O - negative result
REM Geometry is more consisten with (tpp) than with (tpP=O)
REM  Emirical formula [Zr12O8(OH)8(CH3COO)8(tpp)2]+solvent
REM H(OH) on O7, O11, O18 and O19
REM Old TITL AB1059 in P-1
REM SHELXT solution in P-1
REM R1 0.113,  Rweak 0.004,  Alpha 0.084,  Orientation as input
REM Formula found by SHELXT:  C43 N2 O35 P Zr6
CELL  0.71073  12.2903  16.6663  19.1384   72.790   80.540   74.886
ZERR  1.000   0.0016   0.0021   0.0024    0.002    0.002    0.002
LATT  1
SFAC C O P Zr H
UNIT 86 72 2 12 102
LIST 4 ! automatically inserted. Change 6 to 4 for CHECKCIF!!
TEMP -170.150
SIZE 0.034 0.047 0.145
L.S. 15 0  170
OMIT 1 0 0
OMIT -1 2 0
OMIT 1 0 1
OMIT 0 0 2
OMIT 2 1 2
OMIT 2 1 1
OMIT 1 2 2
BOND $H
CONF
ACTA
FMAP 2
PLAN -10
ABIN
WGHT    0.074300
FVAR       0.23161
ZR1   4    0.395245    0.292502    0.093463    11.00000    0.01397    0.01345 =
         0.02127   -0.00569   -0.00080   -0.00528
ZR2   4    0.647706    0.134410    0.103707    11.00000    0.01522    0.01288 =
         0.02098   -0.00578    0.00028   -0.00432
ZR3   4    0.483420    0.170294    0.265340    11.00000    0.01630    0.01514 =
         0.02075   -0.00517    0.00017   -0.00497
ZR4   4    0.744262    0.229361    0.217226    11.00000    0.01569    0.01555 =
         0.02268   -0.00565   -0.00264   -0.00458
ZR5   4    0.665705    0.348286    0.044431    11.00000    0.01305    0.01257 =
         0.01993   -0.00497   -0.00005   -0.00423
ZR6   4    0.492041    0.387842    0.205076    11.00000    0.01617    0.01436 =
         0.01946   -0.00684    0.00001   -0.00459
P1    3    0.063552    0.375535    0.631590    11.00000    0.03033    0.02082 =
         0.02448   -0.00682   -0.00009   -0.00784
O1    2    0.387266    0.208812    0.025357    11.00000    0.01960    0.01805 =
         0.02680   -0.00942   -0.00041   -0.00719
O2    2    0.551112    0.110168    0.027102    11.00000    0.02170    0.01771 =
         0.02295   -0.00808   -0.00043   -0.00658
O3    2    0.256746    0.232046    0.154365    11.00000    0.01467    0.01706 =
         0.03081   -0.00241   -0.00157   -0.00602
O4    2    0.310213    0.155637    0.266290    11.00000    0.01821    0.02241 =
         0.03095   -0.00807    0.00236   -0.00806
O5    2    0.253169    0.397943    0.115886    11.00000    0.01630    0.01775 =
         0.02850   -0.00989    0.00177   -0.00747
O6    2    0.313659    0.460248    0.185764    11.00000    0.01871    0.01937 =
         0.02402   -0.00860    0.00012   -0.00630
O7    2    0.482681    0.402422    0.084274    11.00000    0.01567    0.01242 =
         0.02261   -0.00373    0.00028   -0.00527
AFIX  13
H7O   5    0.445956    0.460960    0.054961    11.00000   -1.20000
AFIX   0
O9    2    0.432225    0.288741    0.195181    11.00000    0.01526    0.01548 =
         0.02175   -0.00740   -0.00078   -0.00393
O10   2    0.566766    0.260484    0.060037    11.00000    0.01355    0.01354 =
         0.02168   -0.00567    0.00164   -0.00411
O11   2    0.474682    0.148119    0.157575    11.00000    0.01608    0.01057 =
         0.02412   -0.00693   -0.00039   -0.00376
AFIX  13
H11O  5    0.433669    0.103314    0.158276    11.00000   -1.20000
AFIX   0
O12   2    0.390236    0.372027    0.311581    11.00000    0.02418    0.02036 =
         0.01987   -0.00672    0.00361   -0.00456
O13   2    0.376728    0.233238    0.347770    11.00000    0.02484    0.02165 =
         0.02636   -0.00969    0.00211   -0.00568
O14   2    0.765216    0.286517   -0.039787    11.00000    0.01537    0.01411 =
         0.02685   -0.00697    0.00118   -0.00125
O15   2    0.754005    0.148119   -0.003641    11.00000    0.02129    0.01645 =
         0.02615   -0.00759    0.00255   -0.00513
O16   2    0.649598    0.340981    0.155567    11.00000    0.01713    0.01370 =
         0.02187   -0.00541   -0.00287   -0.00576
O17   2    0.644538    0.147440    0.211179    11.00000    0.01712    0.01374 =
         0.02052   -0.00231   -0.00045   -0.00449
O18   2    0.581888    0.254821    0.283868    11.00000    0.02131    0.01849 =
         0.01769   -0.00611    0.00053   -0.00583
AFIX  13
H18O  5    0.585160    0.253903    0.335970    11.00000   -1.20000
AFIX   0
O19   2    0.764927    0.214093    0.104511    11.00000    0.01516    0.01473 =
         0.02278   -0.00369   -0.00005   -0.00397
AFIX  13
H19O  5    0.844521    0.195717    0.083483    11.00000   -1.20000
AFIX   0
O20   2    0.551380    0.084685    0.372989    11.00000    0.04377    0.02979 =
         0.02375   -0.00470   -0.00561   -0.00716
O21   2    0.504369    0.023595    0.300175    11.00000    0.03563    0.02027 =
         0.03375   -0.00309   -0.00373   -0.01164
O22   2    0.891819    0.284792    0.158954    11.00000    0.01475    0.02231 =
         0.03210   -0.00671   -0.00225   -0.00702
O23   2    0.839259    0.359814    0.046874    11.00000    0.01500    0.01762 =
         0.02844   -0.00255   -0.00533   -0.00401
O24   2    0.891021    0.110346    0.228076    11.00000    0.02195    0.02161 =
         0.02934   -0.00347    0.00021   -0.00556
O25   2    0.796961    0.139514    0.327435    11.00000    0.03256    0.02768 =
         0.02796   -0.00876   -0.00614   -0.00234
O26   2    0.234260    0.681690    0.723898    11.00000    0.02560    0.01950 =
         0.03313   -0.00841   -0.00774   -0.00529
O27   2    0.399465    0.582616    0.726581    11.00000    0.02391    0.02244 =
         0.02067   -0.00627   -0.00421   -0.00706
O28   2    0.193767   -0.028298    0.867203    11.00000    0.02161    0.01641 =
         0.02651   -0.00174    0.00414   -0.00759
O29   2    0.357778    0.005001    0.847544    11.00000    0.02681    0.01676 =
         0.03002   -0.00544   -0.00591   -0.00660
REM O30 2 -0.062039 0.396998 0.640105 0.41898 0.06339 0.06298 =
REM 0.07907 -0.01890 0.00338 -0.01646
C1    1    0.421241    0.116585   -0.053099    11.00000    0.03050    0.03335 =
         0.04639   -0.02301   -0.00913   -0.00637
AFIX 137
H1A   5    0.419305    0.055496   -0.033964    11.00000   -1.50000
H1B   5    0.476554    0.124045   -0.096328    11.00000   -1.50000
H1C   5    0.346127    0.150348   -0.066946    11.00000   -1.50000
AFIX   0
C2    1    0.454441    0.146925    0.004843    11.00000    0.02379    0.01686 =
         0.02015   -0.00275   -0.00012   -0.01201
C3    1    0.131311    0.152889    0.236088    11.00000    0.02445    0.03582 =
         0.04760    0.00734   -0.00660   -0.01375
AFIX 137
H3A   5    0.113836    0.136169    0.289535    11.00000   -1.50000
H3AB  5    0.139065    0.103215    0.216734    11.00000   -1.50000
H3AC  5    0.069971    0.199705    0.213858    11.00000   -1.50000
AFIX   0
C4    1    0.240448    0.182959    0.217871    11.00000    0.01605    0.01630 =
         0.03597   -0.00526   -0.00336   -0.00197
C5    1    0.131699    0.522496    0.142577    11.00000    0.02039    0.02292 =
         0.04145   -0.01390    0.00182   -0.00238
AFIX 137
H5A   5    0.127622    0.558961    0.175211    11.00000   -1.50000
H5AB  5    0.067838    0.494146    0.156606    11.00000   -1.50000
H5AC  5    0.128418    0.558160    0.091718    11.00000   -1.50000
AFIX   0
C6    1    0.241323    0.455107    0.149034    11.00000    0.01640    0.01418 =
         0.02418    0.00037    0.00390   -0.00680
C7    1    0.877581    0.194362   -0.108833    11.00000    0.02404    0.02353 =
         0.03775   -0.01065    0.00542   -0.00386
AFIX 137
H7A   5    0.888296    0.134641   -0.110694    11.00000   -1.50000
H7AB  5    0.949830    0.204334   -0.102064    11.00000   -1.50000
H7AC  5    0.850268    0.233702   -0.154903    11.00000   -1.50000
AFIX   0
C8    1    0.793075    0.210171   -0.046330    11.00000    0.01574    0.02267 =
         0.02253   -0.00701    0.00060   -0.00652
C9    1    1.026063    0.348600    0.070157    11.00000    0.02578    0.03460 =
         0.04028    0.00415   -0.00582   -0.01653
AFIX 137
H9A   5    1.019077    0.404953    0.034048    11.00000   -1.50000
H9AB  5    1.074267    0.304007    0.047859    11.00000   -1.50000
H9AC  5    1.060026    0.349387    0.112764    11.00000   -1.50000
AFIX   0
C10   1    0.910934    0.329389    0.094352    11.00000    0.01593    0.01408 =
         0.03539   -0.00888   -0.00087   -0.00215
C11   1    0.596646   -0.070077    0.405551    11.00000    0.08728    0.03921 =
         0.06133    0.01225   -0.03262   -0.00789
AFIX 137
H11A  5    0.557733   -0.075842    0.455169    11.00000   -1.50000
H11B  5    0.677642   -0.076091    0.407508    11.00000   -1.50000
H11C  5    0.586041   -0.115095    0.385692    11.00000   -1.50000
AFIX   0
C12   1    0.548761    0.016323    0.357306    11.00000    0.03139    0.02546 =
         0.03760   -0.00219   -0.00170   -0.00526
C13   1    0.937579    0.005211    0.343929    11.00000    0.04457    0.03144 =
         0.03819   -0.00123   -0.00689   -0.00069
AFIX 137
H13A  5    0.963308    0.016421    0.385240    11.00000   -1.50000
H13B  5    1.003248   -0.019214    0.313976    11.00000   -1.50000
H13C  5    0.888235   -0.035682    0.362722    11.00000   -1.50000
AFIX   0
C14   1    0.873014    0.088278    0.297640    11.00000    0.02211    0.02042 =
         0.03271   -0.00402   -0.00778   -0.00593
C15   1    0.352348    0.309211    0.354514    11.00000    0.02338    0.02414 =
         0.02302   -0.00671   -0.00367   -0.00313
C16   1    0.273320    0.325970    0.419212    11.00000    0.02427    0.02462 =
         0.02322   -0.00884    0.00126   -0.00516
C17   1    0.222463    0.408311    0.423653    11.00000    0.04350    0.02196 =
         0.02405   -0.00109   -0.00018   -0.00639
AFIX  43
H17   5    0.232890    0.455835    0.383106    11.00000   -1.20000
AFIX   0
C18   1    0.155988    0.422989    0.486661    11.00000    0.04006    0.01662 =
         0.03295   -0.00732   -0.00159    0.00009
AFIX  43
H18   5    0.119257    0.480071    0.488691    11.00000   -1.20000
AFIX   0
C19   1    0.143487    0.352981    0.547226    11.00000    0.03217    0.02799 =
         0.02216   -0.00744   -0.00379   -0.00763
C20   1    0.188831    0.270658    0.540443    11.00000    0.04865    0.02440 =
         0.02794   -0.00691    0.00935   -0.01270
AFIX  43
H20   5    0.176418    0.222702    0.579986    11.00000   -1.20000
AFIX   0
C21   1    0.252065    0.257164    0.476819    11.00000    0.04598    0.02133 =
         0.03367   -0.00865    0.00412   -0.00264
AFIX  43
H21   5    0.281379    0.200000    0.472467    11.00000   -1.20000
AFIX   0
C22   1    0.136708    0.450951    0.647560    11.00000    0.03076    0.02264 =
         0.02462   -0.00635   -0.00287   -0.00930
C23   1    0.073808    0.509030    0.686538    11.00000    0.02701    0.04472 =
         0.03559   -0.02006    0.00043   -0.00894
AFIX  43
H23   5   -0.004959    0.512089    0.699081    11.00000   -1.20000
AFIX   0
C24   1    0.124204    0.561959    0.707083    11.00000    0.03202    0.03877 =
         0.04300   -0.02049   -0.00188   -0.01053
AFIX  43
H24   5    0.080942    0.600955    0.734174    11.00000   -1.20000
AFIX   0
C25   1    0.240474    0.557771    0.687573    11.00000    0.03075    0.02211 =
         0.02660   -0.00597   -0.01033   -0.00823
C26   1    0.301319    0.503062    0.647281    11.00000    0.03340    0.03069 =
         0.04232   -0.01428    0.00223   -0.01148
AFIX  43
H26   5    0.379938    0.500259    0.634165    11.00000   -1.20000
AFIX   0
C27   1    0.248317    0.450902    0.625117    11.00000    0.02922    0.02468 =
         0.03834   -0.01270    0.00540   -0.00867
AFIX  43
H27   5    0.289921    0.415482    0.594484    11.00000   -1.20000
AFIX   0
C28   1    0.296541    0.612774    0.713181    11.00000    0.02835    0.02350 =
         0.02220   -0.00490   -0.00238   -0.01272
C29   1    0.120928    0.274928    0.699500    11.00000    0.03376    0.01955 =
         0.02444   -0.01173    0.00279   -0.00650
C30   1    0.226702    0.255284    0.722901    11.00000    0.03842    0.02367 =
         0.04713   -0.00299   -0.01352   -0.01292
AFIX  43
H30   5    0.271640    0.297070    0.707321    11.00000   -1.20000
AFIX   0
C31   1    0.268704    0.175466    0.768857    11.00000    0.03216    0.03484 =
         0.04352   -0.00432   -0.01352   -0.01024
AFIX  43
H31   5    0.342211    0.162523    0.784575    11.00000   -1.20000
AFIX   0
C32   1    0.203419    0.114260    0.792015    11.00000    0.02596    0.01605 =
         0.02170   -0.00859    0.00133   -0.00531
C33   1    0.096717    0.133291    0.770670    11.00000    0.02675    0.01936 =
         0.03509   -0.00815    0.00443   -0.00575
AFIX  43
H33   5    0.051585    0.091670    0.787684    11.00000   -1.20000
AFIX   0
C34   1    0.054181    0.213058    0.724316    11.00000    0.02098    0.02774 =
         0.03343   -0.00951    0.00263   -0.00406
AFIX  43
H34   5   -0.019791    0.225998    0.709308    11.00000   -1.20000
AFIX   0
C35   1    0.253296    0.026763    0.838537    11.00000    0.02274    0.02733 =
         0.02346   -0.01171    0.00524   -0.00939
REM ACETIC ACID 1 BONDED DEPROTONATED
C1A   1    0.241069    0.478678   -0.104131    11.00000    0.04124    0.03204 =
         0.04590   -0.01233   -0.01092   -0.00806
AFIX 137
H1AA  5    0.270657    0.438790   -0.135053    11.00000   -1.50000
H1AB  5    0.241428    0.537714   -0.133711    11.00000   -1.50000
H1AC  5    0.163429    0.474698   -0.083999    11.00000   -1.50000
AFIX   0
C2A   1    0.313107    0.455769   -0.043153    11.00000    0.01593    0.01640 =
         0.02594   -0.00557    0.00143   -0.00692
O1A   2    0.341600    0.512087   -0.022842    11.00000    0.01840    0.01635 =
         0.02376   -0.00737   -0.00051   -0.00592
O2A   2    0.344711    0.376021   -0.013282    11.00000    0.02240    0.01480 =
         0.02259   -0.00485   -0.00358   -0.00505
REM  ACETIC ACID 2 NON-BONDED PROTONATED
C1B   1    1.153888    0.066336    0.018242    11.00000    0.05093    0.06753 =
         0.04198    0.00072    0.01679    0.01784
AFIX 137
H1BA  5    1.157946    0.007336    0.016782    11.00000   -1.50000
H1BB  5    1.221149    0.067795    0.038731    11.00000   -1.50000
H1BC  5    1.150587    0.104685   -0.031664    11.00000   -1.50000
AFIX   0
C2B   1    1.049742    0.095722    0.065521    11.00000    0.01689    0.02801 =
         0.03987   -0.01331    0.00263   -0.00701
O1B   2    1.046135    0.039635    0.131882    11.00000    0.02551    0.02864 =
         0.05038    0.00181    0.01120   -0.00080
AFIX  83
H1BO  5    0.987160    0.056976    0.157416    11.00000   -1.50000
AFIX   0
O2B   2    0.980599    0.161613    0.048272    11.00000    0.02231    0.02581 =
         0.03478   -0.00877    0.00237   -0.00506
REM  ACETIC ACID 3 NON-BONDED PROTONATED
C1C   1    0.303518   -0.106387    0.178069    11.00000    0.04974    0.03259 =
         0.07452   -0.01317   -0.01946   -0.01401
AFIX 137
H1CA  5    0.342492   -0.166334    0.198355    11.00000   -1.50000
H1CB  5    0.300927   -0.095527    0.125102    11.00000   -1.50000
H1CC  5    0.226207   -0.096086    0.201993    11.00000   -1.50000
AFIX   0
C2C   1    0.367236   -0.046004    0.191702    11.00000    0.03182    0.03051 =
         0.04733   -0.01415   -0.00620   -0.00598
O1C   2    0.428840   -0.083409    0.246359    11.00000    0.06849    0.03396 =
         0.06540   -0.00489   -0.02704   -0.02387
AFIX  83
H1CO  5    0.463153   -0.048638    0.252063    11.00000   -1.50000
AFIX   0
O2C   2    0.358494    0.027956    0.156571    11.00000    0.03144    0.01832 =
         0.04657   -0.01114   -0.00429   -0.00508
REM  ACETIC ACID 4 BONDED DEPROTONATED
C1D   1    0.442624    0.676401    0.125582    11.00000    0.03227    0.02699 =
         0.03535   -0.01142   -0.00448   -0.00998
AFIX 137
H1DA  5    0.511367    0.675063    0.145992    11.00000   -1.50000
H1DB  5    0.376438    0.690138    0.159841    11.00000   -1.50000
H1DC  5    0.435497    0.720474    0.078481    11.00000   -1.50000
AFIX   0
C2D   1    0.449680    0.589193    0.113896    11.00000    0.01447    0.01531 =
         0.02260   -0.00623    0.00276   -0.00503
O1D   2    0.412959    0.582321    0.059224    11.00000    0.01906    0.01419 =
         0.02130   -0.00623   -0.00121   -0.00410
O2D   2    0.494528    0.524703    0.162773    11.00000    0.02182    0.01405 =
         0.02164   -0.00571   -0.00149   -0.00693
REM SOLVENT PEAKS
HKLF 4




REM  AB1059_a.res in P-1 - SQUEEZED
REM R1 =  0.0470 for   10150 Fo > 4sig(Fo)  and  0.0705 for all   14174 data
REM    786 parameters refined using      0 restraints

END

WGHT      0.0743      0.0000

REM Highest difference peak  3.000,  deepest hole -0.906,  1-sigma level  0.138
Q1    1  -0.0488  0.3912  0.6385  11.00000  0.05    3.00
Q2    1   0.3223  0.2908  0.0897  11.00000  0.05    1.44
Q3    1   0.8183  0.2312  0.2173  11.00000  0.05    1.35
Q4    1   0.7430  0.3491  0.0485  11.00000  0.05    1.28
Q5    1   0.5922  0.3450  0.0407  11.00000  0.05    1.23
Q6    1   0.4137  0.1648  0.2592  11.00000  0.05    1.23
Q7    1   0.7259  0.1381  0.1039  11.00000  0.05    1.22
Q8    1   0.5674  0.3928  0.2075  11.00000  0.05    1.16
Q9    1   0.6393  0.3966  0.0554  11.00000  0.05    1.14
Q10   1   0.5785  0.1290  0.1009  11.00000  0.05    1.12
;
_shelx_res_checksum              72733
_shelx_fab_file
;
    1    0    0     72.81      0.00
    2    0    0     19.34      0.00
    3    0    0     -9.80      0.00
    4    0    0     -7.48      0.00
    5    0    0     11.90      0.00
    6    0    0     -8.81      0.00
    7    0    0      2.63      0.00
    8    0    0      0.21      0.00
    9    0    0     -1.77      0.00
   10    0    0     -6.40      0.00
   11    0    0      0.18      0.00
   12    0    0     -3.01      0.00
   13    0    0     -2.02      0.00
   14    0    0     -0.60      0.00
  -14    1    0     -1.23      0.00
  -13    1    0      2.88      0.00
  -12    1    0     -0.41      0.00
  -11    1    0      1.07      0.00
  -10    1    0     -0.94      0.00
   -9    1    0     -3.80      0.00
   -8    1    0     -1.33      0.00
   -7    1    0      6.83      0.00
   -6    1    0      4.26      0.00
   -5    1    0     -4.82      0.00
   -4    1    0      8.83      0.00
   -3    1    0    -16.25      0.00
   -2    1    0     -3.94      0.00
   -1    1    0    -34.61      0.00
    1    1    0    142.21      0.00
    2    1    0    -28.40      0.00
    3    1    0     33.83      0.00
    4    1    0    -14.92      0.00
    5    1    0     -0.41      0.00
    6    1    0      3.04      0.00
    7    1    0     -6.76      0.00
    8    1    0      4.65      0.00
    9    1    0     -3.92      0.00
   10    1    0      1.07      0.00
   11    1    0     -1.31      0.00
   12    1    0      1.47      0.00
   13    1    0     -3.10      0.00
   14    1    0     -0.03      0.00
  -14    2    0     -4.54      0.00
  -13    2    0      0.26      0.00
  -12    2    0      2.23      0.00
  -11    2    0     -0.14      0.00
  -10    2    0      3.92      0.00
   -9    2    0     -0.20      0.00
   -8    2    0      4.15      0.00
   -7    2    0     -6.03      0.00
   -6    2    0      1.91      0.00
   -5    2    0     -0.32      0.00
   -4    2    0     -5.42      0.00
   -3    2    0    -13.98      0.00
   -2    2    0    -41.90      0.00
   -1    2    0    -27.48      0.00
    0    2    0    -76.79      0.00
    1    2    0    -37.34      0.00
    2    2    0    -26.44      0.00
    3    2    0      4.75      0.00
    4    2    0     35.46      0.00
    5    2    0    -17.14      0.00
    6    2    0      2.82      0.00
    7    2    0      1.14      0.00
    8    2    0      1.44      0.00
    9    2    0      1.90      0.00
   10    2    0     -5.11      0.00
   11    2    0      5.26      0.00
   12    2    0      1.05      0.00
   13    2    0     -0.70      0.00
   14    2    0     -2.80      0.00
  -13    3    0      2.10      0.00
  -12    3    0      3.21      0.00
  -11    3    0      2.56      0.00
  -10    3    0      1.82      0.00
   -9    3    0      1.70      0.00
   -8    3    0      1.10      0.00
   -7    3    0      2.32      0.00
   -6    3    0     -8.05      0.00
   -5    3    0     -0.41      0.00
   -4    3    0      5.15      0.00
   -3    3    0      6.32      0.00
   -2    3    0     -0.53      0.00
   -1    3    0     -5.47      0.00
    0    3    0     10.49      0.00
    1    3    0    -12.28      0.00
    2    3    0    -37.17      0.00
    3    3    0    -51.18      0.00
    4    3    0     30.17      0.00
    5    3    0     -4.96      0.00
    6    3    0     -2.16      0.00
    7    3    0      4.45      0.00
    8    3    0     -2.11      0.00
    9    3    0      3.04      0.00
   10    3    0     -0.58      0.00
   11    3    0     -1.56      0.00
   12    3    0      3.20      0.00
   13    3    0     -1.72      0.00
   14    3    0     -0.19      0.00
  -13    4    0     -1.08      0.00
  -12    4    0      2.51      0.00
  -11    4    0     -2.66      0.00
  -10    4    0      1.73      0.00
   -9    4    0      2.67      0.00
   -8    4    0     -2.01      0.00
   -7    4    0      2.45      0.00
   -6    4    0     -1.50      0.00
   -5    4    0      1.14      0.00
   -4    4    0     -6.80      0.00
   -3    4    0     10.32      0.00
   -2    4    0      8.47      0.00
   -1    4    0     12.40      0.00
    0    4    0     -2.88      0.00
    1    4    0    -16.65      0.00
    2    4    0      7.45      0.00
    3    4    0    -17.74      0.00
    4    4    0    -12.16      0.00
    5    4    0     18.22      0.00
    6    4    0    -22.64      0.00
    7    4    0      9.06      0.00
    8    4    0     -3.15      0.00
    9    4    0     -2.20      0.00
   10    4    0      5.36      0.00
   11    4    0     -0.05      0.00
   12    4    0      1.24      0.00
   13    4    0      0.80      0.00
   14    4    0      0.37      0.00
  -13    5    0     -0.60      0.00
  -12    5    0     -2.06      0.00
  -11    5    0      1.09      0.00
  -10    5    0     -0.99      0.00
   -9    5    0      4.75      0.00
   -8    5    0      0.60      0.00
   -7    5    0     -0.20      0.00
   -6    5    0     -2.15      0.00
   -5    5    0     -4.80      0.00
   -4    5    0      3.91      0.00
   -3    5    0    -18.21      0.00
   -2    5    0     11.18      0.00
   -1    5    0     -3.91      0.00
    0    5    0     22.98      0.00
    1    5    0     -0.40      0.00
    2    5    0    -11.95      0.00
    3    5    0     10.58      0.00
    4    5    0    -12.55      0.00
    5    5    0      3.06      0.00
    6    5    0      1.48      0.00
    7    5    0    -11.25      0.00
    8    5    0      7.18      0.00
    9    5    0     -6.54      0.00
   10    5    0      0.57      0.00
   11    5    0      4.89      0.00
   12    5    0     -2.78      0.00
   13    5    0     -2.30      0.00
   14    5    0     -3.84      0.00
  -12    6    0      1.24      0.00
  -11    6    0      2.47      0.00
  -10    6    0      1.40      0.00
   -9    6    0     -1.45      0.00
   -8    6    0      2.92      0.00
   -7    6    0     -2.74      0.00
   -6    6    0      6.39      0.00
   -5    6    0     -3.42      0.00
   -4    6    0     -0.70      0.00
   -3    6    0      1.36      0.00
   -2    6    0    -13.43      0.00
   -1    6    0      8.90      0.00
    0    6    0    -17.93      0.00
    1    6    0     24.89      0.00
    2    6    0     -2.97      0.00
    3    6    0     -1.09      0.00
    4    6    0     -1.58      0.00
    5    6    0     -9.51      0.00
    6    6    0      6.92      0.00
    7    6    0     -2.13      0.00
    8    6    0      0.84      0.00
    9    6    0     -0.64      0.00
   10    6    0     -5.38      0.00
   11    6    0     -0.59      0.00
   12    6    0      1.32      0.00
   13    6    0     -1.82      0.00
   14    6    0      0.42      0.00
  -12    7    0     -1.73      0.00
  -11    7    0     -2.00      0.00
  -10    7    0     -0.60      0.00
   -9    7    0     -2.68      0.00
   -8    7    0     -1.88      0.00
   -7    7    0     -0.71      0.00
   -6    7    0     -4.64      0.00
   -5    7    0      7.03      0.00
   -4    7    0     -4.52      0.00
   -3    7    0      1.49      0.00
   -2    7    0     -5.53      0.00
   -1    7    0     -4.49      0.00
    0    7    0      0.83      0.00
    1    7    0    -14.60      0.00
    2    7    0     18.27      0.00
    3    7    0      3.91      0.00
    4    7    0     10.40      0.00
    5    7    0     -7.27      0.00
    6    7    0     -0.44      0.00
    7    7    0      3.32      0.00
    8    7    0     -2.13      0.00
    9    7    0      5.02      0.00
   10    7    0     -5.54      0.00
   11    7    0     -1.32      0.00
   12    7    0      0.55      0.00
   13    7    0      2.85      0.00
   14    7    0      1.91      0.00
  -11    8    0     -1.22      0.00
  -10    8    0     -0.01      0.00
   -9    8    0     -1.07      0.00
   -8    8    0     -1.85      0.00
   -7    8    0      3.35      0.00
   -6    8    0     -1.59      0.00
   -5    8    0     -4.39      0.00
   -4    8    0      5.00      0.00
   -3    8    0     -0.94      0.00
   -2    8    0     10.26      0.00
   -1    8    0     -2.36      0.00
    0    8    0      4.62      0.00
    1    8    0     -2.65      0.00
    2    8    0     -4.18      0.00
    3    8    0      1.06      0.00
    4    8    0      3.81      0.00
    5    8    0      7.45      0.00
    6    8    0     -2.79      0.00
    7    8    0      4.34      0.00
    8    8    0     -4.14      0.00
    9    8    0      0.05      0.00
   10    8    0      4.47      0.00
   11    8    0     -4.46      0.00
   12    8    0      3.18      0.00
   13    8    0     -1.78      0.00
   14    8    0     -0.29      0.00
  -11    9    0     -2.07      0.00
  -10    9    0      0.47      0.00
   -9    9    0      0.82      0.00
   -8    9    0     -1.83      0.00
   -7    9    0      0.42      0.00
   -6    9    0      5.04      0.00
   -5    9    0      0.53      0.00
   -4    9    0     -2.92      0.00
   -3    9    0     -0.92      0.00
   -2    9    0      0.71      0.00
   -1    9    0     10.37      0.00
    0    9    0     -4.55      0.00
    1    9    0      1.86      0.00
    2    9    0     -5.15      0.00
    3    9    0      0.83      0.00
    4    9    0     -7.08      0.00
    5    9    0      0.92      0.00
    6    9    0     -1.85      0.00
    7    9    0      1.23      0.00
    8    9    0      3.12      0.00
    9    9    0     -3.03      0.00
   10    9    0      4.26      0.00
   11    9    0      1.53      0.00
   12    9    0     -2.83      0.00
   13    9    0      3.54      0.00
   14    9    0     -3.66      0.00
  -10   10    0     -2.22      0.00
   -9   10    0      0.93      0.00
   -8   10    0      1.03      0.00
   -7   10    0     -1.57      0.00
   -6   10    0      1.19      0.00
   -5   10    0      0.12      0.00
   -4   10    0      1.09      0.00
   -3   10    0     -0.70      0.00
   -2   10    0     -4.38      0.00
   -1   10    0      2.95      0.00
    0   10    0      3.80      0.00
    1   10    0     -2.92      0.00
    2   10    0      0.43      0.00
    3   10    0     -1.82      0.00
    4   10    0      5.19      0.00
    5   10    0     -4.39      0.00
    6   10    0      1.77      0.00
    7   10    0      0.41      0.00
    8   10    0      3.67      0.00
    9   10    0      1.21      0.00
   10   10    0     -0.73      0.00
   11   10    0      0.74      0.00
   12   10    0     -1.58      0.00
   13   10    0      2.59      0.00
   14   10    0      3.87      0.00
  -10   11    0     -0.43      0.00
   -9   11    0     -3.23      0.00
   -8   11    0      1.10      0.00
   -7   11    0      0.85      0.00
   -6   11    0     -1.14      0.00
   -5   11    0     -0.88      0.00
   -4   11    0     -4.42      0.00
   -3   11    0      3.88      0.00
   -2   11    0      1.41      0.00
   -1   11    0     -2.34      0.00
    0   11    0      0.65      0.00
    1   11    0     -2.35      0.00
    2   11    0      5.37      0.00
    3   11    0     -0.76      0.00
    4   11    0     -0.88      0.00
    5   11    0      5.67      0.00
    6   11    0      0.27      0.00
    7   11    0      1.43      0.00
    8   11    0     -2.21      0.00
    9   11    0     -2.57      0.00
   10   11    0     -0.80      0.00
   11   11    0      0.93      0.00
   12   11    0      0.91      0.00
   13   11    0     -0.61      0.00
   -9   12    0      0.12      0.00
   -8   12    0     -4.85      0.00
   -7   12    0      1.22      0.00
   -6   12    0     -1.08      0.00
   -5   12    0     -0.45      0.00
   -4   12    0      0.86      0.00
   -3   12    0     -2.91      0.00
   -2   12    0      5.00      0.00
   -1   12    0     -0.94      0.00
    0   12    0      3.18      0.00
    1   12    0     -0.15      0.00
    2   12    0     -1.42      0.00
    3   12    0      6.83      0.00
    4   12    0     -4.88      0.00
    5   12    0     -1.83      0.00
    6   12    0      0.15      0.00
    7   12    0     -0.24      0.00
    8   12    0     -1.04      0.00
    9   12    0     -1.92      0.00
   10   12    0     -1.47      0.00
   11   12    0      2.39      0.00
   12   12    0      2.26      0.00
   13   12    0     -0.98      0.00
   -8   13    0     -2.59      0.00
   -7   13    0     -0.38      0.00
   -6   13    0      4.75      0.00
   -5   13    0      0.94      0.00
   -4   13    0      1.52      0.00
   -3   13    0      2.52      0.00
   -2   13    0     -1.80      0.00
   -1   13    0      1.22      0.00
    0   13    0     -2.15      0.00
    1   13    0      4.12      0.00
    2   13    0     -3.79      0.00
    3   13    0      0.13      0.00
    4   13    0      5.05      0.00
    5   13    0     -2.25      0.00
    6   13    0      0.10      0.00
    7   13    0     -2.22      0.00
    8   13    0      0.93      0.00
    9   13    0     -0.64      0.00
   10   13    0      1.32      0.00
   11   13    0     -1.55      0.00
   12   13    0     -0.78      0.00
   13   13    0      0.55      0.00
   -7   14    0     -2.30      0.00
   -6   14    0      0.63      0.00
   -5   14    0      0.94      0.00
   -4   14    0     -0.76      0.00
   -3   14    0      0.69      0.00
   -2   14    0     -0.86      0.00
   -1   14    0     -0.39      0.00
    0   14    0     -0.88      0.00
    1   14    0     -3.38      0.00
    2   14    0      0.57      0.00
    3   14    0     -1.63      0.00
    4   14    0      2.04      0.00
    5   14    0      2.21      0.00
    6   14    0      0.49      0.00
    7   14    0     -0.56      0.00
    8   14    0     -2.26      0.00
    9   14    0      0.54      0.00
   10   14    0     -0.18      0.00
   11   14    0      1.50      0.00
   12   14    0      0.13      0.00
   -6   15    0     -3.04      0.00
   -5   15    0     -5.80      0.00
   -4   15    0     -0.95      0.00
   -3   15    0     -0.45      0.00
   -2   15    0     -1.22      0.00
   -1   15    0     -4.30      0.00
    0   15    0     -0.03      0.00
    1   15    0     -1.77      0.00
    2   15    0     -3.22      0.00
    3   15    0     -3.66      0.00
    4   15    0      0.64      0.00
    5   15    0      2.22      0.00
    6   15    0     -0.30      0.00
    7   15    0     -0.82      0.00
    8   15    0     -2.85      0.00
    9   15    0     -1.11      0.00
   10   15    0      0.51      0.00
   11   15    0      1.55      0.00
   12   15    0      1.79      0.00
   -5   16    0      1.12      0.00
   -4   16    0     -3.93      0.00
   -3   16    0      1.38      0.00
   -2   16    0      1.27      0.00
   -1   16    0     -0.37      0.00
    0   16    0      0.29      0.00
    1   16    0      1.67      0.00
    2   16    0     -2.15      0.00
    3   16    0      0.43      0.00
    4   16    0     -1.69      0.00
    5   16    0      2.08      0.00
    6   16    0      1.04      0.00
    7   16    0     -1.25      0.00
    8   16    0     -2.08      0.00
    9   16    0     -2.15      0.00
   10   16    0     -1.55      0.00
   11   16    0      0.01      0.00
   -4   17    0      2.56      0.00
   -3   17    0     -1.60      0.00
   -2   17    0      2.25      0.00
   -1   17    0      3.09      0.00
    0   17    0      1.35      0.00
    1   17    0      1.24      0.00
    2   17    0     -0.20      0.00
    3   17    0      1.86      0.00
    4   17    0      2.59      0.00
    5   17    0     -2.59      0.00
    6   17    0      0.14      0.00
    7   17    0      0.58      0.00
    8   17    0     -0.84      0.00
    9   17    0     -3.91      0.00
   10   17    0     -1.36      0.00
   -2   18    0     -3.82      0.00
   -1   18    0      1.29      0.00
    0   18    0      0.55      0.00
    1   18    0      1.54      0.00
    2   18    0      2.47      0.00
    3   18    0     -1.24      0.00
    4   18    0     -0.49      0.00
    5   18    0     -3.36      0.00
    6   18    0     -1.28      0.00
    7   18    0      0.31      0.00
    8   18    0     -1.77      0.00
    0   19    0      3.82      0.00
    1   19    0     -0.11      0.00
    2   19    0     -1.51      0.00
    3   19    0     -0.09      0.00
    4   19    0      0.26      0.00
    5   19    0      0.94      0.00
    6   19    0     -1.50      0.00
    7   19    0      2.60      0.00
   -6  -19    1      0.69      0.00
   -5  -19    1     -1.66      0.00
   -4  -19    1     -0.90      0.00
   -3  -19    1     -3.20      0.00
   -2  -19    1     -0.95      0.00
   -1  -19    1      1.38      0.00
   -8  -18    1      1.89      0.00
   -7  -18    1     -0.44      0.00
   -6  -18    1      1.36      0.00
   -5  -18    1      2.40      0.00
   -4  -18    1      0.30      0.00
   -3  -18    1      3.28      0.00
   -2  -18    1      2.67      0.00
   -1  -18    1      3.69      0.00
    0  -18    1     -0.96      0.00
    1  -18    1     -3.65      0.00
    2  -18    1      1.96      0.00
   -9  -17    1      3.49      0.00
   -8  -17    1      3.89      0.00
   -7  -17    1      0.98      0.00
   -6  -17    1      0.01      0.00
   -5  -17    1      3.44      0.00
   -4  -17    1      1.05      0.00
   -3  -17    1      1.48      0.00
   -2  -17    1     -2.80      0.00
   -1  -17    1     -4.20      0.00
    0  -17    1     -3.20      0.00
    1  -17    1     -3.48      0.00
    2  -17    1     -1.13      0.00
    3  -17    1      0.31      0.00
    4  -17    1     -2.01      0.00
  -10  -16    1      1.90      0.00
   -9  -16    1      1.78      0.00
   -8  -16    1      3.88      0.00
   -7  -16    1      3.28      0.00
   -6  -16    1     -0.85      0.00
   -5  -16    1     -0.52      0.00
   -4  -16    1     -0.47      0.00
   -3  -16    1     -1.67      0.00
   -2  -16    1      0.04      0.00
   -1  -16    1     -4.00      0.00
    0  -16    1      2.88      0.00
    1  -16    1      2.13      0.00
    2  -16    1     -0.18      0.00
    3  -16    1     -0.92      0.00
    4  -16    1      0.95      0.00
    5  -16    1     -0.71      0.00
  -11  -15    1     -1.11      0.00
  -10  -15    1     -1.29      0.00
   -9  -15    1     -0.96      0.00
   -8  -15    1      0.88      0.00
   -7  -15    1      0.87      0.00
   -6  -15    1      1.81      0.00
   -5  -15    1     -1.37      0.00
   -4  -15    1     -0.78      0.00
   -3  -15    1      0.40      0.00
   -2  -15    1      5.17      0.00
   -1  -15    1      4.69      0.00
    0  -15    1      0.99      0.00
    1  -15    1      3.75      0.00
    2  -15    1     -0.83      0.00
    3  -15    1      0.32      0.00
    4  -15    1      0.21      0.00
    5  -15    1      3.36      0.00
    6  -15    1      2.08      0.00
  -12  -14    1     -0.28      0.00
  -11  -14    1     -1.58      0.00
  -10  -14    1     -1.82      0.00
   -9  -14    1     -1.51      0.00
   -8  -14    1      0.74      0.00
   -7  -14    1      1.74      0.00
   -6  -14    1      1.57      0.00
   -5  -14    1     -2.12      0.00
   -4  -14    1     -2.62      0.00
   -3  -14    1      1.87      0.00
   -2  -14    1      0.02      0.00
   -1  -14    1      2.51      0.00
    0  -14    1      0.28      0.00
    1  -14    1      2.02      0.00
    2  -14    1      1.80      0.00
    3  -14    1     -2.07      0.00
    4  -14    1      0.81      0.00
    5  -14    1     -0.67      0.00
    6  -14    1     -1.46      0.00
    7  -14    1      2.71      0.00
  -12  -13    1     -0.15      0.00
  -11  -13    1      0.82      0.00
  -10  -13    1      0.46      0.00
   -9  -13    1      1.11      0.00
   -8  -13    1      0.26      0.00
   -7  -13    1      0.35      0.00
   -6  -13    1     -0.26      0.00
   -5  -13    1      2.36      0.00
   -4  -13    1     -4.34      0.00
   -3  -13    1     -1.88      0.00
   -2  -13    1      2.51      0.00
   -1  -13    1     -2.62      0.00
    0  -13    1      1.37      0.00
    1  -13    1     -1.24      0.00
    2  -13    1      2.09      0.00
    3  -13    1     -0.91      0.00
    4  -13    1      0.26      0.00
    5  -13    1      0.43      0.00
    6  -13    1     -3.21      0.00
    7  -13    1     -2.37      0.00
    8  -13    1      2.00      0.00
  -13  -12    1      1.65      0.00
  -12  -12    1     -2.76      0.00
  -11  -12    1     -3.19      0.00
  -10  -12    1     -1.06      0.00
   -9  -12    1      1.28      0.00
   -8  -12    1      0.53      0.00
   -7  -12    1     -0.20      0.00
   -6  -12    1     -3.51      0.00
   -5  -12    1      1.99      0.00
   -4  -12    1      6.35      0.00
   -3  -12    1     -2.33      0.00
   -2  -12    1     -1.60      0.00
   -1  -12    1     -1.20      0.00
    0  -12    1     -0.18      0.00
    1  -12    1      0.15      0.00
    2  -12    1     -5.15      0.00
    3  -12    1      1.82      0.00
    4  -12    1     -1.17      0.00
    5  -12    1      2.16      0.00
    6  -12    1      2.07      0.00
    7  -12    1     -0.77      0.00
    8  -12    1      3.22      0.00
    9  -12    1      1.58      0.00
  -13  -11    1     -0.02      0.00
  -12  -11    1     -0.65      0.00
  -11  -11    1      0.55      0.00
  -10  -11    1     -0.57      0.00
   -9  -11    1     -0.31      0.00
   -8  -11    1      1.21      0.00
   -7  -11    1      0.14      0.00
   -6  -11    1      2.18      0.00
   -5  -11    1     -5.31      0.00
   -4  -11    1      0.88      0.00
   -3  -11    1      0.76      0.00
   -2  -11    1      1.88      0.00
   -1  -11    1      0.44      0.00
    0  -11    1     -5.04      0.00
    1  -11    1      1.97      0.00
    2  -11    1     -3.26      0.00
    3  -11    1     -2.83      0.00
    4  -11    1      0.73      0.00
    5  -11    1      0.04      0.00
    6  -11    1      1.48      0.00
    7  -11    1      1.62      0.00
    8  -11    1     -0.07      0.00
    9  -11    1      2.12      0.00
   10  -11    1     -0.41      0.00
  -14  -10    1     -2.15      0.00
  -13  -10    1     -2.02      0.00
  -12  -10    1      1.41      0.00
  -11  -10    1     -1.65      0.00
  -10  -10    1      1.94      0.00
   -9  -10    1      1.09      0.00
   -8  -10    1     -0.29      0.00
   -7  -10    1     -0.24      0.00
   -6  -10    1      0.08      0.00
   -5  -10    1      3.36      0.00
   -4  -10    1     -5.66      0.00
   -3  -10    1     -1.26      0.00
   -2  -10    1     -5.93      0.00
   -1  -10    1      8.16      0.00
    0  -10    1     -2.41      0.00
    1  -10    1     -3.89      0.00
    2  -10    1      2.52      0.00
    3  -10    1     -1.02      0.00
    4  -10    1      4.31      0.00
    5  -10    1     -2.61      0.00
    6  -10    1     -0.57      0.00
    7  -10    1     -0.04      0.00
    8  -10    1      0.56      0.00
    9  -10    1     -1.40      0.00
   10  -10    1      1.00      0.00
  -14   -9    1      1.65      0.00
  -13   -9    1     -3.67      0.00
  -12   -9    1      2.13      0.00
  -11   -9    1     -0.50      0.00
  -10   -9    1     -3.86      0.00
   -9   -9    1      2.01      0.00
   -8   -9    1     -1.67      0.00
   -7   -9    1     -0.72      0.00
   -6   -9    1     -1.63      0.00
   -5   -9    1     -1.85      0.00
   -4   -9    1      3.87      0.00
   -3   -9    1      1.32      0.00
   -2   -9    1      3.43      0.00
   -1   -9    1     -5.67      0.00
    0   -9    1     12.04      0.00
    1   -9    1     -6.90      0.00
    2   -9    1      0.28      0.00
    3   -9    1     -3.64      0.00
    4   -9    1      1.94      0.00
    5   -9    1      2.98      0.00
    6   -9    1     -5.15      0.00
    7   -9    1     -0.82      0.00
    8   -9    1     -1.73      0.00
    9   -9    1      0.92      0.00
   10   -9    1     -0.42      0.00
   11   -9    1      0.99      0.00
  -14   -8    1      0.12      0.00
  -13   -8    1      1.12      0.00
  -12   -8    1     -2.68      0.00
  -11   -8    1      3.93      0.00
  -10   -8    1     -2.34      0.00
   -9   -8    1     -1.64      0.00
   -8   -8    1     -0.82      0.00
   -7   -8    1     -4.86      0.00
   -6   -8    1      2.10      0.00
   -5   -8    1     -3.60      0.00
   -4   -8    1     -2.86      0.00
   -3   -8    1     -6.36      0.00
   -2   -8    1      5.01      0.00
   -1   -8    1      5.44      0.00
    0   -8    1     -5.64      0.00
    1   -8    1      3.13      0.00
    2   -8    1     -9.54      0.00
    3   -8    1      5.40      0.00
    4   -8    1     -6.68      0.00
    5   -8    1      4.25      0.00
    6   -8    1      2.02      0.00
    7   -8    1     -0.18      0.00
    8   -8    1      3.74      0.00
    9   -8    1      1.64      0.00
   10   -8    1      2.00      0.00
   11   -8    1      1.38      0.00
  -14   -7    1     -1.34      0.00
  -13   -7    1     -1.31      0.00
  -12   -7    1      0.68      0.00
  -11   -7    1      3.09      0.00
  -10   -7    1      2.20      0.00
   -9   -7    1     -1.55      0.00
   -8   -7    1      1.93      0.00
   -7   -7    1     -3.42      0.00
   -6   -7    1     -1.92      0.00
   -5   -7    1      4.11      0.00
   -4   -7    1     -3.43      0.00
   -3   -7    1     -0.08      0.00
   -2   -7    1    -19.98      0.00
   -1   -7    1      6.25      0.00
    0   -7    1      0.15      0.00
    1   -7    1      2.10      0.00
    2   -7    1      0.26      0.00
    3   -7    1     -3.13      0.00
    4   -7    1      6.41      0.00
    5   -7    1     -5.68      0.00
    6   -7    1      2.23      0.00
    7   -7    1     -0.51      0.00
    8   -7    1      1.99      0.00
    9   -7    1      1.47      0.00
   10   -7    1     -0.13      0.00
   11   -7    1     -0.97      0.00
   12   -7    1      0.47      0.00
  -14   -6    1     -1.66      0.00
  -13   -6    1      0.54      0.00
  -12   -6    1     -2.08      0.00
  -11   -6    1     -1.61      0.00
  -10   -6    1      6.62      0.00
   -9   -6    1     -2.20      0.00
   -8   -6    1      3.87      0.00
   -7   -6    1      0.65      0.00
   -6   -6    1     -2.74      0.00
   -5   -6    1      4.33      0.00
   -4   -6    1      3.43      0.00
   -3   -6    1      5.27      0.00
   -2   -6    1      6.54      0.00
   -1   -6    1    -22.51      0.00
    0   -6    1      3.03      0.00
    1   -6    1     -6.64      0.00
    2   -6    1     12.27      0.00
    3   -6    1     -0.21      0.00
    4   -6    1      0.58      0.00
    5   -6    1      0.89      0.00
    6   -6    1     -4.21      0.00
    7   -6    1     -0.13      0.00
    8   -6    1     -4.36      0.00
    9   -6    1      0.64      0.00
   10   -6    1      0.06      0.00
   11   -6    1      0.62      0.00
   12   -6    1     -0.44      0.00
  -14   -5    1      3.04      0.00
  -13   -5    1      2.53      0.00
  -12   -5    1      2.94      0.00
  -11   -5    1     -5.14      0.00
  -10   -5    1     -1.22      0.00
   -9   -5    1      8.12      0.00
   -8   -5    1     -5.97      0.00
   -7   -5    1     12.04      0.00
   -6   -5    1     -3.70      0.00
   -5   -5    1      2.13      0.00
   -4   -5    1      3.19      0.00
   -3   -5    1     -5.08      0.00
   -2   -5    1      6.72      0.00
   -1   -5    1     13.39      0.00
    0   -5    1     -8.14      0.00
    1   -5    1     -5.00      0.00
    2   -5    1     -5.82      0.00
    3   -5    1     13.16      0.00
    4   -5    1      2.48      0.00
    5   -5    1      3.65      0.00
    6   -5    1     -1.51      0.00
    7   -5    1      1.89      0.00
    8   -5    1      1.81      0.00
    9   -5    1     -0.88      0.00
   10   -5    1      2.17      0.00
   11   -5    1      1.26      0.00
   12   -5    1      1.83      0.00
   13   -5    1      0.20      0.00
  -14   -4    1     -1.76      0.00
  -13   -4    1      1.24      0.00
  -12   -4    1      1.61      0.00
  -11   -4    1      3.42      0.00
  -10   -4    1     -5.29      0.00
   -9   -4    1      1.23      0.00
   -8   -4    1      0.63      0.00
   -7   -4    1     -5.92      0.00
   -6   -4    1     17.86      0.00
   -5   -4    1    -16.03      0.00
   -4   -4    1      8.81      0.00
   -3   -4    1      9.00      0.00
   -2   -4    1      3.22      0.00
   -1   -4    1     -1.43      0.00
    0   -4    1      6.51      0.00
    1   -4    1     -0.07      0.00
    2   -4    1    -11.47      0.00
    3   -4    1     -6.67      0.00
    4   -4    1     -2.82      0.00
    5   -4    1      7.32      0.00
    6   -4    1      1.45      0.00
    7   -4    1     -2.41      0.00
    8   -4    1      0.21      0.00
    9   -4    1     -5.15      0.00
   10   -4    1     -1.74      0.00
   11   -4    1     -1.19      0.00
   12   -4    1     -2.83      0.00
   13   -4    1      1.63      0.00
  -14   -3    1     -0.15      0.00
  -13   -3    1      0.07      0.00
  -12   -3    1     -3.53      0.00
  -11   -3    1     -1.12      0.00
  -10   -3    1      0.44      0.00
   -9   -3    1     -1.71      0.00
   -8   -3    1      0.78      0.00
   -7   -3    1     -8.19      0.00
   -6   -3    1      9.73      0.00
   -5   -3    1      8.39      0.00
   -4   -3    1    -22.15      0.00
   -3   -3    1     23.93      0.00
   -2   -3    1     20.51      0.00
   -1   -3    1     30.40      0.00
    0   -3    1    -13.12      0.00
    1   -3    1      1.52      0.00
    2   -3    1     -1.22      0.00
    3   -3    1     -3.04      0.00
    4   -3    1     -0.20      0.00
    5   -3    1     -9.36      0.00
    6   -3    1     12.79      0.00
    7   -3    1     -2.19      0.00
    8   -3    1      2.42      0.00
    9   -3    1     -2.95      0.00
   10   -3    1     -2.24      0.00
   11   -3    1      0.59      0.00
   12   -3    1     -2.59      0.00
   13   -3    1     -2.78      0.00
  -14   -2    1      1.48      0.00
  -13   -2    1      2.16      0.00
  -12   -2    1     -1.01      0.00
  -11   -2    1     -4.11      0.00
  -10   -2    1      3.61      0.00
   -9   -2    1      0.10      0.00
   -8   -2    1      4.41      0.00
   -7   -2    1     -3.41      0.00
   -6   -2    1     -7.87      0.00
   -5   -2    1     19.35      0.00
   -4   -2    1    -27.77      0.00
   -3   -2    1     13.73      0.00
   -2   -2    1     24.04      0.00
   -1   -2    1     19.53      0.00
    0   -2    1     70.27      0.00
    1   -2    1      0.69      0.00
    2   -2    1     26.81      0.00
    3   -2    1      6.40      0.00
    4   -2    1     10.38      0.00
    5   -2    1      3.50      0.00
    6   -2    1     -7.36      0.00
    7   -2    1      7.08      0.00
    8   -2    1     -3.10      0.00
    9   -2    1      5.34      0.00
   10   -2    1     -6.41      0.00
   11   -2    1      0.13      0.00
   12   -2    1     -3.47      0.00
   13   -2    1     -3.10      0.00
   14   -2    1      2.51      0.00
  -14   -1    1     -1.59      0.00
  -13   -1    1      4.52      0.00
  -12   -1    1      1.74      0.00
  -11   -1    1      0.51      0.00
  -10   -1    1     -0.01      0.00
   -9   -1    1      0.76      0.00
   -8   -1    1     -5.09      0.00
   -7   -1    1      5.39      0.00
   -6   -1    1     -5.52      0.00
   -5   -1    1     -2.94      0.00
   -4   -1    1      8.40      0.00
   -3   -1    1    -29.74      0.00
   -2   -1    1     58.27      0.00
   -1   -1    1   -113.11      0.00
    0   -1    1    -66.25      0.00
    1   -1    1     44.34      0.00
    2   -1    1     25.42      0.00
    3   -1    1     40.46      0.00
    4   -1    1     -7.62      0.00
    5   -1    1      5.74      0.00
    6   -1    1     -2.22      0.00
    7   -1    1     -5.40      0.00
    8   -1    1     -2.45      0.00
    9   -1    1     -0.95      0.00
   10   -1    1      2.56      0.00
   11   -1    1     -2.22      0.00
   12   -1    1      2.29      0.00
   13   -1    1     -2.84      0.00
   14   -1    1      0.81      0.00
  -14    0    1      0.67      0.00
  -13    0    1      0.31      0.00
  -12    0    1      2.60      0.00
  -11    0    1     -2.38      0.00
  -10    0    1      2.78      0.00
   -9    0    1      5.67      0.00
   -8    0    1     -1.71      0.00
   -7    0    1     -0.87      0.00
   -6    0    1      6.70      0.00
   -5    0    1      0.05      0.00
   -4    0    1      2.42      0.00
   -3    0    1     -5.04      0.00
   -2    0    1    -13.30      0.00
   -1    0    1      9.62      0.00
    1    0    1    -99.72      0.00
    2    0    1    -32.11      0.00
    3    0    1      7.19      0.00
    4    0    1     16.47      0.00
    5    0    1    -12.99      0.00
    6    0    1      6.68      0.00
    7    0    1     -3.53      0.00
    8    0    1      0.91      0.00
    9    0    1      0.92      0.00
   10    0    1      7.54      0.00
   11    0    1      2.39      0.00
   12    0    1      2.04      0.00
   13    0    1      1.91      0.00
   14    0    1     -1.34      0.00
  -14    1    1      1.59      0.00
  -13    1    1     -1.36      0.00
  -12    1    1     -1.12      0.00
  -11    1    1      0.80      0.00
  -10    1    1      0.04      0.00
   -9    1    1      3.31      0.00
   -8    1    1      4.72      0.00
   -7    1    1     -3.91      0.00
   -6    1    1      0.96      0.00
   -5    1    1     -4.34      0.00
   -4    1    1     -0.88      0.00
   -3    1    1      6.06      0.00
   -2    1    1      8.58      0.00
   -1    1    1     14.75      0.00
    1    1    1   -161.34      0.00
    2    1    1    -39.48      0.00
    3    1    1    -56.94      0.00
    4    1    1      7.95      0.00
    5    1    1      5.42      0.00
    6    1    1      0.81      0.00
    7    1    1      4.40      0.00
    8    1    1     -5.08      0.00
    9    1    1      5.26      0.00
   10    1    1     -1.04      0.00
   11    1    1      0.70      0.00
   12    1    1     -2.31      0.00
   13    1    1      1.99      0.00
   14    1    1      3.75      0.00
  -14    2    1      4.79      0.00
  -13    2    1      1.59      0.00
  -12    2    1      0.04      0.00
  -11    2    1     -1.52      0.00
  -10    2    1     -0.80      0.00
   -9    2    1     -3.17      0.00
   -8    2    1     -5.38      0.00
   -7    2    1      0.03      0.00
   -6    2    1     -0.93      0.00
   -5    2    1     -0.15      0.00
   -4    2    1     -9.40      0.00
   -3    2    1      6.79      0.00
   -2    2    1     14.82      0.00
   -1    2    1     21.98      0.00
    0    2    1     26.77      0.00
    1    2    1     29.73      0.00
    2    2    1     56.95      0.00
    3    2    1      1.75      0.00
    4    2    1    -34.02      0.00
    5    2    1      1.69      0.00
    6    2    1     -2.62      0.00
    7    2    1      5.19      0.00
    8    2    1     -1.94      0.00
    9    2    1     -4.18      0.00
   10    2    1      4.46      0.00
   11    2    1     -3.18      0.00
   12    2    1     -0.48      0.00
   13    2    1     -0.79      0.00
   14    2    1      1.12      0.00
  -13    3    1      0.95      0.00
  -12    3    1      0.28      0.00
  -11    3    1     -0.30      0.00
  -10    3    1     -2.22      0.00
   -9    3    1      1.92      0.00
   -8    3    1     -0.96      0.00
   -7    3    1     -0.41      0.00
   -6    3    1      0.67      0.00
   -5    3    1     10.31      0.00
   -4    3    1      2.69      0.00
   -3    3    1     -0.38      0.00
   -2    3    1      4.95      0.00
   -1    3    1      8.56      0.00
    0    3    1     32.66      0.00
    1    3    1     19.06      0.00
    2    3    1     39.92      0.00
    3    3    1     69.82      0.00
    4    3    1    -33.21      0.00
    5    3    1      8.52      0.00
    6    3    1     -4.77      0.00
    7    3    1     -1.37      0.00
    8    3    1      1.74      0.00
    9    3    1     -2.37      0.00
   10    3    1      0.06      0.00
   11    3    1      0.24      0.00
   12    3    1     -5.75      0.00
   13    3    1      0.01      0.00
   14    3    1     -0.43      0.00
   15    3    1     -0.28      0.00
  -13    4    1     -0.42      0.00
  -12    4    1     -3.58      0.00
  -11    4    1      1.90      0.00
  -10    4    1     -2.70      0.00
   -9    4    1     -3.20      0.00
   -8    4    1     -0.42      0.00
   -7    4    1     -2.41      0.00
   -6    4    1      5.82      0.00
   -5    4    1     -8.44      0.00
   -4    4    1      9.47      0.00
   -3    4    1    -13.91      0.00
   -2    4    1     -0.93      0.00
   -1    4    1    -14.57      0.00
    0    4    1    -11.31      0.00
    1    4    1     19.95      0.00
    2    4    1    -18.18      0.00
    3    4    1     19.45      0.00
    4    4    1     21.02      0.00
    5    4    1    -20.13      0.00
    6    4    1     25.57      0.00
    7    4    1    -13.06      0.00
    8    4    1      3.67      0.00
    9    4    1      0.35      0.00
   10    4    1     -1.30      0.00
   11    4    1      0.05      0.00
   12    4    1     -0.03      0.00
   13    4    1     -0.37      0.00
   14    4    1      3.09      0.00
   15    4    1     -0.21      0.00
  -13    5    1     -2.60      0.00
  -12    5    1     -0.27      0.00
  -11    5    1     -3.03      0.00
  -10    5    1      1.12      0.00
   -9    5    1     -4.19      0.00
   -8    5    1     -0.50      0.00
   -7    5    1     -2.15      0.00
   -6    5    1      1.78      0.00
   -5    5    1      6.29      0.00
   -4    5    1     -9.91      0.00
   -3    5    1     14.11      0.00
   -2    5    1    -18.92      0.00
   -1    5    1     11.09      0.00
    0    5    1    -22.61      0.00
    1    5    1    -11.27      0.00
    2    5    1     12.76      0.00
    3    5    1    -15.59      0.00
    4    5    1     13.75      0.00
    5    5    1     -6.15      0.00
    6    5    1     -1.98      0.00
    7    5    1      8.81      0.00
    8    5    1     -7.01      0.00
    9    5    1      7.24      0.00
   10    5    1     -0.86      0.00
   11    5    1     -1.53      0.00
   12    5    1      2.02      0.00
   13    5    1      1.55      0.00
   14    5    1      0.89      0.00
   15    5    1      1.75      0.00
  -12    6    1      2.32      0.00
  -11    6    1      0.54      0.00
  -10    6    1     -0.55      0.00
   -9    6    1      0.91      0.00
   -8    6    1      0.22      0.00
   -7    6    1      6.10      0.00
   -6    6    1     -4.05      0.00
   -5    6    1      4.61      0.00
   -4    6    1      3.79      0.00
   -3    6    1      5.66      0.00
   -2    6    1     18.39      0.00
   -1    6    1    -10.77      0.00
    0    6    1     18.93      0.00
    1    6    1    -19.93      0.00
    2    6    1     -4.21      0.00
    3    6    1     -7.57      0.00
    4    6    1     -2.15      0.00
    5    6    1     12.26      0.00
    6    6    1     -4.02      0.00
    7    6    1      5.62      0.00
    8    6    1     -6.32      0.00
    9    6    1      1.12      0.00
   10    6    1      3.25      0.00
   11    6    1     -1.44      0.00
   12    6    1     -3.39      0.00
   13    6    1      0.45      0.00
   14    6    1      0.85      0.00
   15    6    1      0.28      0.00
  -12    7    1      0.12      0.00
  -11    7    1      0.67      0.00
  -10    7    1     -3.28      0.00
   -9    7    1      0.00      0.00
   -8    7    1     -2.57      0.00
   -7    7    1     -1.04      0.00
   -6    7    1      3.74      0.00
   -5    7    1     -6.19      0.00
   -4    7    1     -0.56      0.00
   -3    7    1     -5.09      0.00
   -2    7    1      5.54      0.00
   -1    7    1      5.91      0.00
    0    7    1      1.48      0.00
    1    7    1     12.98      0.00
    2    7    1     -6.87      0.00
    3    7    1      0.28      0.00
    4    7    1    -12.32      0.00
    5    7    1      5.88      0.00
    6    7    1     -1.24      0.00
    7    7    1      2.21      0.00
    8    7    1      5.95      0.00
    9    7    1     -8.35      0.00
   10    7    1      6.79      0.00
   11    7    1      1.84      0.00
   12    7    1      1.97      0.00
   13    7    1     -1.30      0.00
   14    7    1     -0.40      0.00
  -11    8    1      0.89      0.00
  -10    8    1     -0.30      0.00
   -9    8    1      2.26      0.00
   -8    8    1      4.29      0.00
   -7    8    1     -3.13      0.00
   -6    8    1      0.84      0.00
   -5    8    1      2.59      0.00
   -4    8    1      1.78      0.00
   -3    8    1      0.45      0.00
   -2    8    1     -7.68      0.00
   -1    8    1     -1.47      0.00
    0    8    1     -1.58      0.00
    1    8    1      8.75      0.00
    2    8    1     -0.86      0.00
    3    8    1      3.82      0.00
    4    8    1     -6.13      0.00
    5    8    1     -5.14      0.00
    6    8    1      3.73      0.00
    7    8    1     -7.85      0.00
    8    8    1      5.44      0.00
    9    8    1      1.84      0.00
   10    8    1     -4.58      0.00
   11    8    1      4.68      0.00
   12    8    1     -3.68      0.00
   13    8    1      0.20      0.00
   14    8    1     -1.19      0.00
  -11    9    1      3.86      0.00
  -10    9    1      1.74      0.00
   -9    9    1     -0.50      0.00
   -8    9    1      3.27      0.00
   -7    9    1     -0.55      0.00
   -6    9    1     -3.05      0.00
   -5    9    1     -1.58      0.00
   -4    9    1     -0.95      0.00
   -3    9    1      4.63      0.00
   -2    9    1     -2.30      0.00
   -1    9    1     -8.49      0.00
    0    9    1     -6.39      0.00
    1    9    1     -1.39      0.00
    2    9    1      9.06      0.00
    3    9    1     -2.88      0.00
    4    9    1     10.82      0.00
    5    9    1     -5.34      0.00
    6    9    1      3.28      0.00
    7    9    1     -3.36      0.00
    8    9    1     -5.12      0.00
    9    9    1      1.98      0.00
   10    9    1     -2.78      0.00
   11    9    1     -1.69      0.00
   12    9    1      0.70      0.00
   13    9    1     -5.66      0.00
   14    9    1      2.30      0.00
  -10   10    1      1.49      0.00
   -9   10    1     -2.42      0.00
   -8   10    1     -3.65      0.00
   -7   10    1      1.12      0.00
   -6   10    1     -2.66      0.00
   -5   10    1      2.69      0.00
   -4   10    1     -4.76      0.00
   -3   10    1     -1.39      0.00
   -2   10    1      4.75      0.00
   -1   10    1     -0.03      0.00
    0   10    1      2.16      0.00
    1   10    1     -4.62      0.00
    2   10    1     -1.97      0.00
    3   10    1      2.26      0.00
    4   10    1     -4.39      0.00
    5   10    1      4.64      0.00
    6   10    1     -4.22      0.00
    7   10    1      3.16      0.00
    8   10    1     -2.33      0.00
    9   10    1      0.68      0.00
   10   10    1     -2.60      0.00
   11   10    1     -1.38      0.00
   12   10    1      1.49      0.00
   13   10    1      0.01      0.00
   14   10    1     -2.85      0.00
  -10   11    1      1.05      0.00
   -9   11    1      1.85      0.00
   -8   11    1      0.91      0.00
   -7   11    1     -0.68      0.00
   -6   11    1      0.72      0.00
   -5   11    1     -0.98      0.00
   -4   11    1      6.57      0.00
   -3   11    1     -3.35      0.00
   -2   11    1      1.86      0.00
   -1   11    1     -0.08      0.00
    0   11    1     -1.55      0.00
    1   11    1      5.31      0.00
    2   11    1     -6.75      0.00
    3   11    1     -0.61      0.00
    4   11    1      0.99      0.00
    5   11    1     -1.95      0.00
    6   11    1      1.82      0.00
    7   11    1     -2.56      0.00
    8   11    1      0.15      0.00
    9   11    1      1.98      0.00
   10   11    1      2.82      0.00
   11   11    1     -1.94      0.00
   12   11    1      1.01      0.00
   13   11    1      1.47      0.00
   14   11    1     -2.27      0.00
   -9   12    1      1.24      0.00
   -8   12    1      4.28      0.00
   -7   12    1     -1.07      0.00
   -6   12    1     -0.99      0.00
   -5   12    1     -0.36      0.00
   -4   12    1     -0.49      0.00
   -3   12    1      2.64      0.00
   -2   12    1     -2.98      0.00
   -1   12    1      2.69      0.00
    0   12    1     -3.09      0.00
    1   12    1      0.99      0.00
    2   12    1      4.75      0.00
    3   12    1     -6.70      0.00
    4   12    1      2.01      0.00
    5   12    1      0.97      0.00
    6   12    1      0.12      0.00
    7   12    1     -0.26      0.00
    8   12    1     -0.18      0.00
    9   12    1      1.51      0.00
   10   12    1      4.39      0.00
   11   12    1      1.56      0.00
   12   12    1     -1.05      0.00
   13   12    1     -0.78      0.00
   -8   13    1      1.71      0.00
   -7   13    1      2.09      0.00
   -6   13    1     -3.23      0.00
   -5   13    1     -1.06      0.00
   -4   13    1     -1.50      0.00
   -3   13    1     -2.82      0.00
   -2   13    1     -1.12      0.00
   -1   13    1     -0.97      0.00
    0   13    1      2.39      0.00
    1   13    1     -2.90      0.00
    2   13    1      0.49      0.00
    3   13    1      0.73      0.00
    4   13    1     -3.17      0.00
    5   13    1      0.91      0.00
    6   13    1     -1.23      0.00
    7   13    1      2.91      0.00
    8   13    1      0.04      0.00
    9   13    1      2.23      0.00
   10   13    1     -0.63      0.00
   11   13    1     -0.11      0.00
   12   13    1     -1.54      0.00
   13   13    1      0.01      0.00
   -7   14    1      1.83      0.00
   -6   14    1      0.74      0.00
   -5   14    1     -1.41      0.00
   -4   14    1     -2.01      0.00
   -3   14    1     -0.57      0.00
   -2   14    1      0.17      0.00
   -1   14    1     -0.16      0.00
    0   14    1     -0.46      0.00
    1   14    1      1.11      0.00
    2   14    1      2.49      0.00
    3   14    1      2.40      0.00
    4   14    1     -1.68      0.00
    5   14    1     -3.11      0.00
    6   14    1     -2.12      0.00
    7   14    1      0.52      0.00
    8   14    1      3.66      0.00
    9   14    1     -1.39      0.00
   10   14    1      0.50      0.00
   11   14    1     -0.98      0.00
   12   14    1      0.37      0.00
   -7   15    1      2.92      0.00
   -6   15    1      0.74      0.00
   -5   15    1      5.89      0.00
   -4   15    1      2.85      0.00
   -3   15    1     -0.15      0.00
   -2   15    1      2.37      0.00
   -1   15    1      2.27      0.00
    0   15    1     -0.42      0.00
    1   15    1      0.46      0.00
    2   15    1      0.86      0.00
    3   15    1      4.96      0.00
    4   15    1     -0.50      0.00
    5   15    1     -1.11      0.00
    6   15    1      0.63      0.00
    7   15    1     -1.05      0.00
    8   15    1      1.32      0.00
    9   15    1      1.81      0.00
   10   15    1     -0.09      0.00
   11   15    1     -0.18      0.00
   12   15    1     -0.37      0.00
   -5   16    1     -2.25      0.00
   -4   16    1      5.29      0.00
   -3   16    1     -0.12      0.00
   -2   16    1     -1.00      0.00
   -1   16    1      1.07      0.00
    0   16    1     -0.62      0.00
    1   16    1      1.43      0.00
    2   16    1      2.38      0.00
    3   16    1     -2.51      0.00
    4   16    1      3.61      0.00
    5   16    1     -1.34      0.00
    6   16    1     -0.17      0.00
    7   16    1     -0.36      0.00
    8   16    1      0.49      0.00
    9   16    1      2.91      0.00
   10   16    1      3.05      0.00
   11   16    1      0.00      0.00
   -4   17    1     -2.88      0.00
   -3   17    1      2.20      0.00
   -2   17    1      0.10      0.00
   -1   17    1      0.59      0.00
    0   17    1     -0.83      0.00
    1   17    1     -5.35      0.00
    2   17    1     -1.22      0.00
    3   17    1     -2.04      0.00
    4   17    1     -4.03      0.00
    5   17    1      0.73      0.00
    6   17    1     -1.65      0.00
    7   17    1      0.36      0.00
    8   17    1     -1.12      0.00
    9   17    1      2.50      0.00
   10   17    1      2.01      0.00
   -3   18    1      0.36      0.00
   -2   18    1      1.61      0.00
   -1   18    1     -2.36      0.00
    0   18    1     -1.95      0.00
    1   18    1     -2.16      0.00
    2   18    1     -2.25      0.00
    3   18    1      0.52      0.00
    4   18    1     -0.88      0.00
    5   18    1      2.98      0.00
    6   18    1      1.53      0.00
    7   18    1      0.05      0.00
    8   18    1     -0.20      0.00
    9   18    1     -1.69      0.00
   -1   19    1      0.43      0.00
    0   19    1     -1.71      0.00
    1   19    1      2.44      0.00
    2   19    1      3.23      0.00
    3   19    1      1.09      0.00
    4   19    1     -1.33      0.00
    5   19    1      1.08      0.00
    6   19    1      4.16      0.00
    7   19    1     -2.17      0.00
   -4  -19    2      1.14      0.00
   -3  -19    2      2.53      0.00
   -2  -19    2      1.12      0.00
   -7  -18    2     -0.28      0.00
   -6  -18    2     -0.05      0.00
   -5  -18    2     -2.21      0.00
   -4  -18    2     -1.55      0.00
   -3  -18    2     -1.59      0.00
   -2  -18    2      1.86      0.00
   -1  -18    2     -1.58      0.00
    0  -18    2      0.08      0.00
    1  -18    2      1.01      0.00
   -9  -17    2     -2.18      0.00
   -8  -17    2     -4.82      0.00
   -7  -17    2     -1.45      0.00
   -6  -17    2      0.21      0.00
   -5  -17    2     -3.53      0.00
   -4  -17    2     -1.07      0.00
   -3  -17    2     -3.24      0.00
   -2  -17    2      1.38      0.00
   -1  -17    2      1.21      0.00
    0  -17    2     -2.14      0.00
    1  -17    2      1.04      0.00
    2  -17    2     -2.09      0.00
    3  -17    2     -0.48      0.00
  -10  -16    2     -0.18      0.00
   -9  -16    2      0.88      0.00
   -8  -16    2     -2.54      0.00
   -7  -16    2     -4.25      0.00
   -6  -16    2     -1.50      0.00
   -5  -16    2     -1.20      0.00
   -4  -16    2      0.80      0.00
   -3  -16    2      0.22      0.00
   -2  -16    2     -3.54      0.00
   -1  -16    2      4.24      0.00
    0  -16    2      0.17      0.00
    1  -16    2      1.26      0.00
    2  -16    2      0.23      0.00
    3  -16    2     -2.93      0.00
    4  -16    2      0.76      0.00
    5  -16    2      3.04      0.00
  -11  -15    2     -0.17      0.00
  -10  -15    2      0.66      0.00
   -9  -15    2      0.50      0.00
   -8  -15    2     -0.77      0.00
   -7  -15    2     -1.74      0.00
   -6  -15    2     -2.44      0.00
   -5  -15    2      1.13      0.00
   -4  -15    2     -0.30      0.00
   -3  -15    2      1.66      0.00
   -2  -15    2     -1.99      0.00
   -1  -15    2     -0.11      0.00
    0  -15    2      0.93      0.00
    1  -15    2     -4.10      0.00
    2  -15    2      1.48      0.00
    3  -15    2      1.86      0.00
    4  -15    2      0.98      0.00
    5  -15    2     -1.07      0.00
    6  -15    2     -0.77      0.00
  -12  -14    2      1.21      0.00
  -11  -14    2      1.16      0.00
  -10  -14    2      0.86      0.00
   -9  -14    2      2.10      0.00
   -8  -14    2      1.59      0.00
   -7  -14    2      0.13      0.00
   -6  -14    2     -0.93      0.00
   -5  -14    2      1.26      0.00
   -4  -14    2      1.80      0.00
   -3  -14    2     -0.50      0.00
   -2  -14    2     -0.92      0.00
   -1  -14    2     -3.85      0.00
    0  -14    2     -0.99      0.00
    1  -14    2     -3.89      0.00
    2  -14    2     -1.03      0.00
    3  -14    2      2.10      0.00
    4  -14    2      0.43      0.00
    5  -14    2     -0.22      0.00
    6  -14    2      0.40      0.00
    7  -14    2     -1.63      0.00
  -12  -13    2      0.46      0.00
  -11  -13    2      0.56      0.00
  -10  -13    2     -0.16      0.00
   -9  -13    2      0.12      0.00
   -8  -13    2      0.11      0.00
   -7  -13    2      1.28      0.00
   -6  -13    2     -0.68      0.00
   -5  -13    2     -3.68      0.00
   -4  -13    2      2.36      0.00
   -3  -13    2      2.38      0.00
   -2  -13    2      1.64      0.00
   -1  -13    2     -1.08      0.00
    0  -13    2     -2.51      0.00
    1  -13    2      0.36      0.00
    2  -13    2     -2.67      0.00
    3  -13    2      0.08      0.00
    4  -13    2     -2.80      0.00
    5  -13    2     -1.59      0.00
    6  -13    2      0.87      0.00
    7  -13    2      4.51      0.00
    8  -13    2     -0.68      0.00
  -13  -12    2     -3.82      0.00
  -12  -12    2      0.44      0.00
  -11  -12    2      1.55      0.00
  -10  -12    2      2.06      0.00
   -9  -12    2     -0.51      0.00
   -8  -12    2     -0.96      0.00
   -7  -12    2     -2.55      0.00
   -6  -12    2      3.59      0.00
   -5  -12    2     -0.54      0.00
   -4  -12    2     -2.24      0.00
   -3  -12    2     -2.28      0.00
   -2  -12    2     -0.23      0.00
   -1  -12    2      4.90      0.00
    0  -12    2      0.42      0.00
    1  -12    2      0.91      0.00
    2  -12    2      2.73      0.00
    3  -12    2     -0.16      0.00
    4  -12    2      2.80      0.00
    5  -12    2     -2.52      0.00
    6  -12    2     -1.80      0.00
    7  -12    2     -1.32      0.00
    8  -12    2     -0.01      0.00
    9  -12    2     -1.00      0.00
  -13  -11    2      0.58      0.00
  -12  -11    2      2.48      0.00
  -11  -11    2      1.20      0.00
  -10  -11    2      0.51      0.00
   -9  -11    2     -0.20      0.00
   -8  -11    2     -1.53      0.00
   -7  -11    2      0.15      0.00
   -6  -11    2     -2.32      0.00
   -5  -11    2      4.35      0.00
   -4  -11    2     -2.12      0.00
   -3  -11    2      1.99      0.00
   -2  -11    2     -6.59      0.00
   -1  -11    2     -1.41      0.00
    0  -11    2      6.12      0.00
    1  -11    2     -0.25      0.00
    2  -11    2      5.80      0.00
    3  -11    2      1.40      0.00
    4  -11    2      0.31      0.00
    5  -11    2      2.32      0.00
    6  -11    2     -0.94      0.00
    7  -11    2     -3.08      0.00
    8  -11    2     -2.59      0.00
    9  -11    2      0.28      0.00
   10  -11    2     -0.80      0.00
  -13  -10    2      3.21      0.00
  -12  -10    2      1.60      0.00
  -11  -10    2      1.73      0.00
  -10  -10    2     -1.23      0.00
   -9  -10    2     -1.81      0.00
   -8  -10    2     -0.68      0.00
   -7  -10    2      0.60      0.00
   -6  -10    2      1.20      0.00
   -5  -10    2     -0.55      0.00
   -4  -10    2      2.95      0.00
   -3  -10    2      1.22      0.00
   -2  -10    2      9.91      0.00
   -1  -10    2     -9.24      0.00
    0  -10    2     -3.48      0.00
    1  -10    2      1.88      0.00
    2  -10    2      0.89      0.00
    3  -10    2      5.54      0.00
    4  -10    2     -5.93      0.00
    5  -10    2      1.97      0.00
    6  -10    2      0.40      0.00
    7  -10    2      2.27      0.00
    8  -10    2     -1.44      0.00
    9  -10    2     -1.26      0.00
   10  -10    2      1.47      0.00
  -14   -9    2      0.63      0.00
  -13   -9    2      3.61      0.00
  -12   -9    2     -3.59      0.00
  -11   -9    2     -1.92      0.00
  -10   -9    2      1.04      0.00
   -9   -9    2      1.47      0.00
   -8   -9    2      2.58      0.00
   -7   -9    2      1.08      0.00
   -6   -9    2     -0.52      0.00
   -5   -9    2      0.98      0.00
   -4   -9    2      0.42      0.00
   -3   -9    2     -1.31      0.00
   -2   -9    2     -3.09      0.00
   -1   -9    2      6.46      0.00
    0   -9    2     -7.75      0.00
    1   -9    2      3.16      0.00
    2   -9    2     -3.06      0.00
    3   -9    2      1.79      0.00
    4   -9    2     -0.57      0.00
    5   -9    2     -5.89      0.00
    6   -9    2      2.04      0.00
    7   -9    2     -1.97      0.00
    8   -9    2      2.97      0.00
    9   -9    2     -1.57      0.00
   10   -9    2     -0.05      0.00
   11   -9    2      0.41      0.00
  -14   -8    2     -1.06      0.00
  -13   -8    2     -2.30      0.00
  -12   -8    2      0.88      0.00
  -11   -8    2     -2.67      0.00
  -10   -8    2      1.58      0.00
   -9   -8    2      0.04      0.00
   -8   -8    2      1.14      0.00
   -7   -8    2      2.05      0.00
   -6   -8    2      1.69      0.00
   -5   -8    2     -0.58      0.00
   -4   -8    2      0.77      0.00
   -3   -8    2      4.57      0.00
   -2   -8    2     -0.41      0.00
   -1   -8    2     -5.05      0.00
    0   -8    2      1.35      0.00
    1   -8    2     -2.24      0.00
    2   -8    2      6.90      0.00
    3   -8    2     -5.17      0.00
    4   -8    2      4.71      0.00
    5   -8    2     -2.13      0.00
    6   -8    2      0.73      0.00
    7   -8    2      0.13      0.00
    8   -8    2     -1.79      0.00
    9   -8    2      1.32      0.00
   10   -8    2     -1.97      0.00
   11   -8    2     -1.85      0.00
  -14   -7    2      0.99      0.00
  -13   -7    2      2.27      0.00
  -12   -7    2      1.75      0.00
  -11   -7    2     -1.77      0.00
  -10   -7    2      0.23      0.00
   -9   -7    2     -0.25      0.00
   -8   -7    2     -1.26      0.00
   -7   -7    2      2.01      0.00
   -6   -7    2      2.84      0.00
   -5   -7    2      3.05      0.00
   -4   -7    2     -2.55      0.00
   -3   -7    2     -2.43      0.00
   -2   -7    2     13.00      0.00
   -1   -7    2      7.24      0.00
    0   -7    2      2.24      0.00
    1   -7    2     -3.06      0.00
    2   -7    2      2.13      0.00
    3   -7    2      3.19      0.00
    4   -7    2     -3.65      0.00
    5   -7    2      2.91      0.00
    6   -7    2     -0.56      0.00
    7   -7    2      1.72      0.00
    8   -7    2     -2.46      0.00
    9   -7    2     -2.33      0.00
   10   -7    2     -2.55      0.00
   11   -7    2      0.53      0.00
   12   -7    2     -0.84      0.00
  -14   -6    2      1.77      0.00
  -13   -6    2      1.17      0.00
  -12   -6    2      2.38      0.00
  -11   -6    2      2.64      0.00
  -10   -6    2     -7.82      0.00
   -9   -6    2      2.79      0.00
   -8   -6    2     -5.14      0.00
   -7   -6    2      3.44      0.00
   -6   -6    2     -2.23      0.00
   -5   -6    2      0.16      0.00
   -4   -6    2      1.50      0.00
   -3   -6    2     -2.16      0.00
   -2   -6    2     -4.69      0.00
   -1   -6    2      6.59      0.00
    0   -6    2      5.98      0.00
    1   -6    2      5.42      0.00
    2   -6    2     -9.14      0.00
    3   -6    2     -1.99      0.00
    4   -6    2     -5.27      0.00
    5   -6    2      0.92      0.00
    6   -6    2      0.29      0.00
    7   -6    2      0.56      0.00
    8   -6    2      0.11      0.00
    9   -6    2     -0.77      0.00
   10   -6    2      0.06      0.00
   11   -6    2     -1.91      0.00
   12   -6    2      1.31      0.00
  -14   -5    2     -0.68      0.00
  -13   -5    2     -4.30      0.00
  -12   -5    2     -5.43      0.00
  -11   -5    2      0.58      0.00
  -10   -5    2      2.96      0.00
   -9   -5    2     -6.79      0.00
   -8   -5    2      4.67      0.00
   -7   -5    2    -13.67      0.00
   -6   -5    2      5.77      0.00
   -5   -5    2     -6.36      0.00
   -4   -5    2      1.94      0.00
   -3   -5    2     -4.96      0.00
   -2   -5    2     -2.95      0.00
   -1   -5    2    -11.57      0.00
    0   -5    2     -6.41      0.00
    1   -5    2     11.40      0.00
    2   -5    2      8.11      0.00
    3   -5    2      1.34      0.00
    4   -5    2     -2.45      0.00
    5   -5    2     -5.62      0.00
    6   -5    2      5.73      0.00
    7   -5    2      0.38      0.00
    8   -5    2      2.62      0.00
    9   -5    2     -0.04      0.00
   10   -5    2     -0.35      0.00
   11   -5    2     -0.31      0.00
   12   -5    2     -0.84      0.00
   13   -5    2     -0.15      0.00
  -14   -4    2      3.64      0.00
  -13   -4    2     -0.37      0.00
  -12   -4    2     -0.99      0.00
  -11   -4    2     -1.46      0.00
  -10   -4    2      2.17      0.00
   -9   -4    2     -0.24      0.00
   -8   -4    2      0.89      0.00
   -7   -4    2      2.57      0.00
   -6   -4    2    -17.73      0.00
   -5   -4    2      6.87      0.00
   -4   -4    2     -9.01      0.00
   -3   -4    2      3.58      0.00
   -2   -4    2    -11.45      0.00
   -1   -4    2      3.10      0.00
    0   -4    2     -7.48      0.00
    1   -4    2     -7.75      0.00
    2   -4    2      6.64      0.00
    3   -4    2     -6.53      0.00
    4   -4    2      7.40      0.00
    5   -4    2     -9.52      0.00
    6   -4    2     -3.71      0.00
    7   -4    2     -1.07      0.00
    8   -4    2     -2.68      0.00
    9   -4    2      4.72      0.00
   10   -4    2     -1.29      0.00
   11   -4    2     -0.16      0.00
   12   -4    2      0.19      0.00
   13   -4    2     -1.26      0.00
  -14   -3    2     -0.37      0.00
  -13   -3    2      1.14      0.00
  -12   -3    2      3.09      0.00
  -11   -3    2      1.30      0.00
  -10   -3    2      0.72      0.00
   -9   -3    2     -2.80      0.00
   -8   -3    2     -1.60      0.00
   -7   -3    2     11.72      0.00
   -6   -3    2     -5.36      0.00
   -5   -3    2     -5.82      0.00
   -4   -3    2      9.40      0.00
   -3   -3    2    -13.68      0.00
   -2   -3    2     -5.00      0.00
   -1   -3    2    -28.45      0.00
    0   -3    2      7.97      0.00
    1   -3    2      6.38      0.00
    2   -3    2      5.35      0.00
    3   -3    2      2.77      0.00
    4   -3    2     -6.45      0.00
    5   -3    2     13.81      0.00
    6   -3    2    -10.07      0.00
    7   -3    2      3.25      0.00
    8   -3    2     -6.04      0.00
    9   -3    2      1.81      0.00
   10   -3    2      5.91      0.00
   11   -3    2     -1.65      0.00
   12   -3    2      2.27      0.00
   13   -3    2      1.91      0.00
  -14   -2    2     -1.34      0.00
  -13   -2    2     -4.10      0.00
  -12   -2    2     -0.98      0.00
  -11   -2    2      2.04      0.00
  -10   -2    2     -0.72      0.00
   -9   -2    2      2.86      0.00
   -8   -2    2     -7.50      0.00
   -7   -2    2      4.14      0.00
   -6   -2    2      9.15      0.00
   -5   -2    2    -11.88      0.00
   -4   -2    2     24.29      0.00
   -3   -2    2    -19.72      0.00
   -2   -2    2    -17.87      0.00
   -1   -2    2     12.34      0.00
    0   -2    2    -28.26      0.00
    1   -2    2      4.01      0.00
    2   -2    2    -10.44      0.00
    3   -2    2      2.32      0.00
    4   -2    2     -3.20      0.00
    5   -2    2     -5.59      0.00
    6   -2    2      7.46      0.00
    7   -2    2     -4.53      0.00
    8   -2    2      5.98      0.00
    9   -2    2     -5.87      0.00
   10   -2    2      4.06      0.00
   11   -2    2      0.74      0.00
   12   -2    2      1.56      0.00
   13   -2    2      3.01      0.00
   14   -2    2     -1.97      0.00
  -14   -1    2      4.44      0.00
  -13   -1    2     -1.96      0.00
  -12   -1    2     -2.00      0.00
  -11   -1    2      2.50      0.00
  -10   -1    2     -2.18      0.00
   -9   -1    2     -1.48      0.00
   -8   -1    2      3.33      0.00
   -7   -1    2     -5.26      0.00
   -6   -1    2      3.12      0.00
   -5   -1    2     -5.48      0.00
   -4   -1    2      1.72      0.00
   -3   -1    2     41.17      0.00
   -2   -1    2    -59.52      0.00
   -1   -1    2     27.16      0.00
    0   -1    2     38.07      0.00
    1   -1    2    -30.41      0.00
    2   -1    2    -23.94      0.00
    3   -1    2    -42.28      0.00
    4   -1    2     -6.53      0.00
    5   -1    2     -3.69      0.00
    6   -1    2     -0.77      0.00
    7   -1    2      1.56      0.00
    8   -1    2      0.35      0.00
    9   -1    2      1.06      0.00
   10   -1    2     -2.60      0.00
   11   -1    2      2.07      0.00
   12   -1    2     -1.62      0.00
   13   -1    2      3.33      0.00
   14   -1    2      1.27      0.00
  -14    0    2     -0.11      0.00
  -13    0    2      0.54      0.00
  -12    0    2     -2.24      0.00
  -11    0    2     -0.28      0.00
  -10    0    2      0.45      0.00
   -9    0    2     -5.94      0.00
   -8    0    2      3.62      0.00
   -7    0    2     -2.86      0.00
   -6    0    2      1.20      0.00
   -5    0    2     -3.52      0.00
   -4    0    2     -7.83      0.00
   -3    0    2      1.46      0.00
   -2    0    2     -0.29      0.00
   -1    0    2    -43.14      0.00
    0    0    2    139.11      0.00
    1    0    2    104.65      0.00
    2    0    2     52.53      0.00
    3    0    2      4.49      0.00
    4    0    2    -17.88      0.00
    5    0    2      3.37      0.00
    6    0    2     -0.17      0.00
    7    0    2      5.30      0.00
    8    0    2      1.24      0.00
    9    0    2      0.15      0.00
   10    0    2     -3.71      0.00
   11    0    2     -1.13      0.00
   12    0    2     -1.85      0.00
   13    0    2     -2.74      0.00
   14    0    2     -0.22      0.00
  -14    1    2     -1.77      0.00
  -13    1    2     -0.68      0.00
  -12    1    2      0.62      0.00
  -11    1    2      0.03      0.00
  -10    1    2      0.73      0.00
   -9    1    2      0.28      0.00
   -8    1    2     -4.47      0.00
   -7    1    2      4.24      0.00
   -6    1    2     -8.81      0.00
   -5    1    2     11.85      0.00
   -4    1    2     -5.61      0.00
   -3    1    2      6.12      0.00
   -2    1    2     -0.84      0.00
   -1    1    2     18.99      0.00
    0    1    2     51.14      0.00
    1    1    2    113.65      0.00
    2    1    2     47.54      0.00
    3    1    2     55.07      0.00
    4    1    2      8.03      0.00
    5    1    2      1.43      0.00
    6    1    2     -5.62      0.00
    7    1    2     -3.87      0.00
    8    1    2      4.26      0.00
    9    1    2     -1.88      0.00
   10    1    2     -1.61      0.00
   11    1    2     -2.76      0.00
   12    1    2      0.79      0.00
   13    1    2     -0.24      0.00
   14    1    2     -3.20      0.00
  -14    2    2     -2.77      0.00
  -13    2    2     -2.00      0.00
  -12    2    2     -2.61      0.00
  -11    2    2      0.91      0.00
  -10    2    2     -2.04      0.00
   -9    2    2     -0.79      0.00
   -8    2    2      2.10      0.00
   -7    2    2      4.20      0.00
   -6    2    2      1.36      0.00
   -5    2    2     -8.27      0.00
   -4    2    2     12.89      0.00
   -3    2    2     -0.64      0.00
   -2    2    2     21.45      0.00
   -1    2    2    -26.94      0.00
    0    2    2    -15.37      0.00
    1    2    2    -11.11      0.00
    2    2    2    -62.67      0.00
    3    2    2     -0.59      0.00
    4    2    2     24.20      0.00
    5    2    2      7.12      0.00
    6    2    2      4.66      0.00
    7    2    2     -8.08      0.00
    8    2    2      0.84      0.00
    9    2    2      1.55      0.00
   10    2    2     -2.86      0.00
   11    2    2      2.49      0.00
   12    2    2      2.63      0.00
   13    2    2      2.76      0.00
   14    2    2      1.55      0.00
  -13    3    2     -1.96      0.00
  -12    3    2     -1.33      0.00
  -11    3    2     -1.10      0.00
  -10    3    2      3.07      0.00
   -9    3    2      0.01      0.00
   -8    3    2      4.12      0.00
   -7    3    2     -1.41      0.00
   -6    3    2      4.59      0.00
   -5    3    2     -8.27      0.00
   -4    3    2     -1.70      0.00
   -3    3    2     -5.13      0.00
   -2    3    2    -13.42      0.00
   -1    3    2      3.29      0.00
    0    3    2    -39.72      0.00
    1    3    2     -2.89      0.00
    2    3    2    -16.61      0.00
    3    3    2    -74.76      0.00
    4    3    2     26.63      0.00
    5    3    2    -10.91      0.00
    6    3    2     11.01      0.00
    7    3    2      1.78      0.00
    8    3    2      0.97      0.00
    9    3    2      2.04      0.00
   10    3    2     -1.79      0.00
   11    3    2      0.56      0.00
   12    3    2      4.34      0.00
   13    3    2     -0.26      0.00
   14    3    2     -1.90      0.00
   15    3    2     -1.82      0.00
  -13    4    2      3.70      0.00
  -12    4    2      4.09      0.00
  -11    4    2     -0.16      0.00
  -10    4    2      1.80      0.00
   -9    4    2      0.92      0.00
   -8    4    2      1.16      0.00
   -7    4    2      2.46      0.00
   -6    4    2     -8.41      0.00
   -5    4    2      9.40      0.00
   -4    4    2     -8.89      0.00
   -3    4    2     15.60      0.00
   -2    4    2     -8.76      0.00
   -1    4    2      6.96      0.00
    0    4    2     18.07      0.00
    1    4    2    -18.17      0.00
    2    4    2     10.04      0.00
    3    4    2    -14.98      0.00
    4    4    2    -25.99      0.00
    5    4    2     21.49      0.00
    6    4    2    -23.59      0.00
    7    4    2     13.05      0.00
    8    4    2     -5.61      0.00
    9    4    2      2.11      0.00
   10    4    2     -1.03      0.00
   11    4    2     -1.59      0.00
   12    4    2     -0.21      0.00
   13    4    2      1.81      0.00
   14    4    2     -0.43      0.00
   15    4    2     -0.65      0.00
  -13    5    2      1.67      0.00
  -12    5    2     -1.21      0.00
  -11    5    2     -0.85      0.00
  -10    5    2     -1.84      0.00
   -9    5    2      2.24      0.00
   -8    5    2     -2.37      0.00
   -7    5    2      3.32      0.00
   -6    5    2     -0.24      0.00
   -5    5    2     -6.88      0.00
   -4    5    2      5.21      0.00
   -3    5    2    -14.88      0.00
   -2    5    2     21.21      0.00
   -1    5    2     -8.23      0.00
    0    5    2     13.04      0.00
    1    5    2      5.67      0.00
    2    5    2     -5.45      0.00
    3    5    2     14.64      0.00
    4    5    2     -8.50      0.00
    5    5    2     -0.43      0.00
    6    5    2     -3.10      0.00
    7    5    2     -6.63      0.00
    8    5    2      7.82      0.00
    9    5    2     -6.98      0.00
   10    5    2      1.66      0.00
   11    5    2      0.03      0.00
   12    5    2     -0.20      0.00
   13    5    2     -1.99      0.00
   14    5    2     -0.13      0.00
   15    5    2      0.16      0.00
  -12    6    2     -0.99      0.00
  -11    6    2      1.01      0.00
  -10    6    2      3.17      0.00
   -9    6    2      4.21      0.00
   -8    6    2      2.49      0.00
   -7    6    2     -4.69      0.00
   -6    6    2      0.86      0.00
   -5    6    2     -3.50      0.00
   -4    6    2      0.51      0.00
   -3    6    2     -4.93      0.00
   -2    6    2    -14.56      0.00
   -1    6    2      8.12      0.00
    0    6    2     -8.91      0.00
    1    6    2     13.16      0.00
    2    6    2      2.09      0.00
    3    6    2     11.31      0.00
    4    6    2      2.74      0.00
    5    6    2     -2.48      0.00
    6    6    2      2.12      0.00
    7    6    2    -11.79      0.00
    8    6    2      8.18      0.00
    9    6    2      0.63      0.00
   10    6    2     -2.59      0.00
   11    6    2     -0.41      0.00
   12    6    2      0.82      0.00
   13    6    2     -0.78      0.00
   14    6    2     -3.51      0.00
   15    6    2     -2.62      0.00
  -12    7    2      1.69      0.00
  -11    7    2     -0.46      0.00
  -10    7    2      2.53      0.00
   -9    7    2     -2.87      0.00
   -8    7    2      0.60      0.00
   -7    7    2     -0.87      0.00
   -6    7    2     -2.27      0.00
   -5    7    2      0.70      0.00
   -4    7    2     -1.23      0.00
   -3    7    2      4.93      0.00
   -2    7    2     -5.30      0.00
   -1    7    2     -5.05      0.00
    0    7    2    -12.56      0.00
    1    7    2     -6.99      0.00
    2    7    2     -0.06      0.00
    3    7    2      1.42      0.00
    4    7    2     14.32      0.00
    5    7    2     -6.81      0.00
    6    7    2      9.27      0.00
    7    7    2     -2.84      0.00
    8    7    2     -8.42      0.00
    9    7    2      8.40      0.00
   10    7    2     -4.31      0.00
   11    7    2      0.53      0.00
   12    7    2     -1.66      0.00
   13    7    2      1.90      0.00
   14    7    2      1.73      0.00
   15    7    2     -0.54      0.00
  -11    8    2     -2.41      0.00
  -10    8    2     -0.14      0.00
   -9    8    2     -0.08      0.00
   -8    8    2     -3.59      0.00
   -7    8    2      3.05      0.00
   -6    8    2     -0.10      0.00
   -5    8    2      2.66      0.00
   -4    8    2     -2.91      0.00
   -3    8    2     -1.01      0.00
   -2    8    2      3.39      0.00
   -1    8    2      5.43      0.00
    0    8    2      5.56      0.00
    1    8    2    -17.20      0.00
    2    8    2      3.56      0.00
    3    8    2    -10.26      0.00
    4    8    2      7.39      0.00
    5    8    2      3.36      0.00
    6    8    2     -5.78      0.00
    7    8    2     11.61      0.00
    8    8    2     -5.66      0.00
    9    8    2     -2.38      0.00
   10    8    2      2.31      0.00
   11    8    2     -3.09      0.00
   12    8    2      4.69      0.00
   13    8    2      1.65      0.00
   14    8    2      2.60      0.00
  -11    9    2     -2.00      0.00
  -10    9    2      0.95      0.00
   -9    9    2      2.33      0.00
   -8    9    2     -1.68      0.00
   -7    9    2      1.18      0.00
   -6    9    2      1.16      0.00
   -5    9    2      0.81      0.00
   -4    9    2      5.78      0.00
   -3    9    2     -4.12      0.00
   -2    9    2      2.06      0.00
   -1    9    2      0.56      0.00
    0    9    2     10.29      0.00
    1    9    2      7.78      0.00
    2    9    2     -9.37      0.00
    3    9    2      4.93      0.00
    4    9    2    -14.89      0.00
    5    9    2      8.41      0.00
    6    9    2     -5.98      0.00
    7    9    2      0.23      0.00
    8    9    2      2.59      0.00
    9    9    2     -1.24      0.00
   10    9    2      2.47      0.00
   11    9    2     -1.67      0.00
   12    9    2     -1.34      0.00
   13    9    2      4.85      0.00
   14    9    2     -0.06      0.00
  -10   10    2     -3.50      0.00
   -9   10    2      0.48      0.00
   -8   10    2     -0.14      0.00
   -7   10    2     -2.10      0.00
   -6   10    2      3.84      0.00
   -5   10    2     -3.95      0.00
   -4   10    2      2.89      0.00
   -3   10    2      1.26      0.00
   -2   10    2     -3.75      0.00
   -1   10    2      3.22      0.00
    0   10    2     -4.36      0.00
    1   10    2      6.18      0.00
    2   10    2      4.94      0.00
    3   10    2     -0.66      0.00
    4   10    2      2.73      0.00
    5   10    2     -9.02      0.00
    6   10    2      4.69      0.00
    7   10    2     -2.03      0.00
    8   10    2      4.93      0.00
    9   10    2     -2.85      0.00
   10   10    2      4.23      0.00
   11   10    2      2.04      0.00
   12   10    2     -1.18      0.00
   13   10    2     -1.37      0.00
   14   10    2      0.76      0.00
  -10   11    2     -2.63      0.00
   -9   11    2      0.15      0.00
   -8   11    2      0.89      0.00
   -7   11    2      2.17      0.00
   -6   11    2      0.75      0.00
   -5   11    2      1.69      0.00
   -4   11    2     -5.58      0.00
   -3   11    2      3.27      0.00
   -2   11    2     -4.15      0.00
   -1   11    2      0.26      0.00
    0   11    2      1.14      0.00
    1   11    2     -8.11      0.00
    2   11    2      1.51      0.00
    3   11    2      0.91      0.00
    4   11    2      0.22      0.00
    5   11    2      2.28      0.00
    6   11    2     -0.43      0.00
    7   11    2      2.24      0.00
    8   11    2      1.62      0.00
    9   11    2     -0.06      0.00
   10   11    2     -4.81      0.00
   11   11    2      2.77      0.00
   12   11    2     -0.91      0.00
   13   11    2      0.08      0.00
   14   11    2      0.80      0.00
   -9   12    2     -1.77      0.00
   -8   12    2     -1.70      0.00
   -7   12    2     -1.20      0.00
   -6   12    2      0.78      0.00
   -5   12    2      0.00      0.00
   -4   12    2     -0.64      0.00
   -3   12    2     -0.39      0.00
   -2   12    2      2.88      0.00
   -1   12    2     -3.05      0.00
    0   12    2      1.46      0.00
    1   12    2     -0.56      0.00
    2   12    2     -2.27      0.00
    3   12    2      3.18      0.00
    4   12    2      0.57      0.00
    5   12    2      0.08      0.00
    6   12    2      1.21      0.00
    7   12    2     -0.43      0.00
    8   12    2     -1.23      0.00
    9   12    2     -1.45      0.00
   10   12    2     -4.40      0.00
   11   12    2     -2.59      0.00
   12   12    2     -0.21      0.00
   13   12    2     -1.30      0.00
   -8   13    2     -2.97      0.00
   -7   13    2     -3.41      0.00
   -6   13    2      0.56      0.00
   -5   13    2      2.16      0.00
   -4   13    2      2.57      0.00
   -3   13    2      2.39      0.00
   -2   13    2      3.88      0.00
   -1   13    2      0.18      0.00
    0   13    2      0.96      0.00
    1   13    2     -0.71      0.00
    2   13    2     -0.54      0.00
    3   13    2      1.00      0.00
    4   13    2      1.76      0.00
    5   13    2      0.81      0.00
    6   13    2     -0.75      0.00
    7   13    2     -2.77      0.00
    8   13    2     -0.40      0.00
    9   13    2     -1.22      0.00
   10   13    2     -1.95      0.00
   11   13    2     -1.88      0.00
   12   13    2      1.13      0.00
   13   13    2     -0.51      0.00
   -8   14    2     -3.26      0.00
   -7   14    2     -0.15      0.00
   -6   14    2      0.04      0.00
   -5   14    2      1.15      0.00
   -4   14    2      2.56      0.00
   -3   14    2      0.67      0.00
   -2   14    2     -0.58      0.00
   -1   14    2     -0.12      0.00
    0   14    2     -1.27      0.00
    1   14    2      2.75      0.00
    2   14    2     -4.66      0.00
    3   14    2     -1.59      0.00
    4   14    2     -0.49      0.00
    5   14    2     -0.26      0.00
    6   14    2      2.54      0.00
    7   14    2      0.90      0.00
    8   14    2     -3.00      0.00
    9   14    2      1.33      0.00
   10   14    2     -0.12      0.00
   11   14    2     -1.07      0.00
   12   14    2      0.26      0.00
   13   14    2      1.60      0.00
   -7   15    2     -1.68      0.00
   -6   15    2      2.23      0.00
   -5   15    2     -3.90      0.00
   -4   15    2     -3.52      0.00
   -3   15    2      0.32      0.00
   -2   15    2     -2.95      0.00
   -1   15    2     -0.69      0.00
    0   15    2     -1.05      0.00
    1   15    2     -0.95      0.00
    2   15    2      2.69      0.00
    3   15    2     -5.31      0.00
    4   15    2     -0.71      0.00
    5   15    2      0.46      0.00
    6   15    2      0.52      0.00
    7   15    2      2.79      0.00
    8   15    2     -0.19      0.00
    9   15    2     -2.61      0.00
   10   15    2      0.19      0.00
   11   15    2      1.23      0.00
   12   15    2      0.39      0.00
   -6   16    2     -0.35      0.00
   -5   16    2      2.39      0.00
   -4   16    2     -3.60      0.00
   -3   16    2     -0.60      0.00
   -2   16    2     -0.93      0.00
   -1   16    2     -3.25      0.00
    0   16    2      3.38      0.00
    1   16    2      1.10      0.00
    2   16    2     -0.56      0.00
    3   16    2      3.85      0.00
    4   16    2     -1.97      0.00
    5   16    2      1.97      0.00
    6   16    2     -1.51      0.00
    7   16    2     -2.40      0.00
    8   16    2     -0.02      0.00
    9   16    2     -0.51      0.00
   10   16    2     -1.62      0.00
   11   16    2     -0.41      0.00
   -4   17    2      2.26      0.00
   -3   17    2     -0.68      0.00
   -2   17    2      1.57      0.00
   -1   17    2     -0.19      0.00
    0   17    2      0.82      0.00
    1   17    2      4.71      0.00
    2   17    2      0.09      0.00
    3   17    2      0.89      0.00
    4   17    2      4.24      0.00
    5   17    2     -0.15      0.00
    6   17    2      1.77      0.00
    7   17    2     -0.54      0.00
    8   17    2      3.31      0.00
    9   17    2     -0.53      0.00
   10   17    2     -2.20      0.00
   -3   18    2      0.30      0.00
   -2   18    2      0.34      0.00
   -1   18    2      0.08      0.00
    0   18    2     -2.42      0.00
    1   18    2     -2.34      0.00
    2   18    2      0.32      0.00
    3   18    2      2.27      0.00
    4   18    2      2.99      0.00
    5   18    2     -1.99      0.00
    6   18    2     -0.52      0.00
    7   18    2      0.77      0.00
    8   18    2     -0.53      0.00
    9   18    2      2.30      0.00
   -1   19    2     -1.22      0.00
    0   19    2      0.83      0.00
    1   19    2      1.42      0.00
    2   19    2     -0.16      0.00
    3   19    2     -1.82      0.00
    4   19    2      1.96      0.00
    5   19    2     -0.24      0.00
    6   19    2     -5.36      0.00
    7   19    2      0.24      0.00
    8   19    2     -1.13      0.00
    3   20    2     -1.30      0.00
    4   20    2     -0.91      0.00
    5   20    2      3.83      0.00
   -6  -18    3     -0.40      0.00
   -5  -18    3      2.38      0.00
   -4  -18    3      1.25      0.00
   -3  -18    3      0.15      0.00
   -2  -18    3     -3.20      0.00
   -1  -18    3      1.29      0.00
    0  -18    3      3.40      0.00
   -8  -17    3      3.60      0.00
   -7  -17    3      1.94      0.00
   -6  -17    3      0.25      0.00
   -5  -17    3      2.27      0.00
   -4  -17    3      0.78      0.00
   -3  -17    3      7.15      0.00
   -2  -17    3      4.92      0.00
   -1  -17    3      0.12      0.00
    0  -17    3      1.18      0.00
    1  -17    3     -1.97      0.00
    2  -17    3      5.17      0.00
    3  -17    3      2.87      0.00
   -9  -16    3     -1.28      0.00
   -8  -16    3      1.61      0.00
   -7  -16    3      3.65      0.00
   -6  -16    3      1.90      0.00
   -5  -16    3      1.72      0.00
   -4  -16    3      1.74      0.00
   -3  -16    3     -0.06      0.00
   -2  -16    3      1.59      0.00
   -1  -16    3     -5.65      0.00
    0  -16    3     -2.83      0.00
    1  -16    3     -1.68      0.00
    2  -16    3     -1.72      0.00
    3  -16    3      5.05      0.00
    4  -16    3      0.03      0.00
  -10  -15    3      0.95      0.00
   -9  -15    3     -0.35      0.00
   -8  -15    3      0.00      0.00
   -7  -15    3      0.92      0.00
   -6  -15    3      2.44      0.00
   -5  -15    3      0.65      0.00
   -4  -15    3      0.22      0.00
   -3  -15    3     -3.47      0.00
   -2  -15    3      0.49      0.00
   -1  -15    3     -0.74      0.00
    0  -15    3     -0.18      0.00
    1  -15    3      3.45      0.00
    2  -15    3     -1.72      0.00
    3  -15    3     -2.06      0.00
    4  -15    3      0.31      0.00
    5  -15    3      2.14      0.00
    6  -15    3      0.54      0.00
  -11  -14    3     -3.54      0.00
  -10  -14    3     -1.51      0.00
   -9  -14    3     -2.67      0.00
   -8  -14    3     -2.45      0.00
   -7  -14    3     -0.36      0.00
   -6  -14    3      1.44      0.00
   -5  -14    3     -0.01      0.00
   -4  -14    3     -1.73      0.00
   -3  -14    3     -1.85      0.00
   -2  -14    3      1.16      0.00
   -1  -14    3      6.08      0.00
    0  -14    3      0.33      0.00
    1  -14    3      3.39      0.00
    2  -14    3     -0.05      0.00
    3  -14    3     -1.37      0.00
    4  -14    3     -2.15      0.00
    5  -14    3     -1.32      0.00
    6  -14    3      0.11      0.00
    7  -14    3     -0.73      0.00
  -12  -13    3     -0.63      0.00
  -11  -13    3     -1.27      0.00
  -10  -13    3     -0.49      0.00
   -9  -13    3      0.21      0.00
   -8  -13    3      0.80      0.00
   -7  -13    3     -1.08      0.00
   -6  -13    3      0.21      0.00
   -5  -13    3      1.45      0.00
   -4  -13    3     -1.55      0.00
   -3  -13    3      0.74      0.00
   -2  -13    3     -4.74      0.00
   -1  -13    3      0.32      0.00
    0  -13    3      2.42      0.00
    1  -13    3      0.98      0.00
    2  -13    3      3.32      0.00
    3  -13    3     -2.78      0.00
    4  -13    3      2.54      0.00
    5  -13    3      0.39      0.00
    6  -13    3      0.35      0.00
    7  -13    3     -3.67      0.00
    8  -13    3     -1.67      0.00
  -12  -12    3     -1.18      0.00
  -11  -12    3      0.00      0.00
  -10  -12    3      0.54      0.00
   -9  -12    3      0.75      0.00
   -8  -12    3     -0.30      0.00
   -7  -12    3      1.63      0.00
   -6  -12    3     -2.82      0.00
   -5  -12    3      1.37      0.00
   -4  -12    3     -0.87      0.00
   -3  -12    3      2.58      0.00
   -2  -12    3      3.11      0.00
   -1  -12    3     -5.87      0.00
    0  -12    3     -0.38      0.00
    1  -12    3     -2.41      0.00
    2  -12    3     -0.75      0.00
    3  -12    3      1.95      0.00
    4  -12    3     -1.81      0.00
    5  -12    3      2.69      0.00
    6  -12    3      1.41      0.00
    7  -12    3      3.44      0.00
    8  -12    3     -1.97      0.00
    9  -12    3     -0.05      0.00
  -13  -11    3     -2.06      0.00
  -12  -11    3     -3.11      0.00
  -11  -11    3     -1.72      0.00
  -10  -11    3     -2.06      0.00
   -9  -11    3      0.18      0.00
   -8  -11    3      0.98      0.00
   -7  -11    3     -0.37      0.00
   -6  -11    3      1.11      0.00
   -5  -11    3     -2.71      0.00
   -4  -11    3      3.93      0.00
   -3  -11    3     -5.07      0.00
   -2  -11    3      6.81      0.00
   -1  -11    3      4.03      0.00
    0  -11    3     -1.77      0.00
    1  -11    3     -1.55      0.00
    2  -11    3     -8.25      0.00
    3  -11    3     -1.71      0.00
    4  -11    3      0.20      0.00
    5  -11    3     -2.23      0.00
    6  -11    3      0.29      0.00
    7  -11    3      2.96      0.00
    8  -11    3      6.09      0.00
    9  -11    3     -0.74      0.00
  -13  -10    3     -0.18      0.00
  -12  -10    3     -1.30      0.00
  -11  -10    3     -1.52      0.00
  -10  -10    3     -0.62      0.00
   -9  -10    3      0.15      0.00
   -8  -10    3      0.98      0.00
   -7  -10    3      1.77      0.00
   -6  -10    3      1.27      0.00
   -5  -10    3     -1.94      0.00
   -4  -10    3     -1.15      0.00
   -3  -10    3      1.43      0.00
   -2  -10    3     -7.71      0.00
   -1  -10    3      5.42      0.00
    0  -10    3      2.38      0.00
    1  -10    3      2.21      0.00
    2  -10    3     -1.51      0.00
    3  -10    3     -6.94      0.00
    4  -10    3      2.37      0.00
    5  -10    3      0.06      0.00
    6  -10    3      0.88      0.00
    7  -10    3     -2.19      0.00
    8  -10    3     -0.02      0.00
    9  -10    3      1.74      0.00
   10  -10    3     -4.65      0.00
  -13   -9    3     -2.66      0.00
  -12   -9    3      2.77      0.00
  -11   -9    3      0.01      0.00
  -10   -9    3      1.93      0.00
   -9   -9    3     -0.91      0.00
   -8   -9    3     -0.22      0.00
   -7   -9    3     -2.50      0.00
   -6   -9    3      0.54      0.00
   -5   -9    3      0.26      0.00
   -4   -9    3     -2.93      0.00
   -3   -9    3      1.29      0.00
   -2   -9    3     -1.69      0.00
   -1   -9    3     -3.22      0.00
    0   -9    3      1.97      0.00
    1   -9    3      0.67      0.00
    2   -9    3      4.42      0.00
    3   -9    3      0.06      0.00
    4   -9    3      1.43      0.00
    5   -9    3      3.59      0.00
    6   -9    3     -0.94      0.00
    7   -9    3      1.61      0.00
    8   -9    3     -4.49      0.00
    9   -9    3     -0.35      0.00
   10   -9    3      3.01      0.00
   11   -9    3      0.17      0.00
  -14   -8    3     -0.64      0.00
  -13   -8    3     -0.44      0.00
  -12   -8    3     -3.00      0.00
  -11   -8    3      1.72      0.00
  -10   -8    3     -0.56      0.00
   -9   -8    3      0.81      0.00
   -8   -8    3     -2.97      0.00
   -7   -8    3     -0.01      0.00
   -6   -8    3     -7.10      0.00
   -5   -8    3      0.38      0.00
   -4   -8    3     -0.95      0.00
   -3   -8    3     -0.86      0.00
   -2   -8    3     -2.54      0.00
   -1   -8    3     -1.73      0.00
    0   -8    3      4.91      0.00
    1   -8    3     -0.67      0.00
    2   -8    3     -2.60      0.00
    3   -8    3      1.69      0.00
    4   -8    3     -0.89      0.00
    5   -8    3      2.85      0.00
    6   -8    3     -1.93      0.00
    7   -8    3      1.35      0.00
    8   -8    3      2.15      0.00
    9   -8    3      0.41      0.00
   10   -8    3      2.00      0.00
   11   -8    3      2.55      0.00
  -14   -7    3     -0.12      0.00
  -13   -7    3     -2.39      0.00
  -12   -7    3     -0.74      0.00
  -11   -7    3      1.60      0.00
  -10   -7    3     -0.56      0.00
   -9   -7    3      1.09      0.00
   -8   -7    3     -1.37      0.00
   -7   -7    3     -1.30      0.00
   -6   -7    3      1.96      0.00
   -5   -7    3     -7.61      0.00
   -4   -7    3      2.71      0.00
   -3   -7    3     -0.62      0.00
   -2   -7    3      1.47      0.00
   -1   -7    3     -8.40      0.00
    0   -7    3     -5.70      0.00
    1   -7    3      2.56      0.00
    2   -7    3     -3.56      0.00
    3   -7    3      1.46      0.00
    4   -7    3      0.28      0.00
    5   -7    3     -0.45      0.00
    6   -7    3      0.11      0.00
    7   -7    3     -1.00      0.00
    8   -7    3      4.19      0.00
    9   -7    3      0.49      0.00
   10   -7    3      2.61      0.00
   11   -7    3     -0.69      0.00
   12   -7    3      1.83      0.00
  -14   -6    3     -0.52      0.00
  -13   -6    3      1.24      0.00
  -12   -6    3      0.06      0.00
  -11   -6    3     -2.26      0.00
  -10   -6    3      4.54      0.00
   -9   -6    3     -1.53      0.00
   -8   -6    3      7.85      0.00
   -7   -6    3     -3.84      0.00
   -6   -6    3      3.85      0.00
   -5   -6    3     -1.77      0.00
   -4   -6    3     -0.19      0.00
   -3   -6    3      6.07      0.00
   -2   -6    3      0.19      0.00
   -1   -6    3      4.47      0.00
    0   -6    3     -9.87      0.00
    1   -6    3     -7.74      0.00
    2   -6    3     -0.54      0.00
    3   -6    3     -2.29      0.00
    4   -6    3      8.55      0.00
    5   -6    3     -0.67      0.00
    6   -6    3      0.51      0.00
    7   -6    3     -4.19      0.00
    8   -6    3      0.55      0.00
    9   -6    3      0.08      0.00
   10   -6    3     -1.42      0.00
   11   -6    3      1.67      0.00
   12   -6    3     -2.45      0.00
  -14   -5    3     -3.20      0.00
  -13   -5    3      2.43      0.00
  -12   -5    3      2.23      0.00
  -11   -5    3      0.60      0.00
  -10   -5    3     -2.38      0.00
   -9   -5    3      3.83      0.00
   -8   -5    3     -3.78      0.00
   -7   -5    3     13.32      0.00
   -6   -5    3     -2.79      0.00
   -5   -5    3      9.45      0.00
   -4   -5    3     -6.81      0.00
   -3   -5    3      6.35      0.00
   -2   -5    3     -1.79      0.00
   -1   -5    3      2.84      0.00
    0   -5    3      9.56      0.00
    1   -5    3     -7.16      0.00
    2   -5    3     -0.86      0.00
    3   -5    3     -5.67      0.00
    4   -5    3     -1.00      0.00
    5   -5    3      7.18      0.00
    6   -5    3     -3.29      0.00
    7   -5    3      1.25      0.00
    8   -5    3     -4.87      0.00
    9   -5    3      1.94      0.00
   10   -5    3      0.99      0.00
   11   -5    3      1.73      0.00
   12   -5    3      1.26      0.00
   13   -5    3      0.57      0.00
  -14   -4    3     -2.77      0.00
  -13   -4    3     -0.64      0.00
  -12   -4    3      0.98      0.00
  -11   -4    3     -0.83      0.00
  -10   -4    3      1.45      0.00
   -9   -4    3      0.97      0.00
   -8   -4    3     -1.74      0.00
   -7   -4    3     -4.25      0.00
   -6   -4    3     11.54      0.00
   -5   -4    3      1.18      0.00
   -4   -4    3      7.90      0.00
   -3   -4    3     -9.96      0.00
   -2   -4    3     10.04      0.00
   -1   -4    3      1.24      0.00
    0   -4    3     11.47      0.00
    1   -4    3      5.09      0.00
    2   -4    3     -5.68      0.00
    3   -4    3      8.38      0.00
    4   -4    3     -8.92      0.00
    5   -4    3      3.61      0.00
    6   -4    3      0.38      0.00
    7   -4    3      0.68      0.00
    8   -4    3      5.65      0.00
    9   -4    3     -3.23      0.00
   10   -4    3      1.47      0.00
   11   -4    3      1.20      0.00
   12   -4    3      1.07      0.00
   13   -4    3     -0.58      0.00
  -14   -3    3      1.49      0.00
  -13   -3    3     -0.50      0.00
  -12   -3    3     -0.54      0.00
  -11   -3    3      0.51      0.00
  -10   -3    3     -4.53      0.00
   -9   -3    3      4.40      0.00
   -8   -3    3      2.52      0.00
   -7   -3    3     -8.74      0.00
   -6   -3    3      0.02      0.00
   -5   -3    3     -1.63      0.00
   -4   -3    3      2.72      0.00
   -3   -3    3     13.27      0.00
   -2   -3    3     -0.17      0.00
   -1   -3    3      3.72      0.00
    0   -3    3     -1.30      0.00
    1   -3    3     -0.37      0.00
    2   -3    3     -8.49      0.00
    3   -3    3     -3.83      0.00
    4   -3    3      8.59      0.00
    5   -3    3     -6.67      0.00
    6   -3    3      5.83      0.00
    7   -3    3     -5.56      0.00
    8   -3    3      5.14      0.00
    9   -3    3      2.24      0.00
   10   -3    3     -5.78      0.00
   11   -3    3     -0.97      0.00
   12   -3    3     -1.87      0.00
   13   -3    3      1.25      0.00
  -14   -2    3     -0.57      0.00
  -13   -2    3      2.84      0.00
  -12   -2    3      0.94      0.00
  -11   -2    3     -1.71      0.00
  -10   -2    3      1.72      0.00
   -9   -2    3     -4.04      0.00
   -8   -2    3      8.54      0.00
   -7   -2    3     -2.70      0.00
   -6   -2    3     -1.95      0.00
   -5   -2    3      7.29      0.00
   -4   -2    3    -25.99      0.00
   -3   -2    3      8.87      0.00
   -2   -2    3     22.04      0.00
   -1   -2    3      9.55      0.00
    0   -2    3      1.53      0.00
    1   -2    3     -1.85      0.00
    2   -2    3     -3.26      0.00
    3   -2    3     -0.42      0.00
    4   -2    3     -0.34      0.00
    5   -2    3      1.18      0.00
    6   -2    3     -2.87      0.00
    7   -2    3      3.28      0.00
    8   -2    3     -4.76      0.00
    9   -2    3      2.47      0.00
   10   -2    3     -1.20      0.00
   11   -2    3     -0.84      0.00
   12   -2    3      1.14      0.00
   13   -2    3     -1.56      0.00
   14   -2    3      2.44      0.00
  -14   -1    3     -4.50      0.00
  -13   -1    3      0.24      0.00
  -12   -1    3      1.46      0.00
  -11   -1    3     -2.30      0.00
  -10   -1    3      1.98      0.00
   -9   -1    3      1.11      0.00
   -8   -1    3     -1.34      0.00
   -7   -1    3      3.31      0.00
   -6   -1    3     -7.79      0.00
   -5   -1    3     11.25      0.00
   -4   -1    3      0.68      0.00
   -3   -1    3    -33.84      0.00
   -2   -1    3     32.60      0.00
   -1   -1    3      9.24      0.00
    0   -1    3    -12.21      0.00
    1   -1    3    -12.61      0.00
    2   -1    3      4.53      0.00
    3   -1    3     17.11      0.00
    4   -1    3     16.33      0.00
    5   -1    3      1.16      0.00
    6   -1    3     -1.05      0.00
    7   -1    3     -1.57      0.00
    8   -1    3     -0.74      0.00
    9   -1    3      1.14      0.00
   10   -1    3     -1.59      0.00
   11   -1    3     -0.85      0.00
   12   -1    3     -0.13      0.00
   13   -1    3     -2.11      0.00
   14   -1    3     -1.15      0.00
  -14    0    3      0.06      0.00
  -13    0    3     -0.53      0.00
  -12    0    3      0.85      0.00
  -11    0    3      1.25      0.00
  -10    0    3     -2.14      0.00
   -9    0    3      3.76      0.00
   -8    0    3     -5.56      0.00
   -7    0    3      5.87      0.00
   -6    0    3     -4.70      0.00
   -5    0    3      2.22      0.00
   -4    0    3      8.68      0.00
   -3    0    3     -4.01      0.00
   -2    0    3     -6.53      0.00
   -1    0    3     10.02      0.00
    0    0    3    -53.63      0.00
    1    0    3    -41.29      0.00
    2    0    3    -29.51      0.00
    3    0    3     -2.20      0.00
    4    0    3      6.54      0.00
    5    0    3      8.85      0.00
    6    0    3     -0.20      0.00
    7    0    3     -2.17      0.00
    8    0    3     -4.48      0.00
    9    0    3     -1.34      0.00
   10    0    3      4.26      0.00
   11    0    3     -1.23      0.00
   12    0    3      1.44      0.00
   13    0    3      1.34      0.00
   14    0    3      1.15      0.00
  -14    1    3     -0.23      0.00
  -13    1    3      1.10      0.00
  -12    1    3      1.75      0.00
  -11    1    3     -1.27      0.00
  -10    1    3      1.16      0.00
   -9    1    3      1.37      0.00
   -8    1    3      3.05      0.00
   -7    1    3     -6.54      0.00
   -6    1    3     15.94      0.00
   -5    1    3     -7.52      0.00
   -4    1    3     11.76      0.00
   -3    1    3    -15.93      0.00
   -2    1    3      7.70      0.00
   -1    1    3     13.58      0.00
    0    1    3    -33.41      0.00
    1    1    3    -51.09      0.00
    2    1    3    -40.01      0.00
    3    1    3    -44.93      0.00
    4    1    3    -16.26      0.00
    5    1    3    -11.88      0.00
    6    1    3      4.81      0.00
    7    1    3      0.53      0.00
    8    1    3     -1.49      0.00
    9    1    3     -1.45      0.00
   10    1    3      1.99      0.00
   11    1    3      3.12      0.00
   12    1    3     -0.32      0.00
   13    1    3     -1.11      0.00
   14    1    3     -0.27      0.00
  -13    2    3      0.30      0.00
  -12    2    3      1.40      0.00
  -11    2    3      0.56      0.00
  -10    2    3      0.86      0.00
   -9    2    3      1.51      0.00
   -8    2    3      0.44      0.00
   -7    2    3     -4.20      0.00
   -6    2    3     -4.17      0.00
   -5    2    3      7.04      0.00
   -4    2    3     -9.20      0.00
   -3    2    3     10.75      0.00
   -2    2    3    -35.72      0.00
   -1    2    3      8.20      0.00
    0    2    3    -15.68      0.00
    1    2    3    -44.57      0.00
    2    2    3     34.05      0.00
    3    2    3     -1.88      0.00
    4    2    3    -11.00      0.00
    5    2    3    -10.86      0.00
    6    2    3     -9.15      0.00
    7    2    3      4.64      0.00
    8    2    3     -1.92      0.00
    9    2    3      2.43      0.00
   10    2    3      2.48      0.00
   11    2    3     -1.13      0.00
   12    2    3     -1.65      0.00
   13    2    3     -1.10      0.00
   14    2    3     -0.47      0.00
  -13    3    3      0.30      0.00
  -12    3    3      1.33      0.00
  -11    3    3      1.10      0.00
  -10    3    3      0.21      0.00
   -9    3    3      0.27      0.00
   -8    3    3     -4.29      0.00
   -7    3    3      1.04      0.00
   -6    3    3     -6.84      0.00
   -5    3    3      3.54      0.00
   -4    3    3     -7.38      0.00
   -3    3    3      3.06      0.00
   -2    3    3      9.63      0.00
   -1    3    3    -25.36      0.00
    0    3    3     14.29      0.00
    1    3    3     -1.56      0.00
    2    3    3     11.67      0.00
    3    3    3     69.90      0.00
    4    3    3    -13.23      0.00
    5    3    3      9.04      0.00
    6    3    3    -10.25      0.00
    7    3    3      1.93      0.00
    8    3    3     -1.65      0.00
    9    3    3     -3.90      0.00
   10    3    3      3.52      0.00
   11    3    3      0.29      0.00
   12    3    3     -3.31      0.00
   13    3    3     -2.04      0.00
   14    3    3      0.04      0.00
   15    3    3      2.04      0.00
  -13    4    3     -2.22      0.00
  -12    4    3     -0.33      0.00
  -11    4    3      1.48      0.00
  -10    4    3     -2.67      0.00
   -9    4    3      1.68      0.00
   -8    4    3     -1.25      0.00
   -7    4    3     -3.99      0.00
   -6    4    3      7.41      0.00
   -5    4    3     -1.65      0.00
   -4    4    3     15.00      0.00
   -3    4    3    -13.20      0.00
   -2    4    3     14.94      0.00
   -1    4    3      6.81      0.00
    0    4    3      7.50      0.00
    1    4    3     18.23      0.00
    2    4    3     -4.05      0.00
    3    4    3      1.64      0.00
    4    4    3     23.59      0.00
    5    4    3     -9.47      0.00
    6    4    3     19.53      0.00
    7    4    3    -11.64      0.00
    8    4    3      4.17      0.00
    9    4    3     -2.95      0.00
   10    4    3      0.66      0.00
   11    4    3      1.31      0.00
   12    4    3     -1.34      0.00
   13    4    3     -1.21      0.00
   14    4    3     -1.38      0.00
   15    4    3      0.71      0.00
  -13    5    3     -1.11      0.00
  -12    5    3     -2.24      0.00
  -11    5    3      0.34      0.00
  -10    5    3     -0.95      0.00
   -9    5    3     -4.77      0.00
   -8    5    3      1.77      0.00
   -7    5    3     -2.85      0.00
   -6    5    3      0.76      0.00
   -5    5    3      1.85      0.00
   -4    5    3     -5.14      0.00
   -3    5    3     10.81      0.00
   -2    5    3    -17.44      0.00
   -1    5    3      3.42      0.00
    0    5    3    -14.08      0.00
    1    5    3      5.46      0.00
    2    5    3     -4.18      0.00
    3    5    3     -2.04      0.00
    4    5    3     -3.33      0.00
    5    5    3     -1.88      0.00
    6    5    3      6.51      0.00
    7    5    3      4.97      0.00
    8    5    3     -7.16      0.00
    9    5    3      3.99      0.00
   10    5    3      0.88      0.00
   11    5    3      2.78      0.00
   12    5    3      1.67      0.00
   13    5    3      4.49      0.00
   14    5    3      3.77      0.00
   15    5    3     -0.49      0.00
  -12    6    3     -0.23      0.00
  -11    6    3      0.47      0.00
  -10    6    3      1.38      0.00
   -9    6    3     -1.36      0.00
   -8    6    3     -1.51      0.00
   -7    6    3      2.73      0.00
   -6    6    3      0.95      0.00
   -5    6    3      4.83      0.00
   -4    6    3     -2.61      0.00
   -3    6    3      3.36      0.00
   -2    6    3      8.77      0.00
   -1    6    3      1.65      0.00
    0    6    3      1.81      0.00
    1    6    3     -9.82      0.00
    2    6    3      4.15      0.00
    3    6    3    -18.66      0.00
    4    6    3      2.24      0.00
    5    6    3    -10.23      0.00
    6    6    3     -5.83      0.00
    7    6    3     15.01      0.00
    8    6    3     -4.91      0.00
    9    6    3     -1.06      0.00
   10    6    3     -1.84      0.00
   11    6    3      0.85      0.00
   12    6    3      0.21      0.00
   13    6    3     -1.23      0.00
   14    6    3      0.72      0.00
   15    6    3      1.67      0.00
  -12    7    3      1.09      0.00
  -11    7    3      1.92      0.00
  -10    7    3     -2.70      0.00
   -9    7    3      0.91      0.00
   -8    7    3      0.76      0.00
   -7    7    3      2.47      0.00
   -6    7    3     -0.04      0.00
   -5    7    3      1.70      0.00
   -4    7    3      4.14      0.00
   -3    7    3      0.28      0.00
   -2    7    3      4.84      0.00
   -1    7    3     -5.47      0.00
    0    7    3     15.96      0.00
    1    7    3      1.11      0.00
    2    7    3      5.28      0.00
    3    7    3     -1.87      0.00
    4    7    3    -14.38      0.00
    5    7    3     12.72      0.00
    6    7    3    -13.09      0.00
    7    7    3      0.05      0.00
    8    7    3      8.13      0.00
    9    7    3     -5.50      0.00
   10    7    3      2.42      0.00
   11    7    3     -4.42      0.00
   12    7    3      0.83      0.00
   13    7    3     -1.55      0.00
   14    7    3     -1.96      0.00
   15    7    3      0.30      0.00
  -11    8    3     -0.99      0.00
  -10    8    3     -3.39      0.00
   -9    8    3     -4.04      0.00
   -8    8    3      0.62      0.00
   -7    8    3     -1.48      0.00
   -6    8    3      0.88      0.00
   -5    8    3     -6.61      0.00
   -4    8    3     -2.20      0.00
   -3    8    3     -0.67      0.00
   -2    8    3      1.57      0.00
   -1    8    3     -2.65      0.00
    0    8    3    -11.13      0.00
    1    8    3     18.38      0.00
    2    8    3     -2.53      0.00
    3    8    3     16.50      0.00
    4    8    3     -7.35      0.00
    5    8    3     -4.46      0.00
    6    8    3      8.28      0.00
    7    8    3    -10.68      0.00
    8    8    3      5.90      0.00
    9    8    3      0.49      0.00
   10    8    3      1.73      0.00
   11    8    3      4.87      0.00
   12    8    3     -3.33      0.00
   13    8    3     -1.88      0.00
   14    8    3     -2.20      0.00
  -11    9    3      3.63      0.00
  -10    9    3      0.32      0.00
   -9    9    3      0.98      0.00
   -8    9    3      2.98      0.00
   -7    9    3     -1.49      0.00
   -6    9    3     -0.78      0.00
   -5    9    3      1.58      0.00
   -4    9    3     -2.88      0.00
   -3    9    3      2.60      0.00
   -2    9    3     -1.70      0.00
   -1    9    3      1.96      0.00
    0    9    3     -6.41      0.00
    1    9    3    -10.55      0.00
    2    9    3      4.97      0.00
    3    9    3     -6.92      0.00
    4    9    3     17.36      0.00
    5    9    3     -3.63      0.00
    6    9    3      5.11      0.00
    7    9    3     -1.87      0.00
    8    9    3     -1.60      0.00
    9    9    3      2.31      0.00
   10    9    3     -4.44      0.00
   11    9    3      2.29      0.00
   12    9    3     -0.15      0.00
   13    9    3     -4.02      0.00
   14    9    3     -2.70      0.00
  -10   10    3      4.71      0.00
   -9   10    3     -2.18      0.00
   -8   10    3      0.16      0.00
   -7   10    3      0.39      0.00
   -6   10    3     -3.90      0.00
   -5   10    3      3.83      0.00
   -4   10    3     -1.97      0.00
   -3   10    3     -0.67      0.00
   -2   10    3      1.09      0.00
   -1   10    3     -4.95      0.00
    0   10    3      2.71      0.00
    1   10    3     -0.04      0.00
    2   10    3     -3.41      0.00
    3   10    3     -1.15      0.00
    4   10    3     -4.59      0.00
    5   10    3      6.27      0.00
    6   10    3     -3.05      0.00
    7   10    3      1.68      0.00
    8   10    3     -7.09      0.00
    9   10    3      3.56      0.00
   10   10    3     -3.84      0.00
   11   10    3     -2.56      0.00
   12   10    3      1.77      0.00
   13   10    3      2.18      0.00
   14   10    3      1.42      0.00
  -10   11    3      2.77      0.00
   -9   11    3     -1.35      0.00
   -8   11    3     -2.17      0.00
   -7   11    3     -0.04      0.00
   -6   11    3     -0.43      0.00
   -5   11    3     -0.48      0.00
   -4   11    3      2.80      0.00
   -3   11    3     -4.37      0.00
   -2   11    3      4.08      0.00
   -1   11    3      1.46      0.00
    0   11    3      1.13      0.00
    1   11    3      2.81      0.00
    2   11    3      0.27      0.00
    3   11    3     -2.95      0.00
    4   11    3     -1.94      0.00
    5   11    3     -2.84      0.00
    6   11    3     -0.65      0.00
    7   11    3      2.50      0.00
    8   11    3     -0.44      0.00
    9   11    3     -1.55      0.00
   10   11    3      4.68      0.00
   11   11    3     -1.80      0.00
   12   11    3      2.41      0.00
   13   11    3      0.15      0.00
   14   11    3      0.48      0.00
   -9   12    3      2.43      0.00
   -8   12    3      1.88      0.00
   -7   12    3      3.86      0.00
   -6   12    3     -1.10      0.00
   -5   12    3     -2.58      0.00
   -4   12    3      0.77      0.00
   -3   12    3     -0.85      0.00
   -2   12    3     -1.17      0.00
   -1   12    3      1.14      0.00
    0   12    3     -2.54      0.00
    1   12    3      3.49      0.00
    2   12    3      0.51      0.00
    3   12    3      2.18      0.00
    4   12    3      0.22      0.00
    5   12    3      3.06      0.00
    6   12    3     -1.05      0.00
    7   12    3     -2.61      0.00
    8   12    3      1.36      0.00
    9   12    3      0.52      0.00
   10   12    3      4.98      0.00
   11   12    3      2.21      0.00
   12   12    3     -0.06      0.00
   13   12    3      2.07      0.00
   14   12    3     -0.15      0.00
   -8   13    3      2.18      0.00
   -7   13    3      0.34      0.00
   -6   13    3      0.47      0.00
   -5   13    3     -1.07      0.00
   -4   13    3     -0.89      0.00
   -3   13    3     -0.61      0.00
   -2   13    3     -4.03      0.00
   -1   13    3      1.96      0.00
    0   13    3     -4.20      0.00
    1   13    3      1.98      0.00
    2   13    3      3.41      0.00
    3   13    3     -2.65      0.00
    4   13    3      1.17      0.00
    5   13    3     -2.87      0.00
    6   13    3      0.40      0.00
    7   13    3      0.50      0.00
    8   13    3      0.63      0.00
    9   13    3      0.26      0.00
   10   13    3      3.23      0.00
   11   13    3      4.89      0.00
   12   13    3     -1.38      0.00
   13   13    3     -1.19      0.00
   -8   14    3      1.93      0.00
   -7   14    3      0.08      0.00
   -6   14    3     -0.14      0.00
   -5   14    3     -0.19      0.00
   -4   14    3     -1.29      0.00
   -3   14    3     -1.73      0.00
   -2   14    3     -2.25      0.00
   -1   14    3     -2.42      0.00
    0   14    3      3.91      0.00
    1   14    3     -6.25      0.00
    2   14    3      3.85      0.00
    3   14    3      0.72      0.00
    4   14    3      0.47      0.00
    5   14    3      2.00      0.00
    6   14    3     -2.46      0.00
    7   14    3      0.32      0.00
    8   14    3      3.57      0.00
    9   14    3      0.83      0.00
   10   14    3     -2.31      0.00
   11   14    3      0.20      0.00
   12   14    3     -0.38      0.00
   13   14    3     -1.60      0.00
   -7   15    3      3.11      0.00
   -6   15    3     -2.24      0.00
   -5   15    3      0.12      0.00
   -4   15    3     -0.27      0.00
   -3   15    3     -0.18      0.00
   -2   15    3      4.36      0.00
   -1   15    3      1.51      0.00
    0   15    3      1.15      0.00
    1   15    3      2.56      0.00
    2   15    3     -3.39      0.00
    3   15    3      4.67      0.00
    4   15    3     -0.88      0.00
    5   15    3      0.10      0.00
    6   15    3      1.42      0.00
    7   15    3     -0.96      0.00
    8   15    3     -1.85      0.00
    9   15    3     -0.66      0.00
   10   15    3     -1.26      0.00
   11   15    3     -1.33      0.00
   12   15    3      0.75      0.00
   -6   16    3      2.00      0.00
   -5   16    3     -1.47      0.00
   -4   16    3      2.31      0.00
   -3   16    3     -0.84      0.00
   -2   16    3      0.33      0.00
   -1   16    3      4.34      0.00
    0   16    3     -2.83      0.00
    1   16    3     -1.33      0.00
    2   16    3     -0.77      0.00
    3   16    3     -4.38      0.00
    4   16    3      0.29      0.00
    5   16    3     -1.07      0.00
    6   16    3      0.93      0.00
    7   16    3      1.68      0.00
    8   16    3     -0.33      0.00
    9   16    3      0.03      0.00
   10   16    3      0.93      0.00
   11   16    3      1.62      0.00
   -4   17    3     -0.30      0.00
   -3   17    3     -0.59      0.00
   -2   17    3     -3.11      0.00
   -1   17    3      0.70      0.00
    0   17    3      1.21      0.00
    1   17    3     -2.30      0.00
    2   17    3     -1.08      0.00
    3   17    3     -2.03      0.00
    4   17    3     -3.11      0.00
    5   17    3     -1.50      0.00
    6   17    3     -2.26      0.00
    7   17    3      1.01      0.00
    8   17    3      0.09      0.00
    9   17    3      2.43      0.00
   10   17    3      2.61      0.00
   11   17    3     -0.49      0.00
   -3   18    3      1.55      0.00
   -2   18    3      0.10      0.00
   -1   18    3      0.64      0.00
    0   18    3      1.13      0.00
    1   18    3     -0.30      0.00
    2   18    3      1.42      0.00
    3   18    3     -1.20      0.00
    4   18    3     -3.50      0.00
    5   18    3     -0.07      0.00
    6   18    3      0.05      0.00
    7   18    3     -0.18      0.00
    8   18    3      0.27      0.00
    9   18    3     -4.61      0.00
   10   18    3      1.11      0.00
   -1   19    3     -2.60      0.00
    0   19    3      0.64      0.00
    1   19    3      0.12      0.00
    2   19    3      1.17      0.00
    3   19    3      2.64      0.00
    4   19    3     -2.64      0.00
    5   19    3     -0.95      0.00
    6   19    3      4.66      0.00
    7   19    3      0.10      0.00
    8   19    3     -0.38      0.00
    2   20    3     -0.64      0.00
    3   20    3     -0.45      0.00
    4   20    3      1.76      0.00
    5   20    3     -1.34      0.00
    6   20    3     -0.25      0.00
   -5  -18    4     -1.48      0.00
   -4  -18    4     -1.70      0.00
   -3  -18    4     -2.60      0.00
   -2  -18    4      1.73      0.00
   -1  -18    4      3.87      0.00
   -7  -17    4     -1.51      0.00
   -6  -17    4      0.32      0.00
   -5  -17    4     -1.96      0.00
   -4  -17    4     -0.96      0.00
   -3  -17    4     -3.47      0.00
   -2  -17    4     -2.84      0.00
   -1  -17    4      0.30      0.00
    0  -17    4     -1.10      0.00
    1  -17    4      0.62      0.00
    2  -17    4     -4.13      0.00
   -9  -16    4      1.82      0.00
   -8  -16    4     -0.05      0.00
   -7  -16    4     -1.78      0.00
   -6  -16    4     -1.59      0.00
   -5  -16    4      0.00      0.00
   -4  -16    4     -1.08      0.00
   -3  -16    4     -0.25      0.00
   -2  -16    4     -3.71      0.00
   -1  -16    4     -1.42      0.00
    0  -16    4     -0.15      0.00
    1  -16    4      1.15      0.00
    2  -16    4      3.41      0.00
    3  -16    4     -6.36      0.00
    4  -16    4     -4.44      0.00
  -10  -15    4     -0.95      0.00
   -9  -15    4      0.64      0.00
   -8  -15    4     -0.24      0.00
   -7  -15    4     -0.80      0.00
   -6  -15    4     -2.50      0.00
   -5  -15    4     -2.22      0.00
   -4  -15    4     -0.57      0.00
   -3  -15    4      0.99      0.00
   -2  -15    4     -2.92      0.00
   -1  -15    4      1.41      0.00
    0  -15    4      2.62      0.00
    1  -15    4      0.63      0.00
    2  -15    4      0.84      0.00
    3  -15    4      0.71      0.00
    4  -15    4     -0.56      0.00
    5  -15    4     -1.05      0.00
  -11  -14    4      3.69      0.00
  -10  -14    4      0.44      0.00
   -9  -14    4      0.43      0.00
   -8  -14    4      1.14      0.00
   -7  -14    4     -0.65      0.00
   -6  -14    4     -0.65      0.00
   -5  -14    4     -0.62      0.00
   -4  -14    4      0.13      0.00
   -3  -14    4      4.11      0.00
   -2  -14    4      5.32      0.00
   -1  -14    4     -2.32      0.00
    0  -14    4      0.06      0.00
    1  -14    4     -4.33      0.00
    2  -14    4      0.89      0.00
    3  -14    4      3.13      0.00
    4  -14    4      3.71      0.00
    5  -14    4      3.88      0.00
    6  -14    4     -1.53      0.00
  -11  -13    4     -2.23      0.00
  -10  -13    4      0.81      0.00
   -9  -13    4      1.57      0.00
   -8  -13    4      0.91      0.00
   -7  -13    4      1.80      0.00
   -6  -13    4     -0.44      0.00
   -5  -13    4     -0.29      0.00
   -4  -13    4      1.67      0.00
   -3  -13    4     -2.01      0.00
   -2  -13    4      4.19      0.00
   -1  -13    4      0.25      0.00
    0  -13    4     -2.86      0.00
    1  -13    4     -1.44      0.00
    2  -13    4     -3.03      0.00
    3  -13    4      2.79      0.00
    4  -13    4     -2.24      0.00
    5  -13    4     -0.51      0.00
    6  -13    4     -1.67      0.00
    7  -13    4     -0.06      0.00
  -12  -12    4      0.84      0.00
  -11  -12    4      1.34      0.00
  -10  -12    4     -0.65      0.00
   -9  -12    4     -0.79      0.00
   -8  -12    4      0.54      0.00
   -7  -12    4     -0.67      0.00
   -6  -12    4      1.18      0.00
   -5  -12    4     -3.20      0.00
   -4  -12    4      1.63      0.00
   -3  -12    4      0.08      0.00
   -2  -12    4     -4.05      0.00
   -1  -12    4      2.70      0.00
    0  -12    4     -1.06      0.00
    1  -12    4      3.91      0.00
    2  -12    4      0.99      0.00
    3  -12    4     -2.70      0.00
    4  -12    4     -0.42      0.00
    5  -12    4     -3.58      0.00
    6  -12    4     -0.54      0.00
    7  -12    4     -2.37      0.00
    8  -12    4      2.65      0.00
  -12  -11    4      3.17      0.00
  -11  -11    4      2.60      0.00
  -10  -11    4      3.53      0.00
   -9  -11    4     -1.27      0.00
   -8  -11    4     -2.10      0.00
   -7  -11    4     -1.98      0.00
   -6  -11    4     -0.04      0.00
   -5  -11    4      3.53      0.00
   -4  -11    4     -3.16      0.00
   -3  -11    4      4.30      0.00
   -2  -11    4     -5.14      0.00
   -1  -11    4     -2.25      0.00
    0  -11    4     -2.05      0.00
    1  -11    4      0.67      0.00
    2  -11    4      7.73      0.00
    3  -11    4      4.16      0.00
    4  -11    4      0.76      0.00
    5  -11    4      0.09      0.00
    6  -11    4      0.69      0.00
    7  -11    4     -0.92      0.00
    8  -11    4     -4.44      0.00
    9  -11    4      1.70      0.00
  -13  -10    4      0.24      0.00
  -12  -10    4      3.33      0.00
  -11  -10    4      2.98      0.00
  -10  -10    4     -0.06      0.00
   -9  -10    4      0.94      0.00
   -8  -10    4      0.08      0.00
   -7  -10    4      0.11      0.00
   -6  -10    4     -2.65      0.00
   -5  -10    4      2.00      0.00
   -4  -10    4     -0.19      0.00
   -3  -10    4     -1.85      0.00
   -2  -10    4      4.38      0.00
   -1  -10    4     -3.50      0.00
    0  -10    4      1.10      0.00
    1  -10    4     -6.30      0.00
    2  -10    4      2.37      0.00
    3  -10    4      3.42      0.00
    4  -10    4      1.31      0.00
    5  -10    4      1.49      0.00
    6  -10    4     -1.54      0.00
    7  -10    4      0.01      0.00
    8  -10    4     -0.82      0.00
    9  -10    4     -3.57      0.00
   10  -10    4      1.07      0.00
  -13   -9    4      3.08      0.00
  -12   -9    4     -2.03      0.00
  -11   -9    4      0.16      0.00
  -10   -9    4     -2.25      0.00
   -9   -9    4      1.16      0.00
   -8   -9    4     -1.15      0.00
   -7   -9    4      2.95      0.00
   -6   -9    4      1.88      0.00
   -5   -9    4     -0.36      0.00
   -4   -9    4      3.11      0.00
   -3   -9    4     -3.81      0.00
   -2   -9    4      5.36      0.00
   -1   -9    4     -1.11      0.00
    0   -9    4      0.38      0.00
    1   -9    4     -0.20      0.00
    2   -9    4     -3.71      0.00
    3   -9    4      1.21      0.00
    4   -9    4     -4.69      0.00
    5   -9    4     -0.22      0.00
    6   -9    4     -0.19      0.00
    7   -9    4     -1.73      0.00
    8   -9    4      1.51      0.00
    9   -9    4      1.61      0.00
   10   -9    4     -1.21      0.00
   11   -9    4      1.51      0.00
  -13   -8    4     -1.01      0.00
  -12   -8    4      1.12      0.00
  -11   -8    4     -1.58      0.00
  -10   -8    4     -0.01      0.00
   -9   -8    4     -1.15      0.00
   -8   -8    4      3.72      0.00
   -7   -8    4     -4.18      0.00
   -6   -8    4      5.33      0.00
   -5   -8    4      1.32      0.00
   -4   -8    4      4.14      0.00
   -3   -8    4     -1.25      0.00
   -2   -8    4     -3.34      0.00
   -1   -8    4      7.90      0.00
    0   -8    4     -5.29      0.00
    1   -8    4      5.52      0.00
    2   -8    4     -3.28      0.00
    3   -8    4     -0.59      0.00
    4   -8    4     -1.22      0.00
    5   -8    4     -6.17      0.00
    6   -8    4      0.71      0.00
    7   -8    4     -3.52      0.00
    8   -8    4      0.46      0.00
    9   -8    4      0.97      0.00
   10   -8    4      1.27      0.00
   11   -8    4     -3.77      0.00
  -14   -7    4     -1.67      0.00
  -13   -7    4      0.95      0.00
  -12   -7    4     -0.37      0.00
  -11   -7    4      1.19      0.00
  -10   -7    4      2.75      0.00
   -9   -7    4     -3.54      0.00
   -8   -7    4      1.17      0.00
   -7   -7    4      2.00      0.00
   -6   -7    4     -3.54      0.00
   -5   -7    4      6.74      0.00
   -4   -7    4     -4.28      0.00
   -3   -7    4      4.89      0.00
   -2   -7    4     -5.36      0.00
   -1   -7    4      4.99      0.00
    0   -7    4      6.65      0.00
    1   -7    4     -1.38      0.00
    2   -7    4      7.79      0.00
    3   -7    4     -3.77      0.00
    4   -7    4      1.15      0.00
    5   -7    4     -1.51      0.00
    6   -7    4      2.26      0.00
    7   -7    4      2.96      0.00
    8   -7    4     -3.71      0.00
    9   -7    4      1.43      0.00
   10   -7    4     -4.74      0.00
   11   -7    4     -0.62      0.00
   12   -7    4     -2.55      0.00
  -14   -6    4      0.86      0.00
  -13   -6    4     -1.40      0.00
  -12   -6    4      0.82      0.00
  -11   -6    4      0.74      0.00
  -10   -6    4     -1.83      0.00
   -9   -6    4      2.10      0.00
   -8   -6    4     -7.55      0.00
   -7   -6    4      2.40      0.00
   -6   -6    4     -4.52      0.00
   -5   -6    4      3.99      0.00
   -4   -6    4      0.29      0.00
   -3   -6    4     -7.51      0.00
   -2   -6    4      3.17      0.00
   -1   -6    4     -7.20      0.00
    0   -6    4      7.85      0.00
    1   -6    4      3.49      0.00
    2   -6    4      6.30      0.00
    3   -6    4      7.74      0.00
    4   -6    4     -5.18      0.00
    5   -6    4     -1.35      0.00
    6   -6    4     -2.12      0.00
    7   -6    4      5.52      0.00
    8   -6    4     -1.70      0.00
    9   -6    4     -3.55      0.00
   10   -6    4      0.14      0.00
   11   -6    4     -1.04      0.00
   12   -6    4      3.61      0.00
  -14   -5    4      3.49      0.00
  -13   -5    4     -0.44      0.00
  -12   -5    4     -0.43      0.00
  -11   -5    4     -0.85      0.00
  -10   -5    4     -0.40      0.00
   -9   -5    4     -1.93      0.00
   -8   -5    4      2.93      0.00
   -7   -5    4     -7.73      0.00
   -6   -5    4     -1.59      0.00
   -5   -5    4    -10.34      0.00
   -4   -5    4     11.58      0.00
   -3   -5    4     -3.93      0.00
   -2   -5    4      2.50      0.00
   -1   -5    4     -5.90      0.00
    0   -5    4     -6.91      0.00
    1   -5    4      3.95      0.00
    2   -5    4     -4.14      0.00
    3   -5    4      4.48      0.00
    4   -5    4      2.45      0.00
    5   -5    4     -2.33      0.00
    6   -5    4     -0.04      0.00
    7   -5    4     -3.13      0.00
    8   -5    4      2.44      0.00
    9   -5    4     -1.55      0.00
   10   -5    4      1.03      0.00
   11   -5    4     -1.98      0.00
   12   -5    4     -0.81      0.00
   13   -5    4     -0.53      0.00
  -14   -4    4      2.94      0.00
  -13   -4    4      0.48      0.00
  -12   -4    4     -2.81      0.00
  -11   -4    4      2.22      0.00
  -10   -4    4      0.36      0.00
   -9   -4    4     -0.49      0.00
   -8   -4    4      0.27      0.00
   -7   -4    4      3.09      0.00
   -6   -4    4     -2.00      0.00
   -5   -4    4     -6.47      0.00
   -4   -4    4    -10.06      0.00
   -3   -4    4      2.31      0.00
   -2   -4    4     -3.14      0.00
   -1   -4    4      7.07      0.00
    0   -4    4    -16.96      0.00
    1   -4    4      2.59      0.00
    2   -4    4      5.08      0.00
    3   -4    4     -2.47      0.00
    4   -4    4      4.31      0.00
    5   -4    4     -0.76      0.00
    6   -4    4      6.09      0.00
    7   -4    4      3.81      0.00
    8   -4    4     -3.65      0.00
    9   -4    4      0.24      0.00
   10   -4    4     -0.02      0.00
   11   -4    4      0.07      0.00
   12   -4    4     -2.46      0.00
   13   -4    4      0.41      0.00
  -14   -3    4     -0.87      0.00
  -13   -3    4     -0.26      0.00
  -12   -3    4     -0.39      0.00
  -11   -3    4     -1.15      0.00
  -10   -3    4      4.81      0.00
   -9   -3    4     -4.25      0.00
   -8   -3    4     -1.46      0.00
   -7   -3    4      2.09      0.00
   -6   -3    4     -1.45      0.00
   -5   -3    4      7.24      0.00
   -4   -3    4     -5.17      0.00
   -3   -3    4     -6.79      0.00
   -2   -3    4    -14.77      0.00
   -1   -3    4      8.71      0.00
    0   -3    4      4.55      0.00
    1   -3    4     -6.40      0.00
    2   -3    4      8.01      0.00
    3   -3    4     -3.09      0.00
    4   -3    4     -0.92      0.00
    5   -3    4     -1.03      0.00
    6   -3    4     -4.79      0.00
    7   -3    4      4.19      0.00
    8   -3    4     -0.91      0.00
    9   -3    4     -3.87      0.00
   10   -3    4     -0.10      0.00
   11   -3    4      1.66      0.00
   12   -3    4      1.59      0.00
   13   -3    4     -2.07      0.00
  -14   -2    4     -0.58      0.00
  -13   -2    4     -1.44      0.00
  -12   -2    4     -0.54      0.00
  -11   -2    4      0.68      0.00
  -10   -2    4     -2.88      0.00
   -9   -2    4      3.13      0.00
   -8   -2    4     -7.25      0.00
   -7   -2    4      5.47      0.00
   -6   -2    4     -0.20      0.00
   -5   -2    4     -6.64      0.00
   -4   -2    4     20.37      0.00
   -3   -2    4      3.84      0.00
   -2   -2    4     -6.96      0.00
   -1   -2    4    -31.70      0.00
    0   -2    4     13.69      0.00
    1   -2    4      1.88      0.00
    2   -2    4     11.10      0.00
    3   -2    4     -0.75      0.00
    4   -2    4     -3.64      0.00
    5   -2    4      4.97      0.00
    6   -2    4     -0.66      0.00
    7   -2    4      1.28      0.00
    8   -2    4      1.40      0.00
    9   -2    4      1.99      0.00
   10   -2    4      1.72      0.00
   11   -2    4      0.50      0.00
   12   -2    4     -0.54      0.00
   13   -2    4     -0.17      0.00
   14   -2    4     -4.82      0.00
  -14   -1    4      3.62      0.00
  -13   -1    4      0.61      0.00
  -12   -1    4     -0.08      0.00
  -11   -1    4      0.77      0.00
  -10   -1    4      0.29      0.00
   -9   -1    4      1.03      0.00
   -8   -1    4     -1.38      0.00
   -7   -1    4     -3.66      0.00
   -6   -1    4      9.23      0.00
   -5   -1    4     -9.02      0.00
   -4   -1    4     -3.99      0.00
   -3   -1    4     18.12      0.00
   -2   -1    4      0.67      0.00
   -1   -1    4      1.74      0.00
    0   -1    4    -20.46      0.00
    1   -1    4     13.53      0.00
    2   -1    4     -3.22      0.00
    3   -1    4      9.63      0.00
    4   -1    4    -15.72      0.00
    5   -1    4     -2.74      0.00
    6   -1    4      2.03      0.00
    7   -1    4      2.54      0.00
    8   -1    4      5.39      0.00
    9   -1    4     -5.02      0.00
   10   -1    4      3.83      0.00
   11   -1    4      0.41      0.00
   12   -1    4      0.94      0.00
   13   -1    4     -0.50      0.00
   14   -1    4     -0.61      0.00
  -14    0    4      0.06      0.00
  -13    0    4     -0.36      0.00
  -12    0    4      0.44      0.00
  -11    0    4      1.83      0.00
  -10    0    4     -0.44      0.00
   -9    0    4     -4.77      0.00
   -8    0    4      5.80      0.00
   -7    0    4     -6.71      0.00
   -6    0    4      2.69      0.00
   -5    0    4     -5.10      0.00
   -4    0    4     -3.75      0.00
   -3    0    4      5.64      0.00
   -2    0    4     -7.38      0.00
   -1    0    4     -3.51      0.00
    0    0    4     14.71      0.00
    1    0    4      2.89      0.00
    2    0    4     16.77      0.00
    3    0    4     -5.04      0.00
    4    0    4      4.18      0.00
    5    0    4    -11.24      0.00
    6    0    4     -0.41      0.00
    7    0    4     -4.28      0.00
    8    0    4      3.36      0.00
    9    0    4      3.38      0.00
   10    0    4     -6.65      0.00
   11    0    4      2.31      0.00
   12    0    4     -1.30      0.00
   13    0    4      2.89      0.00
   14    0    4      1.50      0.00
  -13    1    4      1.14      0.00
  -12    1    4     -2.38      0.00
  -11    1    4      1.15      0.00
  -10    1    4     -0.34      0.00
   -9    1    4     -2.48      0.00
   -8    1    4     -0.80      0.00
   -7    1    4      8.86      0.00
   -6    1    4    -10.35      0.00
   -5    1    4      5.16      0.00
   -4    1    4    -20.08      0.00
   -3    1    4     16.17      0.00
   -2    1    4     -3.32      0.00
   -1    1    4    -19.96      0.00
    0    1    4     30.35      0.00
    1    1    4     29.77      0.00
    2    1    4     24.19      0.00
    3    1    4     22.52      0.00
    4    1    4     11.71      0.00
    5    1    4     15.11      0.00
    6    1    4     -0.37      0.00
    7    1    4      3.50      0.00
    8    1    4     -0.52      0.00
    9    1    4      2.97      0.00
   10    1    4      1.11      0.00
   11    1    4     -2.21      0.00
   12    1    4     -0.16      0.00
   13    1    4     -0.23      0.00
   14    1    4      1.16      0.00
  -13    2    4      1.41      0.00
  -12    2    4      0.06      0.00
  -11    2    4     -3.16      0.00
  -10    2    4     -0.60      0.00
   -9    2    4     -1.31      0.00
   -8    2    4     -2.78      0.00
   -7    2    4      2.46      0.00
   -6    2    4      2.38      0.00
   -5    2    4     -0.86      0.00
   -4    2    4      6.59      0.00
   -3    2    4    -17.76      0.00
   -2    2    4     33.13      0.00
   -1    2    4      9.75      0.00
    0    2    4     23.63      0.00
    1    2    4     43.18      0.00
    2    2    4    -20.62      0.00
    3    2    4      2.52      0.00
    4    2    4      5.27      0.00
    5    2    4     14.13      0.00
    6    2    4      8.07      0.00
    7    2    4     -0.31      0.00
    8    2    4      6.11      0.00
    9    2    4     -0.91      0.00
   10    2    4     -4.00      0.00
   11    2    4     -0.22      0.00
   12    2    4      0.89      0.00
   13    2    4      0.07      0.00
   14    2    4     -0.65      0.00
  -13    3    4     -1.88      0.00
  -12    3    4     -3.00      0.00
  -11    3    4      1.22      0.00
  -10    3    4     -2.08      0.00
   -9    3    4     -2.88      0.00
   -8    3    4      1.68      0.00
   -7    3    4      1.11      0.00
   -6    3    4      4.77      0.00
   -5    3    4     -8.34      0.00
   -4    3    4     11.36      0.00
   -3    3    4     -0.28      0.00
   -2    3    4     -5.79      0.00
   -1    3    4     13.40      0.00
    0    3    4     -0.89      0.00
    1    3    4     15.41      0.00
    2    3    4      8.07      0.00
    3    3    4    -41.14      0.00
    4    3    4     -5.48      0.00
    5    3    4    -10.37      0.00
    6    3    4      9.81      0.00
    7    3    4     -2.37      0.00
    8    3    4      1.77      0.00
    9    3    4      2.84      0.00
   10    3    4     -4.07      0.00
   11    3    4     -2.71      0.00
   12    3    4      2.09      0.00
   13    3    4      1.45      0.00
   14    3    4      1.41      0.00
   15    3    4     -2.70      0.00
  -13    4    4      2.65      0.00
  -12    4    4      2.10      0.00
  -11    4    4     -1.22      0.00
  -10    4    4      6.40      0.00
   -9    4    4      0.11      0.00
   -8    4    4      2.44      0.00
   -7    4    4      3.91      0.00
   -6    4    4     -1.96      0.00
   -5    4    4      2.18      0.00
   -4    4    4    -13.01      0.00
   -3    4    4     13.34      0.00
   -2    4    4    -13.39      0.00
   -1    4    4      2.09      0.00
    0    4    4    -17.68      0.00
    1    4    4     -3.84      0.00
    2    4    4     -1.49      0.00
    3    4    4      0.07      0.00
    4    4    4     -9.57      0.00
    5    4    4     -2.78      0.00
    6    4    4    -13.81      0.00
    7    4    4      5.33      0.00
    8    4    4     -2.35      0.00
    9    4    4      2.18      0.00
   10    4    4     -1.14      0.00
   11    4    4     -0.70      0.00
   12    4    4      1.28      0.00
   13    4    4     -0.84      0.00
   14    4    4      0.49      0.00
   15    4    4      1.25      0.00
  -12    5    4      2.38      0.00
  -11    5    4     -2.06      0.00
  -10    5    4     -2.75      0.00
   -9    5    4      3.12      0.00
   -8    5    4     -1.94      0.00
   -7    5    4      1.22      0.00
   -6    5    4     -2.38      0.00
   -5    5    4     -0.66      0.00
   -4    5    4      2.98      0.00
   -3    5    4     -8.88      0.00
   -2    5    4      5.55      0.00
   -1    5    4     -8.13      0.00
    0    5    4     17.10      0.00
    1    5    4    -21.28      0.00
    2    5    4      7.54      0.00
    3    5    4    -10.32      0.00
    4    5    4     10.08      0.00
    5    5    4     10.75      0.00
    6    5    4     -8.33      0.00
    7    5    4     -5.45      0.00
    8    5    4      2.47      0.00
    9    5    4      3.95      0.00
   10    5    4     -0.22      0.00
   11    5    4     -2.49      0.00
   12    5    4     -0.24      0.00
   13    5    4     -0.99      0.00
   14    5    4     -3.33      0.00
   15    5    4      0.59      0.00
  -12    6    4     -2.04      0.00
  -11    6    4     -1.97      0.00
  -10    6    4     -2.14      0.00
   -9    6    4     -0.30      0.00
   -8    6    4      0.08      0.00
   -7    6    4      0.58      0.00
   -6    6    4      0.29      0.00
   -5    6    4     -5.00      0.00
   -4    6    4     -0.73      0.00
   -3    6    4     -2.65      0.00
   -2    6    4      1.24      0.00
   -1    6    4     -2.32      0.00
    0    6    4      1.00      0.00
    1    6    4      7.53      0.00
    2    6    4    -11.67      0.00
    3    6    4     22.42      0.00
    4    6    4    -13.68      0.00
    5    6    4     11.00      0.00
    6    6    4     10.99      0.00
    7    6    4     -8.94      0.00
    8    6    4      2.14      0.00
    9    6    4     -3.69      0.00
   10    6    4      5.12      0.00
   11    6    4     -1.24      0.00
   12    6    4     -1.41      0.00
   13    6    4     -0.61      0.00
   14    6    4     -0.36      0.00
   15    6    4     -2.43      0.00
  -12    7    4      1.72      0.00
  -11    7    4      0.74      0.00
  -10    7    4      4.30      0.00
   -9    7    4      3.73      0.00
   -8    7    4     -0.43      0.00
   -7    7    4     -3.83      0.00
   -6    7    4      0.10      0.00
   -5    7    4      0.45      0.00
   -4    7    4      0.60      0.00
   -3    7    4     -3.34      0.00
   -2    7    4     -5.38      0.00
   -1    7    4     10.10      0.00
    0    7    4    -10.99      0.00
    1    7    4      2.90      0.00
    2    7    4    -11.65      0.00
    3    7    4     -1.09      0.00
    4    7    4     17.97      0.00
    5    7    4    -11.31      0.00
    6    7    4     10.80      0.00
    7    7    4      1.59      0.00
    8    7    4     -5.76      0.00
    9    7    4      2.66      0.00
   10    7    4     -5.10      0.00
   11    7    4      4.96      0.00
   12    7    4     -0.81      0.00
   13    7    4      0.53      0.00
   14    7    4      0.28      0.00
   15    7    4      1.28      0.00
  -11    8    4     -1.39      0.00
  -10    8    4      0.38      0.00
   -9    8    4      1.14      0.00
   -8    8    4      0.58      0.00
   -7    8    4     -1.46      0.00
   -6    8    4     -2.86      0.00
   -5    8    4      1.72      0.00
   -4    8    4      1.91      0.00
   -3    8    4      1.83      0.00
   -2    8    4     -4.75      0.00
   -1    8    4     -2.11      0.00
    0    8    4      9.80      0.00
    1    8    4     -9.22      0.00
    2    8    4      6.95      0.00
    3    8    4    -15.22      0.00
    4    8    4      4.57      0.00
    5    8    4      2.39      0.00
    6    8    4     -4.15      0.00
    7    8    4      8.88      0.00
    8    8    4     -4.59      0.00
    9    8    4      2.35      0.00
   10    8    4      0.12      0.00
   11    8    4     -3.63      0.00
   12    8    4      3.84      0.00
   13    8    4      2.39      0.00
   14    8    4      3.42      0.00
   15    8    4      0.93      0.00
  -11    9    4     -3.86      0.00
  -10    9    4      1.70      0.00
   -9    9    4      1.81      0.00
   -8    9    4     -0.34      0.00
   -7    9    4      3.52      0.00
   -6    9    4      1.50      0.00
   -5    9    4      0.34      0.00
   -4    9    4      0.38      0.00
   -3    9    4      1.24      0.00
   -2    9    4      1.23      0.00
   -1    9    4      1.27      0.00
    0    9    4      1.11      0.00
    1    9    4      3.54      0.00
    2    9    4     -1.55      0.00
    3    9    4      6.51      0.00
    4    9    4    -10.88      0.00
    5    9    4     -1.39      0.00
    6    9    4     -6.94      0.00
    7    9    4      3.11      0.00
    8    9    4      1.05      0.00
    9    9    4     -3.84      0.00
   10    9    4      4.47      0.00
   11    9    4     -2.62      0.00
   12    9    4     -0.99      0.00
   13    9    4      1.57      0.00
   14    9    4      3.66      0.00
  -10   10    4     -3.76      0.00
   -9   10    4      3.11      0.00
   -8   10    4     -1.68      0.00
   -7   10    4     -1.36      0.00
   -6   10    4      1.91      0.00
   -5   10    4     -2.78      0.00
   -4   10    4      3.35      0.00
   -3   10    4     -1.74      0.00
   -2   10    4      0.12      0.00
   -1   10    4     -0.47      0.00
    0   10    4      3.21      0.00
    1   10    4      0.31      0.00
    2   10    4      2.67      0.00
    3   10    4      2.88      0.00
    4   10    4      3.15      0.00
    5   10    4     -1.23      0.00
    6   10    4     -3.82      0.00
    7   10    4     -3.78      0.00
    8   10    4      7.40      0.00
    9   10    4     -2.06      0.00
   10   10    4      1.61      0.00
   11   10    4      0.52      0.00
   12   10    4     -2.47      0.00
   13   10    4     -1.26      0.00
   14   10    4     -2.86      0.00
  -10   11    4     -5.19      0.00
   -9   11    4     -2.03      0.00
   -8   11    4      0.14      0.00
   -7   11    4     -1.50      0.00
   -6   11    4      2.59      0.00
   -5   11    4      0.30      0.00
   -4   11    4     -2.55      0.00
   -3   11    4      2.93      0.00
   -2   11    4     -2.59      0.00
   -1   11    4      2.55      0.00
    0   11    4     -2.85      0.00
    1   11    4      0.77      0.00
    2   11    4     -3.76      0.00
    3   11    4      1.49      0.00
    4   11    4     -0.48      0.00
    5   11    4      0.80      0.00
    6   11    4      6.60      0.00
    7   11    4     -1.98      0.00
    8   11    4     -0.62      0.00
    9   11    4      0.14      0.00
   10   11    4     -3.49      0.00
   11   11    4      2.93      0.00
   12   11    4     -1.30      0.00
   13   11    4     -0.76      0.00
   14   11    4     -2.68      0.00
   -9   12    4      0.61      0.00
   -8   12    4      2.52      0.00
   -7   12    4     -1.98      0.00
   -6   12    4      0.02      0.00
   -5   12    4      1.68      0.00
   -4   12    4     -1.01      0.00
   -3   12    4      1.96      0.00
   -2   12    4     -2.23      0.00
   -1   12    4     -1.12      0.00
    0   12    4      3.62      0.00
    1   12    4     -7.50      0.00
    2   12    4     -0.58      0.00
    3   12    4     -4.28      0.00
    4   12    4      1.55      0.00
    5   12    4     -2.20      0.00
    6   12    4      0.30      0.00
    7   12    4      3.11      0.00
    8   12    4     -3.25      0.00
    9   12    4      0.65      0.00
   10   12    4     -4.80      0.00
   11   12    4     -0.99      0.00
   12   12    4      1.05      0.00
   13   12    4     -0.93      0.00
   14   12    4     -0.21      0.00
   -8   13    4     -1.06      0.00
   -7   13    4     -0.11      0.00
   -6   13    4     -2.30      0.00
   -5   13    4     -0.42      0.00
   -4   13    4     -0.58      0.00
   -3   13    4      2.56      0.00
   -2   13    4      6.34      0.00
   -1   13    4     -3.25      0.00
    0   13    4      4.57      0.00
    1   13    4      2.02      0.00
    2   13    4     -3.45      0.00
    3   13    4      2.77      0.00
    4   13    4     -3.41      0.00
    5   13    4      2.59      0.00
    6   13    4     -0.62      0.00
    7   13    4      0.45      0.00
    8   13    4      0.70      0.00
    9   13    4      0.93      0.00
   10   13    4      0.16      0.00
   11   13    4     -6.17      0.00
   12   13    4     -0.06      0.00
   13   13    4      0.47      0.00
   -8   14    4     -2.98      0.00
   -7   14    4     -2.30      0.00
   -6   14    4      1.10      0.00
   -5   14    4      3.34      0.00
   -4   14    4      1.68      0.00
   -3   14    4     -0.38      0.00
   -2   14    4      2.80      0.00
   -1   14    4      3.64      0.00
    0   14    4     -4.48      0.00
    1   14    4      4.71      0.00
    2   14    4     -3.18      0.00
    3   14    4      0.26      0.00
    4   14    4      2.11      0.00
    5   14    4     -3.01      0.00
    6   14    4     -0.12      0.00
    7   14    4     -1.24      0.00
    8   14    4     -2.16      0.00
    9   14    4     -2.44      0.00
   10   14    4      0.69      0.00
   11   14    4     -0.88      0.00
   12   14    4     -1.17      0.00
   13   14    4      0.98      0.00
   -7   15    4     -1.61      0.00
   -6   15    4      0.15      0.00
   -5   15    4      0.44      0.00
   -4   15    4      3.17      0.00
   -3   15    4      0.84      0.00
   -2   15    4     -4.20      0.00
   -1   15    4     -2.77      0.00
    0   15    4     -0.23      0.00
    1   15    4     -1.68      0.00
    2   15    4      3.25      0.00
    3   15    4     -4.06      0.00
    4   15    4     -0.40      0.00
    5   15    4     -1.77      0.00
    6   15    4     -1.03      0.00
    7   15    4     -0.40      0.00
    8   15    4      0.50      0.00
    9   15    4      0.41      0.00
   10   15    4      0.52      0.00
   11   15    4      1.10      0.00
   12   15    4      1.04      0.00
   -6   16    4     -2.34      0.00
   -5   16    4     -0.97      0.00
   -4   16    4     -2.25      0.00
   -3   16    4      2.74      0.00
   -2   16    4      1.48      0.00
   -1   16    4     -3.90      0.00
    0   16    4     -0.97      0.00
    1   16    4     -0.11      0.00
    2   16    4      1.38      0.00
    3   16    4      2.57      0.00
    4   16    4      0.58      0.00
    5   16    4      2.98      0.00
    6   16    4      2.00      0.00
    7   16    4     -0.04      0.00
    8   16    4     -2.03      0.00
    9   16    4     -1.09      0.00
   10   16    4      2.22      0.00
   11   16    4      2.48      0.00
   12   16    4     -0.23      0.00
   -4   17    4     -2.01      0.00
   -3   17    4     -0.85      0.00
   -2   17    4      2.08      0.00
   -1   17    4      0.12      0.00
    0   17    4      0.50      0.00
    1   17    4      1.81      0.00
    2   17    4      0.77      0.00
    3   17    4      2.93      0.00
    4   17    4      3.41      0.00
    5   17    4      3.42      0.00
    6   17    4     -0.29      0.00
    7   17    4     -1.65      0.00
    8   17    4     -0.05      0.00
    9   17    4     -1.01      0.00
   10   17    4     -2.81      0.00
   11   17    4      1.19      0.00
   -3   18    4     -1.89      0.00
   -2   18    4      1.56      0.00
   -1   18    4      0.73      0.00
    0   18    4     -0.52      0.00
    1   18    4      1.93      0.00
    2   18    4     -2.39      0.00
    3   18    4     -0.43      0.00
    4   18    4      1.74      0.00
    5   18    4     -0.76      0.00
    6   18    4      0.90      0.00
    7   18    4      1.30      0.00
    8   18    4      1.42      0.00
    9   18    4      3.10      0.00
   10   18    4     -2.69      0.00
   -1   19    4      3.90      0.00
    0   19    4     -2.19      0.00
    1   19    4     -1.71      0.00
    2   19    4     -0.29      0.00
    3   19    4     -1.77      0.00
    4   19    4      1.73      0.00
    5   19    4      1.10      0.00
    6   19    4     -1.31      0.00
    7   19    4     -0.06      0.00
    8   19    4     -0.99      0.00
    1   20    4     -0.44      0.00
    2   20    4      0.18      0.00
    3   20    4     -0.17      0.00
    4   20    4      0.12      0.00
    5   20    4      0.65      0.00
    6   20    4     -0.40      0.00
   -6  -17    5     -0.80      0.00
   -5  -17    5      0.99      0.00
   -4  -17    5      1.65      0.00
   -3  -17    5      1.38      0.00
   -2  -17    5      2.67      0.00
   -1  -17    5      2.42      0.00
    0  -17    5      1.79      0.00
    1  -17    5      0.61      0.00
   -8  -16    5     -0.46      0.00
   -7  -16    5      1.96      0.00
   -6  -16    5      2.89      0.00
   -5  -16    5     -1.14      0.00
   -4  -16    5      0.70      0.00
   -3  -16    5      2.74      0.00
   -2  -16    5      4.30      0.00
   -1  -16    5      2.44      0.00
    0  -16    5     -0.08      0.00
    1  -16    5     -0.68      0.00
    2  -16    5     -2.02      0.00
    3  -16    5      3.99      0.00
   -9  -15    5     -1.25      0.00
   -8  -15    5      0.71      0.00
   -7  -15    5      0.54      0.00
   -6  -15    5      0.98      0.00
   -5  -15    5      2.72      0.00
   -4  -15    5      0.33      0.00
   -3  -15    5     -2.41      0.00
   -2  -15    5      0.20      0.00
   -1  -15    5     -1.38      0.00
    0  -15    5     -0.57      0.00
    1  -15    5     -1.80      0.00
    2  -15    5     -2.30      0.00
    3  -15    5     -1.93      0.00
    4  -15    5      0.84      0.00
    5  -15    5      1.35      0.00
  -10  -14    5     -3.10      0.00
   -9  -14    5     -0.45      0.00
   -8  -14    5     -1.26      0.00
   -7  -14    5      1.81      0.00
   -6  -14    5     -0.18      0.00
   -5  -14    5      0.72      0.00
   -4  -14    5      1.14      0.00
   -3  -14    5     -2.01      0.00
   -2  -14    5     -6.76      0.00
   -1  -14    5      0.07      0.00
    0  -14    5      0.23      0.00
    1  -14    5      4.35      0.00
    2  -14    5     -0.18      0.00
    3  -14    5     -0.72      0.00
    4  -14    5     -0.07      0.00
    5  -14    5     -1.86      0.00
    6  -14    5      3.13      0.00
  -11  -13    5      2.48      0.00
  -10  -13    5     -0.34      0.00
   -9  -13    5     -1.48      0.00
   -8  -13    5     -0.54      0.00
   -7  -13    5     -1.04      0.00
   -6  -13    5      2.53      0.00
   -5  -13    5      0.53      0.00
   -4  -13    5     -1.43      0.00
   -3  -13    5      0.24      0.00
   -2  -13    5     -2.83      0.00
   -1  -13    5     -2.70      0.00
    0  -13    5      0.55      0.00
    1  -13    5      0.79      0.00
    2  -13    5      1.86      0.00
    3  -13    5     -1.23      0.00
    4  -13    5      0.30      0.00
    5  -13    5     -0.42      0.00
    6  -13    5     -1.05      0.00
    7  -13    5      0.67      0.00
  -12  -12    5     -1.37      0.00
  -11  -12    5     -2.74      0.00
  -10  -12    5      2.31      0.00
   -9  -12    5      2.02      0.00
   -8  -12    5     -0.22      0.00
   -7  -12    5     -0.67      0.00
   -6  -12    5     -2.39      0.00
   -5  -12    5      1.27      0.00
   -4  -12    5     -0.77      0.00
   -3  -12    5     -0.12      0.00
   -2  -12    5      1.52      0.00
   -1  -12    5     -0.75      0.00
    0  -12    5      3.07      0.00
    1  -12    5     -3.09      0.00
    2  -12    5     -2.72      0.00
    3  -12    5     -3.06      0.00
    4  -12    5      0.44      0.00
    5  -12    5      2.95      0.00
    6  -12    5      0.20      0.00
    7  -12    5      0.99      0.00
    8  -12    5     -1.73      0.00
  -12  -11    5     -3.39      0.00
  -11  -11    5     -1.78      0.00
  -10  -11    5     -4.11      0.00
   -9  -11    5     -0.97      0.00
   -8  -11    5     -0.13      0.00
   -7  -11    5      2.09      0.00
   -6  -11    5      1.41      0.00
   -5  -11    5     -1.83      0.00
   -4  -11    5      1.03      0.00
   -3  -11    5     -2.07      0.00
   -2  -11    5      4.49      0.00
   -1  -11    5      0.02      0.00
    0  -11    5      3.96      0.00
    1  -11    5      1.61      0.00
    2  -11    5     -4.57      0.00
    3  -11    5     -2.47      0.00
    4  -11    5     -2.15      0.00
    5  -11    5      1.74      0.00
    6  -11    5      1.28      0.00
    7  -11    5      2.18      0.00
    8  -11    5      1.74      0.00
    9  -11    5     -0.75      0.00
  -12  -10    5     -2.65      0.00
  -11  -10    5     -3.68      0.00
  -10  -10    5     -1.06      0.00
   -9  -10    5     -1.50      0.00
   -8  -10    5      0.94      0.00
   -7  -10    5     -0.81      0.00
   -6  -10    5      2.44      0.00
   -5  -10    5     -0.91      0.00
   -4  -10    5      0.78      0.00
   -3  -10    5     -0.33      0.00
   -2  -10    5     -2.94      0.00
   -1  -10    5      4.14      0.00
    0  -10    5     -2.75      0.00
    1  -10    5      7.38      0.00
    2  -10    5     -3.96      0.00
    3  -10    5      0.71      0.00
    4  -10    5     -2.15      0.00
    5  -10    5     -4.09      0.00
    6  -10    5      1.75      0.00
    7  -10    5      1.99      0.00
    8  -10    5      3.60      0.00
    9  -10    5      1.45      0.00
   10  -10    5     -0.18      0.00
  -13   -9    5      1.06      0.00
  -12   -9    5      2.77      0.00
  -11   -9    5     -0.03      0.00
  -10   -9    5      1.06      0.00
   -9   -9    5     -0.20      0.00
   -8   -9    5      2.54      0.00
   -7   -9    5      0.19      0.00
   -6   -9    5     -3.29      0.00
   -5   -9    5     -2.31      0.00
   -4   -9    5     -3.03      0.00
   -3   -9    5      8.01      0.00
   -2   -9    5     -3.04      0.00
   -1   -9    5      0.22      0.00
    0   -9    5     -2.63      0.00
    1   -9    5     -2.03      0.00
    2   -9    5      4.19      0.00
    3   -9    5     -5.04      0.00
    4   -9    5      6.48      0.00
    5   -9    5     -0.01      0.00
    6   -9    5     -0.02      0.00
    7   -9    5     -0.24      0.00
    8   -9    5     -1.33      0.00
    9   -9    5     -2.75      0.00
   10   -9    5     -2.34      0.00
  -13   -8    5      2.26      0.00
  -12   -8    5     -0.52      0.00
  -11   -8    5     -0.94      0.00
  -10   -8    5      0.53      0.00
   -9   -8    5      1.88      0.00
   -8   -8    5     -3.75      0.00
   -7   -8    5      3.85      0.00
   -6   -8    5     -1.49      0.00
   -5   -8    5     -0.35      0.00
   -4   -8    5     -5.81      0.00
   -3   -8    5     -2.55      0.00
   -2   -8    5      6.41      0.00
   -1   -8    5     -6.10      0.00
    0   -8    5      5.37      0.00
    1   -8    5     -7.26      0.00
    2   -8    5      3.30      0.00
    3   -8    5      0.19      0.00
    4   -8    5      2.04      0.00
    5   -8    5      6.93      0.00
    6   -8    5     -1.34      0.00
    7   -8    5      3.30      0.00
    8   -8    5     -3.31      0.00
    9   -8    5     -0.16      0.00
   10   -8    5      0.09      0.00
   11   -8    5      3.42      0.00
  -13   -7    5     -2.17      0.00
  -12   -7    5      0.83      0.00
  -11   -7    5     -0.34      0.00
  -10   -7    5     -5.15      0.00
   -9   -7    5      2.19      0.00
   -8   -7    5     -1.03      0.00
   -7   -7    5     -0.80      0.00
   -6   -7    5      1.98      0.00
   -5   -7    5     -5.46      0.00
   -4   -7    5      4.04      0.00
   -3   -7    5     -5.38      0.00
   -2   -7    5      1.68      0.00
   -1   -7    5     -1.81      0.00
    0   -7    5     -2.69      0.00
    1   -7    5      1.40      0.00
    2   -7    5    -10.90      0.00
    3   -7    5      2.03      0.00
    4   -7    5     -1.06      0.00
    5   -7    5      4.56      0.00
    6   -7    5     -1.95      0.00
    7   -7    5     -1.27      0.00
    8   -7    5      6.51      0.00
    9   -7    5     -0.26      0.00
   10   -7    5      3.90      0.00
   11   -7    5     -1.43      0.00
  -13   -6    5      1.48      0.00
  -12   -6    5      0.06      0.00
  -11   -6    5      1.26      0.00
  -10   -6    5      1.85      0.00
   -9   -6    5     -2.85      0.00
   -8   -6    5      4.98      0.00
   -7   -6    5     -1.08      0.00
   -6   -6    5      7.77      0.00
   -5   -6    5     -5.80      0.00
   -4   -6    5     -1.82      0.00
   -3   -6    5      6.53      0.00
   -2   -6    5      2.19      0.00
   -1   -6    5      7.86      0.00
    0   -6    5     -7.89      0.00
    1   -6    5      0.25      0.00
    2   -6    5     -6.76      0.00
    3   -6    5     -7.73      0.00
    4   -6    5     -3.10      0.00
    5   -6    5      0.56      0.00
    6   -6    5      4.07      0.00
    7   -6    5     -4.60      0.00
    8   -6    5      1.05      0.00
    9   -6    5      1.98      0.00
   10   -6    5     -0.15      0.00
   11   -6    5      2.31      0.00
   12   -6    5     -1.73      0.00
  -14   -5    5     -2.62      0.00
  -13   -5    5      0.65      0.00
  -12   -5    5      1.09      0.00
  -11   -5    5     -0.86      0.00
  -10   -5    5     -0.82      0.00
   -9   -5    5      2.27      0.00
   -8   -5    5      0.65      0.00
   -7   -5    5      1.25      0.00
   -6   -5    5      1.72      0.00
   -5   -5    5     11.42      0.00
   -4   -5    5     -7.92      0.00
   -3   -5    5      5.04      0.00
   -2   -5    5     -9.15      0.00
   -1   -5    5      9.02      0.00
    0   -5    5      5.13      0.00
    1   -5    5     -4.27      0.00
    2   -5    5      3.16      0.00
    3   -5    5     -5.49      0.00
    4   -5    5      1.50      0.00
    5   -5    5     -4.66      0.00
    6   -5    5     -0.30      0.00
    7   -5    5     -0.56      0.00
    8   -5    5     -0.24      0.00
    9   -5    5      1.97      0.00
   10   -5    5     -1.57      0.00
   11   -5    5      2.61      0.00
   12   -5    5     -1.05      0.00
  -14   -4    5     -2.84      0.00
  -13   -4    5      0.26      0.00
  -12   -4    5      2.60      0.00
  -11   -4    5     -1.27      0.00
  -10   -4    5     -1.53      0.00
   -9   -4    5     -2.75      0.00
   -8   -4    5     -0.97      0.00
   -7   -4    5      0.70      0.00
   -6   -4    5     -3.95      0.00
   -5   -4    5      6.35      0.00
   -4   -4    5      4.02      0.00
   -3   -4    5      3.86      0.00
   -2   -4    5      2.21      0.00
   -1   -4    5    -21.57      0.00
    0   -4    5     17.45      0.00
    1   -4    5     -4.00      0.00
    2   -4    5      4.37      0.00
    3   -4    5      0.07      0.00
    4   -4    5     -0.81      0.00
    5   -4    5      5.72      0.00
    6   -4    5     -6.74      0.00
    7   -4    5     -5.08      0.00
    8   -4    5     -2.84      0.00
    9   -4    5      3.89      0.00
   10   -4    5      0.82      0.00
   11   -4    5     -2.78      0.00
   12   -4    5      2.45      0.00
   13   -4    5      0.39      0.00
  -14   -3    5      0.25      0.00
  -13   -3    5     -0.53      0.00
  -12   -3    5      0.77      0.00
  -11   -3    5      0.57      0.00
  -10   -3    5     -2.71      0.00
   -9   -3    5      3.18      0.00
   -8   -3    5     -1.91      0.00
   -7   -3    5     -0.65      0.00
   -6   -3    5      3.29      0.00
   -5   -3    5     -6.54      0.00
   -4   -3    5      3.46      0.00
   -3   -3    5     -7.12      0.00
   -2   -3    5     27.22      0.00
   -1   -3    5     -1.04      0.00
    0   -3    5     -9.57      0.00
    1   -3    5      6.09      0.00
    2   -3    5    -13.00      0.00
    3   -3    5     10.07      0.00
    4   -3    5     -6.86      0.00
    5   -3    5      2.80      0.00
    6   -3    5      1.60      0.00
    7   -3    5     -3.97      0.00
    8   -3    5     -2.97      0.00
    9   -3    5     -0.24      0.00
   10   -3    5      4.27      0.00
   11   -3    5     -0.04      0.00
   12   -3    5     -1.81      0.00
   13   -3    5      1.58      0.00
  -14   -2    5      0.41      0.00
  -13   -2    5      0.32      0.00
  -12   -2    5      0.93      0.00
  -11   -2    5      1.07      0.00
  -10   -2    5      0.36      0.00
   -9   -2    5     -0.24      0.00
   -8   -2    5      9.45      0.00
   -7   -2    5     -3.51      0.00
   -6   -2    5     -0.43      0.00
   -5   -2    5      5.75      0.00
   -4   -2    5     -5.32      0.00
   -3   -2    5     -2.69      0.00
   -2   -2    5    -14.44      0.00
   -1   -2    5     33.58      0.00
    0   -2    5     -7.50      0.00
    1   -2    5      3.48      0.00
    2   -2    5    -15.10      0.00
    3   -2    5     -3.92      0.00
    4   -2    5     11.04      0.00
    5   -2    5     -6.33      0.00
    6   -2    5      2.92      0.00
    7   -2    5     -5.58      0.00
    8   -2    5      3.07      0.00
    9   -2    5     -2.06      0.00
   10   -2    5     -3.29      0.00
   11   -2    5     -0.66      0.00
   12   -2    5     -1.01      0.00
   13   -2    5      0.92      0.00
   14   -2    5      5.28      0.00
  -14   -1    5     -1.15      0.00
  -13   -1    5      0.29      0.00
  -12   -1    5     -1.87      0.00
  -11   -1    5     -0.48      0.00
  -10   -1    5      1.81      0.00
   -9   -1    5     -1.82      0.00
   -8   -1    5      2.22      0.00
   -7   -1    5      2.46      0.00
   -6   -1    5     -4.72      0.00
   -5   -1    5      2.96      0.00
   -4   -1    5      1.54      0.00
   -3   -1    5     -3.55      0.00
   -2   -1    5     -4.23      0.00
   -1   -1    5    -12.33      0.00
    0   -1    5     24.34      0.00
    1   -1    5     -5.23      0.00
    2   -1    5     12.06      0.00
    3   -1    5    -13.32      0.00
    4   -1    5      9.78      0.00
    5   -1    5      1.37      0.00
    6   -1    5      1.75      0.00
    7   -1    5      1.61      0.00
    8   -1    5    -10.33      0.00
    9   -1    5      3.51      0.00
   10   -1    5     -3.95      0.00
   11   -1    5     -0.39      0.00
   12   -1    5     -0.83      0.00
   13   -1    5     -0.18      0.00
   14   -1    5      1.01      0.00
  -13    0    5      0.34      0.00
  -12    0    5     -0.78      0.00
  -11    0    5     -5.26      0.00
  -10    0    5      0.39      0.00
   -9    0    5      3.55      0.00
   -8    0    5     -6.21      0.00
   -7    0    5      3.69      0.00
   -6    0    5     -6.92      0.00
   -5    0    5      9.79      0.00
   -4    0    5      0.24      0.00
   -3    0    5     -7.17      0.00
   -2    0    5      6.28      0.00
   -1    0    5      0.33      0.00
    0    0    5    -12.41      0.00
    1    0    5     -2.50      0.00
    2    0    5     -8.89      0.00
    3    0    5      8.56      0.00
    4    0    5     -5.05      0.00
    5    0    5      8.30      0.00
    6    0    5     -2.13      0.00
    7    0    5      6.23      0.00
    8    0    5     -1.42      0.00
    9    0    5     -5.36      0.00
   10    0    5      6.14      0.00
   11    0    5     -0.29      0.00
   12    0    5      2.20      0.00
   13    0    5     -3.72      0.00
   14    0    5     -2.61      0.00
  -13    1    5     -2.17      0.00
  -12    1    5      2.70      0.00
  -11    1    5      0.94      0.00
  -10    1    5     -2.20      0.00
   -9    1    5      3.24      0.00
   -8    1    5      2.39      0.00
   -7    1    5     -3.97      0.00
   -6    1    5      3.86      0.00
   -5    1    5     -7.98      0.00
   -4    1    5     22.98      0.00
   -3    1    5    -12.68      0.00
   -2    1    5     -3.08      0.00
   -1    1    5      4.72      0.00
    0    1    5     -9.23      0.00
    1    1    5     -7.06      0.00
    2    1    5    -11.14      0.00
    3    1    5     -8.15      0.00
    4    1    5     -8.36      0.00
    5    1    5     -6.87      0.00
    6    1    5     -1.59      0.00
    7    1    5     -4.14      0.00
    8    1    5      0.58      0.00
    9    1    5     -0.92      0.00
   10    1    5     -2.11      0.00
   11    1    5     -0.02      0.00
   12    1    5      0.35      0.00
   13    1    5      2.44      0.00
   14    1    5      0.26      0.00
  -13    2    5     -0.93      0.00
  -12    2    5     -1.52      0.00
  -11    2    5      1.86      0.00
  -10    2    5      1.76      0.00
   -9    2    5      2.76      0.00
   -8    2    5      3.01      0.00
   -7    2    5     -3.89      0.00
   -6    2    5      3.63      0.00
   -5    2    5     -0.81      0.00
   -4    2    5     -4.37      0.00
   -3    2    5     15.79      0.00
   -2    2    5    -13.23      0.00
   -1    2    5      5.55      0.00
    0    2    5    -20.12      0.00
    1    2    5    -27.59      0.00
    2    2    5     -1.81      0.00
    3    2    5     -2.58      0.00
    4    2    5      3.89      0.00
    5    2    5    -19.35      0.00
    6    2    5     -7.46      0.00
    7    2    5     -4.33      0.00
    8    2    5     -6.05      0.00
    9    2    5     -3.35      0.00
   10    2    5      4.60      0.00
   11    2    5      0.95      0.00
   12    2    5     -0.57      0.00
   13    2    5      0.47      0.00
   14    2    5      0.00      0.00
  -13    3    5      0.64      0.00
  -12    3    5      2.06      0.00
  -11    3    5     -2.85      0.00
  -10    3    5      0.16      0.00
   -9    3    5      2.50      0.00
   -8    3    5      0.97      0.00
   -7    3    5     -1.77      0.00
   -6    3    5     -5.62      0.00
   -5    3    5      9.49      0.00
   -4    3    5    -11.35      0.00
   -3    3    5      0.69      0.00
   -2    3    5     -6.18      0.00
   -1    3    5     -5.84      0.00
    0    3    5    -11.07      0.00
    1    3    5    -31.21      0.00
    2    3    5    -14.36      0.00
    3    3    5     10.98      0.00
    4    3    5     12.68      0.00
    5    3    5     11.21      0.00
    6    3    5     -9.92      0.00
    7    3    5      1.66      0.00
    8    3    5     -4.27      0.00
    9    3    5     -1.18      0.00
   10    3    5      1.61      0.00
   11    3    5      5.33      0.00
   12    3    5     -0.36      0.00
   13    3    5      0.54      0.00
   14    3    5     -1.35      0.00
   15    3    5      2.19      0.00
  -13    4    5     -2.80      0.00
  -12    4    5     -1.69      0.00
  -11    4    5      3.89      0.00
  -10    4    5     -4.20      0.00
   -9    4    5     -0.83      0.00
   -8    4    5     -1.23      0.00
   -7    4    5     -1.57      0.00
   -6    4    5     -1.35      0.00
   -5    4    5     -3.45      0.00
   -4    4    5      8.89      0.00
   -3    4    5     -9.55      0.00
   -2    4    5     13.84      0.00
   -1    4    5    -15.41      0.00
    0    4    5     19.32      0.00
    1    4    5     -1.87      0.00
    2    4    5      8.88      0.00
    3    4    5      3.73      0.00
    4    4    5     -5.32      0.00
    5    4    5     11.22      0.00
    6    4    5     12.44      0.00
    7    4    5      4.81      0.00
    8    4    5      0.42      0.00
    9    4    5     -4.98      0.00
   10    4    5      2.44      0.00
   11    4    5     -0.42      0.00
   12    4    5     -1.97      0.00
   13    4    5     -0.93      0.00
   14    4    5      1.33      0.00
   15    4    5     -1.63      0.00
  -12    5    5      0.35      0.00
  -11    5    5     -0.10      0.00
  -10    5    5      2.66      0.00
   -9    5    5     -1.90      0.00
   -8    5    5      0.04      0.00
   -7    5    5     -2.31      0.00
   -6    5    5      0.75      0.00
   -5    5    5      4.31      0.00
   -4    5    5      1.88      0.00
   -3    5    5      4.26      0.00
   -2    5    5     -0.50      0.00
   -1    5    5     12.92      0.00
    0    5    5    -14.58      0.00
    1    5    5     26.24      0.00
    2    5    5    -11.09      0.00
    3    5    5     17.37      0.00
    4    5    5      0.21      0.00
    5    5    5    -13.33      0.00
    6    5    5      3.21      0.00
    7    5    5      1.37      0.00
    8    5    5      6.64      0.00
    9    5    5     -5.48      0.00
   10    5    5     -0.94      0.00
   11    5    5      1.13      0.00
   12    5    5     -1.25      0.00
   13    5    5     -0.77      0.00
   14    5    5      2.47      0.00
   15    5    5      0.69      0.00
  -12    6    5     -0.43      0.00
  -11    6    5      2.06      0.00
  -10    6    5     -0.72      0.00
   -9    6    5     -0.23      0.00
   -8    6    5      1.42      0.00
   -7    6    5     -0.72      0.00
   -6    6    5      0.35      0.00
   -5    6    5     -1.77      0.00
   -4    6    5      0.87      0.00
   -3    6    5      0.91      0.00
   -2    6    5     -5.05      0.00
   -1    6    5      0.94      0.00
    0    6    5     -3.59      0.00
    1    6    5     -3.42      0.00
    2    6    5     17.70      0.00
    3    6    5    -19.95      0.00
    4    6    5     10.34      0.00
    5    6    5     -8.99      0.00
    6    6    5    -11.74      0.00
    7    6    5      0.20      0.00
    8    6    5     -2.97      0.00
    9    6    5      7.60      0.00
   10    6    5     -5.56      0.00
   11    6    5      1.15      0.00
   12    6    5      1.22      0.00
   13    6    5      3.05      0.00
   14    6    5      0.41      0.00
   15    6    5      0.71      0.00
  -12    7    5     -2.21      0.00
  -11    7    5      1.20      0.00
  -10    7    5      1.14      0.00
   -9    7    5     -3.32      0.00
   -8    7    5     -0.18      0.00
   -7    7    5      4.02      0.00
   -6    7    5      2.36      0.00
   -5    7    5      2.44      0.00
   -4    7    5     -4.41      0.00
   -3    7    5      5.50      0.00
   -2    7    5      5.06      0.00
   -1    7    5     -3.51      0.00
    0    7    5      3.11      0.00
    1    7    5    -12.30      0.00
    2    7    5      9.67      0.00
    3    7    5      2.22      0.00
    4    7    5    -13.76      0.00
    5    7    5      5.95      0.00
    6    7    5     -6.12      0.00
    7    7    5     -1.18      0.00
    8    7    5      1.45      0.00
    9    7    5     -4.15      0.00
   10    7    5      5.43      0.00
   11    7    5     -3.27      0.00
   12    7    5      0.60      0.00
   13    7    5     -1.52      0.00
   14    7    5     -0.30      0.00
   15    7    5     -2.50      0.00
  -11    8    5      1.35      0.00
  -10    8    5     -1.14      0.00
   -9    8    5     -1.32      0.00
   -8    8    5     -3.39      0.00
   -7    8    5      1.73      0.00
   -6    8    5      1.27      0.00
   -5    8    5      2.48      0.00
   -4    8    5      0.21      0.00
   -3    8    5     -3.57      0.00
   -2    8    5      3.07      0.00
   -1    8    5     -1.96      0.00
    0    8    5     -1.97      0.00
    1    8    5      2.43      0.00
    2    8    5     -8.97      0.00
    3    8    5     10.90      0.00
    4    8    5     -3.26      0.00
    5    8    5      4.94      0.00
    6    8    5     -1.12      0.00
    7    8    5     -5.28      0.00
    8    8    5      3.04      0.00
    9    8    5     -0.63      0.00
   10    8    5     -1.94      0.00
   11    8    5      3.04      0.00
   12    8    5     -2.03      0.00
   13    8    5     -1.09      0.00
   14    8    5     -3.08      0.00
   15    8    5      0.37      0.00
  -11    9    5      1.53      0.00
  -10    9    5     -1.88      0.00
   -9    9    5     -2.70      0.00
   -8    9    5      0.77      0.00
   -7    9    5     -2.56      0.00
   -6    9    5      0.02      0.00
   -5    9    5     -4.10      0.00
   -4    9    5      0.52      0.00
   -3    9    5     -1.96      0.00
   -2    9    5      3.55      0.00
   -1    9    5     -1.45      0.00
    0    9    5     -2.08      0.00
    1    9    5      2.50      0.00
    2    9    5     -0.90      0.00
    3    9    5     -3.63      0.00
    4    9    5     -0.33      0.00
    5    9    5      0.79      0.00
    6    9    5     12.24      0.00
    7    9    5     -4.05      0.00
    8    9    5     -0.48      0.00
    9    9    5      2.62      0.00
   10    9    5     -1.10      0.00
   11    9    5      1.91      0.00
   12    9    5      0.87      0.00
   13    9    5     -0.72      0.00
   14    9    5     -2.19      0.00
  -10   10    5      4.63      0.00
   -9   10    5     -1.06      0.00
   -8   10    5      2.24      0.00
   -7   10    5      0.44      0.00
   -6   10    5     -1.71      0.00
   -5   10    5      2.81      0.00
   -4   10    5     -2.32      0.00
   -3   10    5      4.09      0.00
   -2   10    5     -3.94      0.00
   -1   10    5      4.39      0.00
    0   10    5     -5.61      0.00
    1   10    5     -1.03      0.00
    2   10    5     -1.03      0.00
    3   10    5     -2.31      0.00
    4   10    5      3.86      0.00
    5   10    5     -4.66      0.00
    6   10    5      4.46      0.00
    7   10    5      3.62      0.00
    8   10    5     -4.16      0.00
    9   10    5      1.39      0.00
   10   10    5     -2.78      0.00
   11   10    5     -1.70      0.00
   12   10    5      0.34      0.00
   13   10    5      1.03      0.00
   14   10    5      3.64      0.00
  -10   11    5      2.36      0.00
   -9   11    5      0.36      0.00
   -8   11    5     -1.83      0.00
   -7   11    5      1.09      0.00
   -6   11    5     -2.39      0.00
   -5   11    5      0.24      0.00
   -4   11    5      1.07      0.00
   -3   11    5     -1.86      0.00
   -2   11    5      3.14      0.00
   -1   11    5     -6.35      0.00
    0   11    5      4.26      0.00
    1   11    5      0.14      0.00
    2   11    5      5.24      0.00
    3   11    5     -2.51      0.00
    4   11    5     -1.10      0.00
    5   11    5      0.89      0.00
    6   11    5     -8.52      0.00
    7   11    5      3.03      0.00
    8   11    5     -0.35      0.00
    9   11    5      0.36      0.00
   10   11    5      1.98      0.00
   11   11    5     -2.44      0.00
   12   11    5      2.05      0.00
   13   11    5      1.25      0.00
   14   11    5      3.12      0.00
   -9   12    5     -1.06      0.00
   -8   12    5     -3.80      0.00
   -7   12    5      2.48      0.00
   -6   12    5      2.10      0.00
   -5   12    5      0.81      0.00
   -4   12    5     -0.70      0.00
   -3   12    5     -5.70      0.00
   -2   12    5      3.43      0.00
   -1   12    5      3.78      0.00
    0   12    5     -4.64      0.00
    1   12    5      2.50      0.00
    2   12    5     -0.90      0.00
    3   12    5      4.67      0.00
    4   12    5     -1.16      0.00
    5   12    5      1.77      0.00
    6   12    5      1.01      0.00
    7   12    5     -2.95      0.00
    8   12    5      2.85      0.00
    9   12    5     -0.75      0.00
   10   12    5      5.35      0.00
   11   12    5      3.02      0.00
   12   12    5     -0.29      0.00
   13   12    5     -0.97      0.00
   14   12    5     -1.30      0.00
   -8   13    5      1.50      0.00
   -7   13    5     -0.05      0.00
   -6   13    5     -0.12      0.00
   -5   13    5     -2.48      0.00
   -4   13    5      3.11      0.00
   -3   13    5     -1.66      0.00
   -2   13    5     -6.22      0.00
   -1   13    5      3.74      0.00
    0   13    5     -1.27      0.00
    1   13    5     -1.52      0.00
    2   13    5      2.84      0.00
    3   13    5     -0.40      0.00
    4   13    5      4.19      0.00
    5   13    5      0.58      0.00
    6   13    5      0.32      0.00
    7   13    5     -1.39      0.00
    8   13    5     -0.76      0.00
    9   13    5      1.53      0.00
   10   13    5     -1.64      0.00
   11   13    5      3.57      0.00
   12   13    5     -1.12      0.00
   13   13    5      0.09      0.00
   -7   14    5      1.31      0.00
   -6   14    5     -0.08      0.00
   -5   14    5     -3.85      0.00
   -4   14    5     -1.76      0.00
   -3   14    5      3.60      0.00
   -2   14    5     -2.19      0.00
   -1   14    5     -4.19      0.00
    0   14    5     -0.32      0.00
    1   14    5     -2.95      0.00
    2   14    5      2.71      0.00
    3   14    5      0.32      0.00
    4   14    5     -2.03      0.00
    5   14    5      0.79      0.00
    6   14    5      0.90      0.00
    7   14    5      1.60      0.00
    8   14    5      2.02      0.00
    9   14    5      1.46      0.00
   10   14    5      1.34      0.00
   11   14    5      0.23      0.00
   12   14    5      0.89      0.00
   13   14    5     -1.44      0.00
   -7   15    5     -0.60      0.00
   -6   15    5      3.68      0.00
   -5   15    5      2.55      0.00
   -4   15    5     -4.30      0.00
   -3   15    5     -4.30      0.00
   -2   15    5     -0.44      0.00
   -1   15    5      1.69      0.00
    0   15    5      1.52      0.00
    1   15    5     -1.03      0.00
    2   15    5     -2.28      0.00
    3   15    5      3.02      0.00
    4   15    5      0.61      0.00
    5   15    5      0.10      0.00
    6   15    5     -1.42      0.00
    7   15    5      1.93      0.00
    8   15    5      2.20      0.00
    9   15    5      1.27      0.00
   10   15    5     -1.74      0.00
   11   15    5     -0.99      0.00
   12   15    5     -0.91      0.00
   -6   16    5      0.29      0.00
   -5   16    5      1.91      0.00
   -4   16    5      1.57      0.00
   -3   16    5     -1.20      0.00
   -2   16    5     -0.30      0.00
   -1   16    5      2.86      0.00
    0   16    5      4.14      0.00
    1   16    5      2.00      0.00
    2   16    5     -2.04      0.00
    3   16    5     -1.81      0.00
    4   16    5     -1.31      0.00
    5   16    5     -1.27      0.00
    6   16    5      0.74      0.00
    7   16    5     -1.96      0.00
    8   16    5     -0.16      0.00
    9   16    5      0.28      0.00
   10   16    5     -1.31      0.00
   11   16    5     -3.99      0.00
   12   16    5      0.62      0.00
   -5   17    5      6.15      0.00
   -4   17    5      3.87      0.00
   -3   17    5      1.72      0.00
   -2   17    5     -0.29      0.00
   -1   17    5     -0.20      0.00
    0   17    5     -1.34      0.00
    1   17    5     -1.02      0.00
    2   17    5     -0.12      0.00
    3   17    5     -1.27      0.00
    4   17    5     -0.73      0.00
    5   17    5     -2.95      0.00
    6   17    5     -0.65      0.00
    7   17    5     -0.81      0.00
    8   17    5     -1.45      0.00
    9   17    5      2.22      0.00
   10   17    5      5.12      0.00
   11   17    5      0.73      0.00
   -3   18    5      1.75      0.00
   -2   18    5     -2.18      0.00
   -1   18    5     -0.66      0.00
    0   18    5      0.77      0.00
    1   18    5     -3.28      0.00
    2   18    5     -0.21      0.00
    3   18    5     -0.03      0.00
    4   18    5     -0.36      0.00
    5   18    5      0.13      0.00
    6   18    5     -2.34      0.00
    7   18    5      0.92      0.00
    8   18    5      0.64      0.00
    9   18    5     -0.88      0.00
   10   18    5      1.18      0.00
   -1   19    5     -4.58      0.00
    0   19    5     -1.15      0.00
    1   19    5     -0.24      0.00
    2   19    5     -0.26      0.00
    3   19    5      1.43      0.00
    4   19    5     -1.39      0.00
    5   19    5      0.10      0.00
    6   19    5      1.26      0.00
    7   19    5     -0.52      0.00
    8   19    5     -1.41      0.00
    9   19    5     -2.00      0.00
    1   20    5      0.90      0.00
    2   20    5      0.50      0.00
    3   20    5      1.20      0.00
    4   20    5     -1.73      0.00
    5   20    5     -0.44      0.00
    6   20    5      1.88      0.00
   -5  -17    6      1.15      0.00
   -4  -17    6     -2.78      0.00
   -3  -17    6     -2.27      0.00
   -2  -17    6     -0.88      0.00
   -1  -17    6      0.31      0.00
    0  -17    6     -0.14      0.00
   -7  -16    6     -1.67      0.00
   -6  -16    6     -3.24      0.00
   -5  -16    6      0.66      0.00
   -4  -16    6      0.92      0.00
   -3  -16    6     -0.44      0.00
   -2  -16    6     -0.68      0.00
   -1  -16    6     -1.08      0.00
    0  -16    6     -0.11      0.00
    1  -16    6     -0.22      0.00
    2  -16    6      1.13      0.00
    3  -16    6     -1.32      0.00
   -9  -15    6      1.41      0.00
   -8  -15    6     -0.23      0.00
   -7  -15    6      0.00      0.00
   -6  -15    6      0.64      0.00
   -5  -15    6     -1.82      0.00
   -4  -15    6     -0.53      0.00
   -3  -15    6      1.16      0.00
   -2  -15    6     -0.23      0.00
   -1  -15    6     -1.18      0.00
    0  -15    6     -2.20      0.00
    1  -15    6      1.25      0.00
    2  -15    6      2.49      0.00
    3  -15    6      0.26      0.00
    4  -15    6     -3.65      0.00
  -10  -14    6      3.22      0.00
   -9  -14    6     -0.33      0.00
   -8  -14    6      2.30      0.00
   -7  -14    6     -2.90      0.00
   -6  -14    6     -0.29      0.00
   -5  -14    6     -0.17      0.00
   -4  -14    6     -0.92      0.00
   -3  -14    6     -2.36      0.00
   -2  -14    6      3.84      0.00
   -1  -14    6      3.83      0.00
    0  -14    6      2.53      0.00
    1  -14    6     -2.54      0.00
    2  -14    6     -1.04      0.00
    3  -14    6     -1.40      0.00
    4  -14    6     -0.87      0.00
    5  -14    6      1.26      0.00
    6  -14    6     -0.55      0.00
  -10  -13    6     -2.47      0.00
   -9  -13    6      2.24      0.00
   -8  -13    6      0.30      0.00
   -7  -13    6      0.97      0.00
   -6  -13    6     -3.77      0.00
   -5  -13    6     -0.75      0.00
   -4  -13    6     -0.49      0.00
   -3  -13    6      3.07      0.00
   -2  -13    6      3.85      0.00
   -1  -13    6      5.44      0.00
    0  -13    6      1.24      0.00
    1  -13    6     -1.13      0.00
    2  -13    6      0.35      0.00
    3  -13    6      1.83      0.00
    4  -13    6      0.84      0.00
    5  -13    6      0.36      0.00
    6  -13    6      0.65      0.00
    7  -13    6     -2.61      0.00
  -11  -12    6      2.41      0.00
  -10  -12    6     -1.24      0.00
   -9  -12    6     -0.99      0.00
   -8  -12    6      0.09      0.00
   -7  -12    6      0.01      0.00
   -6  -12    6      1.63      0.00
   -5  -12    6      1.00      0.00
   -4  -12    6      1.04      0.00
   -3  -12    6     -2.88      0.00
   -2  -12    6      0.04      0.00
   -1  -12    6      0.07      0.00
    0  -12    6     -3.43      0.00
    1  -12    6      0.85      0.00
    2  -12    6      0.94      0.00
    3  -12    6      6.70      0.00
    4  -12    6      0.04      0.00
    5  -12    6     -2.15      0.00
    6  -12    6     -2.52      0.00
    7  -12    6     -1.31      0.00
    8  -12    6      0.88      0.00
  -12  -11    6      1.79      0.00
  -11  -11    6      1.88      0.00
  -10  -11    6      4.33      0.00
   -9  -11    6      0.76      0.00
   -8  -11    6      0.88      0.00
   -7  -11    6     -0.35      0.00
   -6  -11    6     -1.60      0.00
   -5  -11    6     -0.12      0.00
   -4  -11    6      2.34      0.00
   -3  -11    6      1.96      0.00
   -2  -11    6     -4.34      0.00
   -1  -11    6     -0.22      0.00
    0  -11    6     -4.27      0.00
    1  -11    6     -2.93      0.00
    2  -11    6      3.15      0.00
    3  -11    6     -0.08      0.00
    4  -11    6      5.04      0.00
    5  -11    6     -1.39      0.00
    6  -11    6     -1.76      0.00
    7  -11    6     -2.32      0.00
    8  -11    6      1.68      0.00
    9  -11    6      2.55      0.00
  -12  -10    6      3.50      0.00
  -11  -10    6      4.16      0.00
  -10  -10    6      1.75      0.00
   -9  -10    6      1.34      0.00
   -8  -10    6     -0.93      0.00
   -7  -10    6      0.03      0.00
   -6  -10    6     -0.77      0.00
   -5  -10    6      0.29      0.00
   -4  -10    6     -1.93      0.00
   -3  -10    6      0.59      0.00
   -2  -10    6      2.28      0.00
   -1  -10    6     -2.02      0.00
    0  -10    6      2.19      0.00
    1  -10    6     -6.50      0.00
    2  -10    6      4.24      0.00
    3  -10    6     -0.61      0.00
    4  -10    6     -0.24      0.00
    5  -10    6      4.39      0.00
    6  -10    6      0.95      0.00
    7  -10    6     -0.77      0.00
    8  -10    6     -4.75      0.00
    9  -10    6      1.63      0.00
  -12   -9    6     -1.41      0.00
  -11   -9    6     -0.25      0.00
  -10   -9    6     -1.23      0.00
   -9   -9    6      0.27      0.00
   -8   -9    6     -1.25      0.00
   -7   -9    6     -2.33      0.00
   -6   -9    6      0.51      0.00
   -5   -9    6      3.09      0.00
   -4   -9    6      4.35      0.00
   -3   -9    6     -6.00      0.00
   -2   -9    6     -1.75      0.00
   -1   -9    6      1.06      0.00
    0   -9    6      3.86      0.00
    1   -9    6      3.08      0.00
    2   -9    6     -3.81      0.00
    3   -9    6      5.43      0.00
    4   -9    6     -6.03      0.00
    5   -9    6      0.42      0.00
    6   -9    6      1.27      0.00
    7   -9    6      0.89      0.00
    8   -9    6     -0.08      0.00
    9   -9    6     -2.64      0.00
   10   -9    6      1.52      0.00
  -13   -8    6     -2.51      0.00
  -12   -8    6     -3.38      0.00
  -11   -8    6      0.00      0.00
  -10   -8    6      0.64      0.00
   -9   -8    6     -0.68      0.00
   -8   -8    6      1.05      0.00
   -7   -8    6     -2.83      0.00
   -6   -8    6     -0.18      0.00
   -5   -8    6      0.18      0.00
   -4   -8    6      4.13      0.00
   -3   -8    6      3.80      0.00
   -2   -8    6     -4.36      0.00
   -1   -8    6     -1.27      0.00
    0   -8    6     -5.16      0.00
    1   -8    6      5.63      0.00
    2   -8    6      0.91      0.00
    3   -8    6      1.81      0.00
    4   -8    6     -1.09      0.00
    5   -8    6     -4.55      0.00
    6   -8    6     -0.50      0.00
    7   -8    6     -4.56      0.00
    8   -8    6      2.69      0.00
    9   -8    6      2.34      0.00
   10   -8    6      2.44      0.00
   11   -8    6      1.94      0.00
  -13   -7    6      1.11      0.00
  -12   -7    6     -2.01      0.00
  -11   -7    6     -1.62      0.00
  -10   -7    6      5.20      0.00
   -9   -7    6      0.21      0.00
   -8   -7    6      1.90      0.00
   -7   -7    6     -2.85      0.00
   -6   -7    6     -2.12      0.00
   -5   -7    6      4.38      0.00
   -4   -7    6     -2.16      0.00
   -3   -7    6      0.64      0.00
   -2   -7    6      0.46      0.00
   -1   -7    6      4.57      0.00
    0   -7    6      0.42      0.00
    1   -7    6     -2.49      0.00
    2   -7    6      5.92      0.00
    3   -7    6      1.73      0.00
    4   -7    6      3.49      0.00
    5   -7    6     -7.94      0.00
    6   -7    6     -0.41      0.00
    7   -7    6     -0.79      0.00
    8   -7    6     -4.29      0.00
    9   -7    6      1.92      0.00
   10   -7    6     -1.86      0.00
   11   -7    6     -0.77      0.00
  -13   -6    6     -1.22      0.00
  -12   -6    6      0.39      0.00
  -11   -6    6      0.60      0.00
  -10   -6    6     -2.45      0.00
   -9   -6    6      0.95      0.00
   -8   -6    6     -1.14      0.00
   -7   -6    6      4.58      0.00
   -6   -6    6     -8.30      0.00
   -5   -6    6      3.90      0.00
   -4   -6    6      1.60      0.00
   -3   -6    6      0.98      0.00
   -2   -6    6     -2.89      0.00
   -1   -6    6     -7.77      0.00
    0   -6    6      6.00      0.00
    1   -6    6     -1.81      0.00
    2   -6    6      7.14      0.00
    3   -6    6      4.01      0.00
    4   -6    6      6.66      0.00
    5   -6    6      1.50      0.00
    6   -6    6     -2.58      0.00
    7   -6    6      5.49      0.00
    8   -6    6     -0.84      0.00
    9   -6    6     -1.50      0.00
   10   -6    6     -3.52      0.00
   11   -6    6     -3.47      0.00
   12   -6    6      2.25      0.00
  -13   -5    6     -0.47      0.00
  -12   -5    6     -1.59      0.00
  -11   -5    6     -0.82      0.00
  -10   -5    6      4.29      0.00
   -9   -5    6      0.28      0.00
   -8   -5    6     -2.69      0.00
   -7   -5    6      0.86      0.00
   -6   -5    6      0.09      0.00
   -5   -5    6     -7.32      0.00
   -4   -5    6      5.69      0.00
   -3   -5    6     -9.28      0.00
   -2   -5    6     13.02      0.00
   -1   -5    6     -7.62      0.00
    0   -5    6     -7.76      0.00
    1   -5    6      1.67      0.00
    2   -5    6     -1.12      0.00
    3   -5    6      9.67      0.00
    4   -5    6     -5.33      0.00
    5   -5    6      6.65      0.00
    6   -5    6      0.72      0.00
    7   -5    6      5.28      0.00
    8   -5    6     -0.25      0.00
    9   -5    6     -4.54      0.00
   10   -5    6      2.77      0.00
   11   -5    6     -1.12      0.00
   12   -5    6      2.36      0.00
  -13   -4    6      0.59      0.00
  -12   -4    6     -1.47      0.00
  -11   -4    6     -0.08      0.00
  -10   -4    6     -1.07      0.00
   -9   -4    6      5.08      0.00
   -8   -4    6      2.08      0.00
   -7   -4    6     -2.67      0.00
   -6   -4    6      3.55      0.00
   -5   -4    6     -5.95      0.00
   -4   -4    6      4.75      0.00
   -3   -4    6     -5.51      0.00
   -2   -4    6    -11.71      0.00
   -1   -4    6     23.56      0.00
    0   -4    6     -8.87      0.00
    1   -4    6      5.77      0.00
    2   -4    6    -10.88      0.00
    3   -4    6     -4.05      0.00
    4   -4    6      1.07      0.00
    5   -4    6     -9.10      0.00
    6   -4    6      4.28      0.00
    7   -4    6      1.72      0.00
    8   -4    6      7.79      0.00
    9   -4    6     -3.25      0.00
   10   -4    6     -1.84      0.00
   11   -4    6      3.40      0.00
   12   -4    6     -2.55      0.00
   13   -4    6     -0.02      0.00
  -13   -3    6      0.93      0.00
  -12   -3    6     -3.26      0.00
  -11   -3    6     -0.06      0.00
  -10   -3    6      1.47      0.00
   -9   -3    6     -4.97      0.00
   -8   -3    6      1.02      0.00
   -7   -3    6      1.29      0.00
   -6   -3    6      0.18      0.00
   -5   -3    6      1.08      0.00
   -4   -3    6     -8.81      0.00
   -3   -3    6     15.11      0.00
   -2   -3    6    -19.84      0.00
   -1   -3    6     -7.29      0.00
    0   -3    6      6.32      0.00
    1   -3    6     -1.70      0.00
    2   -3    6     18.26      0.00
    3   -3    6    -12.57      0.00
    4   -3    6      4.40      0.00
    5   -3    6     -2.72      0.00
    6   -3    6      0.75      0.00
    7   -3    6      3.39      0.00
    8   -3    6      3.22      0.00
    9   -3    6      5.90      0.00
   10   -3    6     -2.37      0.00
   11   -3    6     -0.99      0.00
   12   -3    6      2.71      0.00
   13   -3    6     -0.37      0.00
  -13   -2    6     -0.73      0.00
  -12   -2    6     -0.28      0.00
  -11   -2    6     -3.35      0.00
  -10   -2    6      2.16      0.00
   -9   -2    6      0.84      0.00
   -8   -2    6     -7.45      0.00
   -7   -2    6     -0.80      0.00
   -6   -2    6     -0.13      0.00
   -5   -2    6      0.06      0.00
   -4   -2    6     -3.13      0.00
   -3   -2    6     -3.16      0.00
   -2   -2    6     18.58      0.00
   -1   -2    6    -17.99      0.00
    0   -2    6      1.74      0.00
    1   -2    6    -10.54      0.00
    2   -2    6     12.46      0.00
    3   -2    6      8.99      0.00
    4   -2    6     -8.16      0.00
    5   -2    6      3.42      0.00
    6   -2    6     -7.98      0.00
    7   -2    6      6.66      0.00
    8   -2    6     -0.95      0.00
    9   -2    6      2.04      0.00
   10   -2    6      1.56      0.00
   11   -2    6     -0.42      0.00
   12   -2    6      0.55      0.00
   13   -2    6      0.86      0.00
  -13   -1    6      0.64      0.00
  -12   -1    6      4.08      0.00
  -11   -1    6      3.41      0.00
  -10   -1    6     -3.04      0.00
   -9   -1    6      3.15      0.00
   -8   -1    6     -1.93      0.00
   -7   -1    6      0.86      0.00
   -6   -1    6     -0.52      0.00
   -5   -1    6     -0.35      0.00
   -4   -1    6      1.32      0.00
   -3   -1    6      0.16      0.00
   -2   -1    6      0.96      0.00
   -1   -1    6      7.56      0.00
    0   -1    6     -9.24      0.00
    1   -1    6      0.43      0.00
    2   -1    6    -15.83      0.00
    3   -1    6      5.80      0.00
    4   -1    6     -8.81      0.00
    5   -1    6      2.34      0.00
    6   -1    6     -3.13      0.00
    7   -1    6     -4.34      0.00
    8   -1    6      8.30      0.00
    9   -1    6     -1.22      0.00
   10   -1    6      3.04      0.00
   11   -1    6      0.24      0.00
   12   -1    6      1.26      0.00
   13   -1    6      0.86      0.00
   14   -1    6     -1.26      0.00
  -13    0    6     -1.46      0.00
  -12    0    6     -0.84      0.00
  -11    0    6      4.37      0.00
  -10    0    6      1.69      0.00
   -9    0    6     -3.65      0.00
   -8    0    6      1.26      0.00
   -7    0    6     -5.77      0.00
   -6    0    6     12.99      0.00
   -5    0    6     -9.46      0.00
   -4    0    6      0.58      0.00
   -3    0    6     -0.64      0.00
   -2    0    6      3.23      0.00
   -1    0    6     -1.20      0.00
    0    0    6     -3.76      0.00
    1    0    6      7.27      0.00
    2    0    6      4.24      0.00
    3    0    6     -1.12      0.00
    4    0    6     -1.56      0.00
    5    0    6     -7.36      0.00
    6    0    6      7.22      0.00
    7    0    6     -5.48      0.00
    8    0    6     -0.85      0.00
    9    0    6      3.70      0.00
   10    0    6      0.01      0.00
   11    0    6     -0.02      0.00
   12    0    6     -3.57      0.00
   13    0    6     -0.99      0.00
   14    0    6      1.50      0.00
  -13    1    6      0.45      0.00
  -12    1    6     -1.05      0.00
  -11    1    6     -1.15      0.00
  -10    1    6      1.59      0.00
   -9    1    6     -2.71      0.00
   -8    1    6     -0.78      0.00
   -7    1    6      0.53      0.00
   -6    1    6     -2.55      0.00
   -5    1    6     10.99      0.00
   -4    1    6    -18.09      0.00
   -3    1    6      9.82      0.00
   -2    1    6     -6.10      0.00
   -1    1    6     10.43      0.00
    0    1    6      1.84      0.00
    1    1    6      1.53      0.00
    2    1    6     15.36      0.00
    3    1    6     -3.10      0.00
    4    1    6      9.90      0.00
    5    1    6     -0.10      0.00
    6    1    6      1.47      0.00
    7    1    6     -0.17      0.00
    8    1    6      0.06      0.00
    9    1    6      0.37      0.00
   10    1    6     -0.77      0.00
   11    1    6      0.26      0.00
   12    1    6     -2.17      0.00
   13    1    6     -1.11      0.00
   14    1    6     -0.58      0.00
  -13    2    6      3.80      0.00
  -12    2    6      2.83      0.00
  -11    2    6      0.82      0.00
  -10    2    6     -1.02      0.00
   -9    2    6     -2.66      0.00
   -8    2    6     -1.96      0.00
   -7    2    6      5.52      0.00
   -6    2    6     -5.30      0.00
   -5    2    6      1.07      0.00
   -4    2    6      1.04      0.00
   -3    2    6     -3.98      0.00
   -2    2    6     11.24      0.00
   -1    2    6    -13.49      0.00
    0    2    6     20.78      0.00
    1    2    6      7.41      0.00
    2    2    6     10.31      0.00
    3    2    6      4.42      0.00
    4    2    6    -11.71      0.00
    5    2    6     19.48      0.00
    6    2    6      4.54      0.00
    7    2    6      8.93      0.00
    8    2    6      2.86      0.00
    9    2    6      6.29      0.00
   10    2    6     -3.17      0.00
   11    2    6     -0.79      0.00
   12    2    6      2.47      0.00
   13    2    6     -0.44      0.00
   14    2    6      0.53      0.00
  -13    3    6      0.24      0.00
  -12    3    6     -3.57      0.00
  -11    3    6     -0.63      0.00
  -10    3    6      0.65      0.00
   -9    3    6     -1.44      0.00
   -8    3    6     -4.33      0.00
   -7    3    6     -1.26      0.00
   -6    3    6      4.74      0.00
   -5    3    6     -6.78      0.00
   -4    3    6      7.53      0.00
   -3    3    6     -9.02      0.00
   -2    3    6     10.82      0.00
   -1    3    6     -1.00      0.00
    0    3    6      3.67      0.00
    1    3    6     23.34      0.00
    2    3    6      7.18      0.00
    3    3    6     13.64      0.00
    4    3    6     -6.62      0.00
    5    3    6    -12.37      0.00
    6    3    6      8.01      0.00
    7    3    6     -0.51      0.00
    8    3    6      9.98      0.00
    9    3    6      1.68      0.00
   10    3    6      1.90      0.00
   11    3    6     -4.78      0.00
   12    3    6     -0.61      0.00
   13    3    6     -2.34      0.00
   14    3    6     -1.99      0.00
  -12    4    6      0.83      0.00
  -11    4    6     -1.38      0.00
  -10    4    6      1.74      0.00
   -9    4    6      1.38      0.00
   -8    4    6      0.69      0.00
   -7    4    6      2.26      0.00
   -6    4    6      1.68      0.00
   -5    4    6     -0.68      0.00
   -4    4    6     -4.89      0.00
   -3    4    6      6.17      0.00
   -2    4    6    -13.65      0.00
   -1    4    6     17.67      0.00
    0    4    6    -12.48      0.00
    1    4    6     14.03      0.00
    2    4    6     -5.81      0.00
    3    4    6     -9.04      0.00
    4    4    6      3.00      0.00
    5    4    6    -10.20      0.00
    6    4    6     -5.97      0.00
    7    4    6    -11.38      0.00
    8    4    6     -4.81      0.00
    9    4    6      5.26      0.00
   10    4    6     -3.29      0.00
   11    4    6      0.38      0.00
   12    4    6      0.42      0.00
   13    4    6      1.86      0.00
   14    4    6     -1.39      0.00
   15    4    6      1.05      0.00
  -12    5    6      0.48      0.00
  -11    5    6      2.66      0.00
  -10    5    6      1.18      0.00
   -9    5    6      0.90      0.00
   -8    5    6      1.40      0.00
   -7    5    6      0.69      0.00
   -6    5    6      4.18      0.00
   -5    5    6     -2.02      0.00
   -4    5    6     -2.50      0.00
   -3    5    6      1.08      0.00
   -2    5    6     -1.04      0.00
   -1    5    6     -8.82      0.00
    0    5    6      8.44      0.00
    1    5    6    -23.07      0.00
    2    5    6      8.09      0.00
    3    5    6    -16.48      0.00
    4    5    6     -3.72      0.00
    5    5    6      6.63      0.00
    6    5    6      1.00      0.00
    7    5    6      2.52      0.00
    8    5    6    -11.88      0.00
    9    5    6      2.79      0.00
   10    5    6      1.87      0.00
   11    5    6      0.19      0.00
   12    5    6      2.94      0.00
   13    5    6      1.93      0.00
   14    5    6      0.98      0.00
   15    5    6      0.32      0.00
  -12    6    6      0.94      0.00
  -11    6    6     -6.32      0.00
  -10    6    6     -0.18      0.00
   -9    6    6      0.25      0.00
   -8    6    6     -1.58      0.00
   -7    6    6     -0.13      0.00
   -6    6    6     -5.26      0.00
   -5    6    6      5.88      0.00
   -4    6    6     -2.78      0.00
   -3    6    6     -1.06      0.00
   -2    6    6      0.38      0.00
   -1    6    6     -5.74      0.00
    0    6    6      9.48      0.00
    1    6    6      1.98      0.00
    2    6    6    -12.76      0.00
    3    6    6     10.08      0.00
    4    6    6     -3.04      0.00
    5    6    6      4.37      0.00
    6    6    6      5.46      0.00
    7    6    6      6.72      0.00
    8    6    6      7.64      0.00
    9    6    6     -4.87      0.00
   10    6    6      3.08      0.00
   11    6    6     -1.94      0.00
   12    6    6      1.01      0.00
   13    6    6     -1.39      0.00
   14    6    6     -0.72      0.00
   15    6    6     -1.00      0.00
  -11    7    6      0.86      0.00
  -10    7    6     -3.62      0.00
   -9    7    6      3.07      0.00
   -8    7    6      1.91      0.00
   -7    7    6     -0.27      0.00
   -6    7    6     -1.28      0.00
   -5    7    6     -6.91      0.00
   -4    7    6      5.80      0.00
   -3    7    6     -3.48      0.00
   -2    7    6      5.52      0.00
   -1    7    6      0.45      0.00
    0    7    6     -1.71      0.00
    1    7    6     16.27      0.00
    2    7    6     -8.37      0.00
    3    7    6     -1.31      0.00
    4    7    6      0.18      0.00
    5    7    6      0.32      0.00
    6    7    6      4.48      0.00
    7    7    6      0.51      0.00
    8    7    6     -0.79      0.00
    9    7    6      2.08      0.00
   10    7    6     -3.24      0.00
   11    7    6      0.19      0.00
   12    7    6     -2.06      0.00
   13    7    6      0.38      0.00
   14    7    6     -1.16      0.00
   15    7    6      1.53      0.00
  -11    8    6     -0.28      0.00
  -10    8    6      0.97      0.00
   -9    8    6      0.68      0.00
   -8    8    6      2.97      0.00
   -7    8    6     -2.00      0.00
   -6    8    6      0.28      0.00
   -5    8    6     -2.31      0.00
   -4    8    6     -1.55      0.00
   -3    8    6      1.07      0.00
   -2    8    6     -5.48      0.00
   -1    8    6      6.80      0.00
    0    8    6     -4.71      0.00
    1    8    6     -0.83      0.00
    2    8    6      7.74      0.00
    3    8    6     -3.43      0.00
    4    8    6     11.53      0.00
    5    8    6     -9.86      0.00
    6    8    6      2.25      0.00
    7    8    6      0.55      0.00
    8    8    6     -0.82      0.00
    9    8    6     -1.08      0.00
   10    8    6      2.47      0.00
   11    8    6     -0.36      0.00
   12    8    6      0.72      0.00
   13    8    6      0.07      0.00
   14    8    6      1.92      0.00
   15    8    6      0.66      0.00
  -11    9    6     -2.86      0.00
  -10    9    6     -1.35      0.00
   -9    9    6      0.57      0.00
   -8    9    6     -0.86      0.00
   -7    9    6      1.37      0.00
   -6    9    6     -2.47      0.00
   -5    9    6      3.26      0.00
   -4    9    6     -1.78      0.00
   -3    9    6      1.93      0.00
   -2    9    6     -5.61      0.00
   -1    9    6     -1.01      0.00
    0    9    6      4.50      0.00
    1    9    6     -1.65      0.00
    2    9    6      3.99      0.00
    3    9    6     -1.94      0.00
    4    9    6      4.12      0.00
    5    9    6      4.79      0.00
    6    9    6    -12.38      0.00
    7    9    6      4.87      0.00
    8    9    6     -1.79      0.00
    9    9    6      1.53      0.00
   10    9    6     -0.33      0.00
   11    9    6      0.58      0.00
   12    9    6      0.15      0.00
   13    9    6      0.01      0.00
   14    9    6      1.27      0.00
  -10   10    6     -0.38      0.00
   -9   10    6      2.14      0.00
   -8   10    6     -0.07      0.00
   -7   10    6      0.37      0.00
   -6   10    6      1.49      0.00
   -5   10    6     -1.13      0.00
   -4   10    6      2.67      0.00
   -3   10    6     -3.79      0.00
   -2   10    6      5.65      0.00
   -1   10    6     -4.31      0.00
    0   10    6      2.30      0.00
    1   10    6     -2.57      0.00
    2   10    6      2.12      0.00
    3   10    6      4.12      0.00
    4   10    6     -5.83      0.00
    5   10    6      6.93      0.00
    6   10    6     -4.40      0.00
    7   10    6     -3.91      0.00
    8   10    6      1.86      0.00
    9   10    6     -2.30      0.00
   10   10    6      3.32      0.00
   11   10    6     -0.02      0.00
   12   10    6      0.21      0.00
   13   10    6     -0.66      0.00
   14   10    6     -2.73      0.00
   -9   11    6     -0.58      0.00
   -8   11    6      0.76      0.00
   -7   11    6     -2.02      0.00
   -6   11    6      0.23      0.00
   -5   11    6     -0.50      0.00
   -4   11    6      2.56      0.00
   -3   11    6      1.71      0.00
   -2   11    6     -5.54      0.00
   -1   11    6      5.13      0.00
    0   11    6      0.93      0.00
    1   11    6      3.35      0.00
    2   11    6     -4.36      0.00
    3   11    6      2.19      0.00
    4   11    6     -0.03      0.00
    5   11    6     -3.04      0.00
    6   11    6      6.46      0.00
    7   11    6     -2.29      0.00
    8   11    6      3.86      0.00
    9   11    6     -1.40      0.00
   10   11    6     -2.99      0.00
   11   11    6     -0.06      0.00
   12   11    6     -1.48      0.00
   13   11    6      1.37      0.00
   14   11    6     -2.31      0.00
   -9   12    6      0.01      0.00
   -8   12    6      3.42      0.00
   -7   12    6     -0.09      0.00
   -6   12    6      1.49      0.00
   -5   12    6     -2.07      0.00
   -4   12    6     -1.29      0.00
   -3   12    6      6.73      0.00
   -2   12    6     -0.97      0.00
   -1   12    6     -4.52      0.00
    0   12    6      0.00      0.00
    1   12    6      0.52      0.00
    2   12    6     -1.07      0.00
    3   12    6     -5.17      0.00
    4   12    6     -1.36      0.00
    5   12    6     -0.41      0.00
    6   12    6      2.29      0.00
    7   12    6      2.27      0.00
    8   12    6     -4.68      0.00
    9   12    6     -2.19      0.00
   10   12    6     -3.85      0.00
   11   12    6     -1.43      0.00
   12   12    6     -0.02      0.00
   13   12    6     -0.61      0.00
   14   12    6      1.20      0.00
   -8   13    6      0.30      0.00
   -7   13    6      1.38      0.00
   -6   13    6     -0.63      0.00
   -5   13    6      3.08      0.00
   -4   13    6     -5.62      0.00
   -3   13    6     -0.16      0.00
   -2   13    6      4.97      0.00
   -1   13    6     -1.37      0.00
    0   13    6     -0.18      0.00
    1   13    6     -3.05      0.00
    2   13    6      0.50      0.00
    3   13    6     -0.08      0.00
    4   13    6     -0.38      0.00
    5   13    6     -2.29      0.00
    6   13    6     -1.87      0.00
    7   13    6     -1.11      0.00
    8   13    6      0.11      0.00
    9   13    6     -0.67      0.00
   10   13    6      1.11      0.00
   11   13    6     -0.41      0.00
   12   13    6      1.59      0.00
   13   13    6      0.34      0.00
   -7   14    6     -1.80      0.00
   -6   14    6     -3.18      0.00
   -5   14    6      2.88      0.00
   -4   14    6      4.86      0.00
   -3   14    6     -1.78      0.00
   -2   14    6      2.83      0.00
   -1   14    6      1.54      0.00
    0   14    6      3.56      0.00
    1   14    6      4.21      0.00
    2   14    6     -2.41      0.00
    3   14    6     -1.40      0.00
    4   14    6     -0.98      0.00
    5   14    6      2.60      0.00
    6   14    6     -0.11      0.00
    7   14    6      0.02      0.00
    8   14    6     -1.18      0.00
    9   14    6      1.09      0.00
   10   14    6     -2.05      0.00
   11   14    6     -1.75      0.00
   12   14    6     -1.04      0.00
   13   14    6      2.33      0.00
   -7   15    6      1.46      0.00
   -6   15    6     -2.03      0.00
   -5   15    6     -3.08      0.00
   -4   15    6      2.13      0.00
   -3   15    6      1.60      0.00
   -2   15    6      1.63      0.00
   -1   15    6      0.06      0.00
    0   15    6     -3.26      0.00
    1   15    6      3.39      0.00
    2   15    6      2.24      0.00
    3   15    6     -0.61      0.00
    4   15    6     -1.09      0.00
    5   15    6     -1.74      0.00
    6   15    6      1.29      0.00
    7   15    6     -1.13      0.00
    8   15    6     -1.80      0.00
    9   15    6     -4.45      0.00
   10   15    6     -0.11      0.00
   11   15    6     -0.78      0.00
   12   15    6     -0.01      0.00
   -6   16    6      2.60      0.00
   -5   16    6     -3.29      0.00
   -4   16    6     -0.95      0.00
   -3   16    6      0.07      0.00
   -2   16    6     -0.46      0.00
   -1   16    6      0.47      0.00
    0   16    6     -3.04      0.00
    1   16    6     -2.46      0.00
    2   16    6      2.49      0.00
    3   16    6     -0.45      0.00
    4   16    6     -0.44      0.00
    5   16    6     -0.91      0.00
    6   16    6     -1.57      0.00
    7   16    6      2.96      0.00
    8   16    6      1.42      0.00
    9   16    6     -0.16      0.00
   10   16    6     -1.91      0.00
   11   16    6      3.86      0.00
   12   16    6      1.86      0.00
   -4   17    6     -3.66      0.00
   -3   17    6      0.80      0.00
   -2   17    6     -1.25      0.00
   -1   17    6     -2.06      0.00
    0   17    6     -1.36      0.00
    1   17    6     -1.16      0.00
    2   17    6      0.44      0.00
    3   17    6      0.18      0.00
    4   17    6      0.22      0.00
    5   17    6      4.07      0.00
    6   17    6      2.49      0.00
    7   17    6     -0.53      0.00
    8   17    6      1.12      0.00
    9   17    6     -1.04      0.00
   10   17    6     -1.24      0.00
   11   17    6     -0.60      0.00
   -3   18    6     -3.18      0.00
   -2   18    6      1.01      0.00
   -1   18    6      0.31      0.00
    0   18    6      0.43      0.00
    1   18    6      2.87      0.00
    2   18    6      1.31      0.00
    3   18    6      1.50      0.00
    4   18    6     -0.19      0.00
    5   18    6     -0.93      0.00
    6   18    6     -0.50      0.00
    7   18    6     -1.73      0.00
    8   18    6      0.97      0.00
    9   18    6      2.16      0.00
   10   18    6     -1.33      0.00
   -1   19    6      3.32      0.00
    0   19    6      2.42      0.00
    1   19    6      2.63      0.00
    2   19    6      2.24      0.00
    3   19    6     -0.45      0.00
    4   19    6      0.87      0.00
    5   19    6     -1.09      0.00
    6   19    6     -1.04      0.00
    7   19    6      1.69      0.00
    8   19    6      2.48      0.00
    9   19    6      1.40      0.00
    1   20    6      0.73      0.00
    2   20    6      1.59      0.00
    3   20    6     -1.30      0.00
    4   20    6      0.62      0.00
    5   20    6      1.12      0.00
    6   20    6     -1.95      0.00
    7   20    6     -0.51      0.00
   -6  -16    7      3.33      0.00
   -5  -16    7      1.32      0.00
   -4  -16    7     -0.35      0.00
   -3  -16    7      0.17      0.00
   -2  -16    7      0.08      0.00
   -1  -16    7      0.87      0.00
    0  -16    7     -1.95      0.00
    1  -16    7      0.21      0.00
    2  -16    7     -0.14      0.00
   -8  -15    7     -1.62      0.00
   -7  -15    7      0.94      0.00
   -6  -15    7     -0.25      0.00
   -5  -15    7     -0.30      0.00
   -4  -15    7      0.24      0.00
   -3  -15    7      1.31      0.00
   -2  -15    7     -0.93      0.00
   -1  -15    7     -2.16      0.00
    0  -15    7     -0.12      0.00
    1  -15    7     -1.44      0.00
    2  -15    7     -1.21      0.00
    3  -15    7     -0.26      0.00
    4  -15    7      2.47      0.00
   -9  -14    7     -0.61      0.00
   -8  -14    7     -2.54      0.00
   -7  -14    7      2.91      0.00
   -6  -14    7      0.59      0.00
   -5  -14    7     -1.11      0.00
   -4  -14    7     -2.66      0.00
   -3  -14    7      1.58      0.00
   -2  -14    7     -0.19      0.00
   -1  -14    7     -3.58      0.00
    0  -14    7     -2.11      0.00
    1  -14    7      1.13      0.00
    2  -14    7      0.28      0.00
    3  -14    7      0.93      0.00
    4  -14    7      1.45      0.00
    5  -14    7      1.83      0.00
  -10  -13    7      2.52      0.00
   -9  -13    7     -1.87      0.00
   -8  -13    7      1.36      0.00
   -7  -13    7     -1.56      0.00
   -6  -13    7      3.54      0.00
   -5  -13    7      0.69      0.00
   -4  -13    7      3.79      0.00
   -3  -13    7     -1.24      0.00
   -2  -13    7     -1.51      0.00
   -1  -13    7     -4.37      0.00
    0  -13    7     -2.63      0.00
    1  -13    7      1.08      0.00
    2  -13    7      0.02      0.00
    3  -13    7     -0.13      0.00
    4  -13    7      1.69      0.00
    5  -13    7      0.97      0.00
    6  -13    7      1.04      0.00
  -11  -12    7     -2.63      0.00
  -10  -12    7      0.57      0.00
   -9  -12    7      1.89      0.00
   -8  -12    7     -1.40      0.00
   -7  -12    7     -0.16      0.00
   -6  -12    7      0.39      0.00
   -5  -12    7     -0.64      0.00
   -4  -12    7     -2.82      0.00
   -3  -12    7      3.68      0.00
   -2  -12    7     -1.17      0.00
   -1  -12    7     -1.39      0.00
    0  -12    7      0.50      0.00
    1  -12    7     -0.30      0.00
    2  -12    7      1.02      0.00
    3  -12    7     -6.50      0.00
    4  -12    7     -2.48      0.00
    5  -12    7     -0.93      0.00
    6  -12    7     -0.25      0.00
    7  -12    7     -0.57      0.00
  -11  -11    7     -1.18      0.00
  -10  -11    7     -2.93      0.00
   -9  -11    7     -0.41      0.00
   -8  -11    7     -1.70      0.00
   -7  -11    7     -1.04      0.00
   -6  -11    7      0.43      0.00
   -5  -11    7      0.85      0.00
   -4  -11    7     -4.40      0.00
   -3  -11    7     -2.95      0.00
   -2  -11    7      3.35      0.00
   -1  -11    7      1.53      0.00
    0  -11    7      4.18      0.00
    1  -11    7      3.34      0.00
    2  -11    7     -3.74      0.00
    3  -11    7      0.02      0.00
    4  -11    7     -6.45      0.00
    5  -11    7     -0.05      0.00
    6  -11    7      0.97      0.00
    7  -11    7      3.24      0.00
    8  -11    7     -1.46      0.00
  -12  -10    7     -3.06      0.00
  -11  -10    7     -2.06      0.00
  -10  -10    7     -1.42      0.00
   -9  -10    7     -2.87      0.00
   -8  -10    7      0.10      0.00
   -7  -10    7      2.12      0.00
   -6  -10    7      2.01      0.00
   -5  -10    7      0.78      0.00
   -4  -10    7      1.23      0.00
   -3  -10    7     -0.02      0.00
   -2  -10    7     -0.05      0.00
   -1  -10    7     -2.01      0.00
    0  -10    7     -0.58      0.00
    1  -10    7      5.00      0.00
    2  -10    7     -0.41      0.00
    3  -10    7      0.25      0.00
    4  -10    7      2.36      0.00
    5  -10    7     -3.63      0.00
    6  -10    7     -1.56      0.00
    7  -10    7      1.29      0.00
    8  -10    7      5.15      0.00
    9  -10    7     -1.67      0.00
  -12   -9    7      2.72      0.00
  -11   -9    7     -0.56      0.00
  -10   -9    7      0.12      0.00
   -9   -9    7      0.85      0.00
   -8   -9    7      2.00      0.00
   -7   -9    7      1.81      0.00
   -6   -9    7      1.27      0.00
   -5   -9    7     -2.09      0.00
   -4   -9    7     -3.51      0.00
   -3   -9    7      0.43      0.00
   -2   -9    7      3.78      0.00
   -1   -9    7     -0.08      0.00
    0   -9    7     -4.58      0.00
    1   -9    7     -1.70      0.00
    2   -9    7      0.44      0.00
    3   -9    7     -3.82      0.00
    4   -9    7      2.43      0.00
    5   -9    7     -0.98      0.00
    6   -9    7     -0.65      0.00
    7   -9    7     -1.84      0.00
    8   -9    7     -0.56      0.00
    9   -9    7      3.25      0.00
   10   -9    7     -2.24      0.00
  -12   -8    7      4.45      0.00
  -11   -8    7      1.22      0.00
  -10   -8    7     -1.07      0.00
   -9   -8    7     -0.49      0.00
   -8   -8    7      0.45      0.00
   -7   -8    7      2.51      0.00
   -6   -8    7      0.12      0.00
   -5   -8    7     -1.77      0.00
   -4   -8    7     -1.47      0.00
   -3   -8    7     -0.44      0.00
   -2   -8    7     -0.81      0.00
   -1   -8    7      4.27      0.00
    0   -8    7      1.93      0.00
    1   -8    7     -2.01      0.00
    2   -8    7     -2.51      0.00
    3   -8    7     -6.26      0.00
    4   -8    7      0.19      0.00
    5   -8    7      3.08      0.00
    6   -8    7      2.05      0.00
    7   -8    7      3.11      0.00
    8   -8    7     -2.84      0.00
    9   -8    7     -4.80      0.00
   10   -8    7     -1.70      0.00
  -13   -7    7     -1.10      0.00
  -12   -7    7      0.78      0.00
  -11   -7    7      2.49      0.00
  -10   -7    7     -1.21      0.00
   -9   -7    7     -1.64      0.00
   -8   -7    7     -6.51      0.00
   -7   -7    7      2.72      0.00
   -6   -7    7      4.41      0.00
   -5   -7    7     -1.02      0.00
   -4   -7    7     -2.65      0.00
   -3   -7    7     -0.29      0.00
   -2   -7    7      0.99      0.00
   -1   -7    7     -4.77      0.00
    0   -7    7      2.68      0.00
    1   -7    7      2.10      0.00
    2   -7    7      1.48      0.00
    3   -7    7     -2.73      0.00
    4   -7    7     -4.85      0.00
    5   -7    7      6.71      0.00
    6   -7    7     -1.43      0.00
    7   -7    7      2.53      0.00
    8   -7    7      2.16      0.00
    9   -7    7      0.76      0.00
   10   -7    7      1.95      0.00
   11   -7    7      0.72      0.00
  -13   -6    7      0.80      0.00
  -12   -6    7      0.93      0.00
  -11   -6    7     -1.04      0.00
  -10   -6    7     -0.26      0.00
   -9   -6    7      0.34      0.00
   -8   -6    7      0.71      0.00
   -7   -6    7     -5.66      0.00
   -6   -6    7      5.10      0.00
   -5   -6    7     -2.86      0.00
   -4   -6    7      0.98      0.00
   -3   -6    7     -2.82      0.00
   -2   -6    7      1.69      0.00
   -1   -6    7      5.64      0.00
    0   -6    7     -2.90      0.00
    1   -6    7      1.18      0.00
    2   -6    7     -7.48      0.00
    3   -6    7     -0.12      0.00
    4   -6    7     -5.24      0.00
    5   -6    7     -1.86      0.00
    6   -6    7      1.89      0.00
    7   -6    7     -4.16      0.00
    8   -6    7      3.45      0.00
    9   -6    7      0.31      0.00
   10   -6    7      2.47      0.00
   11   -6    7      1.19      0.00
   12   -6    7     -1.09      0.00
  -13   -5    7     -0.82      0.00
  -12   -5    7      0.74      0.00
  -11   -5    7      3.32      0.00
  -10   -5    7     -4.45      0.00
   -9   -5    7     -1.88      0.00
   -8   -5    7      3.01      0.00
   -7   -5    7     -0.91      0.00
   -6   -5    7      0.58      0.00
   -5   -5    7      1.25      0.00
   -4   -5    7     -6.24      0.00
   -3   -5    7     12.15      0.00
   -2   -5    7     -9.07      0.00
   -1   -5    7      0.27      0.00
    0   -5    7      4.96      0.00
    1   -5    7      2.77      0.00
    2   -5    7      3.23      0.00
    3   -5    7     -9.88      0.00
    4   -5    7      1.88      0.00
    5   -5    7     -4.25      0.00
    6   -5    7      2.58      0.00
    7   -5    7     -5.87      0.00
    8   -5    7     -3.12      0.00
    9   -5    7      2.03      0.00
   10   -5    7     -3.67      0.00
   11   -5    7      2.78      0.00
   12   -5    7     -0.72      0.00
  -13   -4    7     -0.52      0.00
  -12   -4    7      1.85      0.00
  -11   -4    7     -0.32      0.00
  -10   -4    7      5.16      0.00
   -9   -4    7     -3.52      0.00
   -8   -4    7     -2.02      0.00
   -7   -4    7     -1.40      0.00
   -6   -4    7     -3.39      0.00
   -5   -4    7      9.10      0.00
   -4   -4    7     -7.81      0.00
   -3   -4    7     -0.44      0.00
   -2   -4    7     12.45      0.00
   -1   -4    7    -11.48      0.00
    0   -4    7      2.43      0.00
    1   -4    7     -6.88      0.00
    2   -4    7      7.34      0.00
    3   -4    7      5.70      0.00
    4   -4    7     -0.93      0.00
    5   -4    7      6.62      0.00
    6   -4    7     -2.24      0.00
    7   -4    7      0.34      0.00
    8   -4    7     -8.18      0.00
    9   -4    7     -0.33      0.00
   10   -4    7      2.56      0.00
   11   -4    7     -3.52      0.00
   12   -4    7     -0.30      0.00
  -13   -3    7     -0.57      0.00
  -12   -3    7      4.61      0.00
  -11   -3    7      1.31      0.00
  -10   -3    7     -3.76      0.00
   -9   -3    7      2.73      0.00
   -8   -3    7     -0.05      0.00
   -7   -3    7      2.12      0.00
   -6   -3    7     -5.18      0.00
   -5   -3    7     -0.70      0.00
   -4   -3    7     11.07      0.00
   -3   -3    7    -11.47      0.00
   -2   -3    7      8.71      0.00
   -1   -3    7      4.54      0.00
    0   -3    7      3.14      0.00
    1   -3    7     -0.14      0.00
    2   -3    7    -15.63      0.00
    3   -3    7      7.55      0.00
    4   -3    7      3.21      0.00
    5   -3    7      7.36      0.00
    6   -3    7      1.24      0.00
    7   -3    7     -2.77      0.00
    8   -3    7     -3.39      0.00
    9   -3    7     -4.35      0.00
   10   -3    7     -0.40      0.00
   11   -3    7      0.88      0.00
   12   -3    7     -2.54      0.00
   13   -3    7      0.51      0.00
  -13   -2    7     -1.74      0.00
  -12   -2    7     -3.15      0.00
  -11   -2    7      3.22      0.00
  -10   -2    7     -2.00      0.00
   -9   -2    7     -2.09      0.00
   -8   -2    7      3.42      0.00
   -7   -2    7      4.62      0.00
   -6   -2    7      3.88      0.00
   -5   -2    7     -4.15      0.00
   -4   -2    7      4.18      0.00
   -3   -2    7      4.41      0.00
   -2   -2    7     -4.91      0.00
   -1   -2    7      6.45      0.00
    0   -2    7     -2.26      0.00
    1   -2    7     15.40      0.00
    2   -2    7     -8.81      0.00
    3   -2    7     -6.17      0.00
    4   -2    7     -0.28      0.00
    5   -2    7     -2.40      0.00
    6   -2    7      8.31      0.00
    7   -2    7     -3.90      0.00
    8   -2    7     -0.16      0.00
    9   -2    7     -3.77      0.00
   10   -2    7      0.31      0.00
   11   -2    7      0.52      0.00
   12   -2    7      1.87      0.00
   13   -2    7     -1.94      0.00
  -13   -1    7      0.11      0.00
  -12   -1    7     -2.22      0.00
  -11   -1    7     -4.78      0.00
  -10   -1    7      3.05      0.00
   -9   -1    7     -0.93      0.00
   -8   -1    7      4.79      0.00
   -7   -1    7     -2.62      0.00
   -6   -1    7      1.18      0.00
   -5   -1    7     -0.61      0.00
   -4   -1    7      2.93      0.00
   -3   -1    7      2.35      0.00
   -2   -1    7     -6.23      0.00
   -1   -1    7      4.61      0.00
    0   -1    7     -2.26      0.00
    1   -1    7     -2.43      0.00
    2   -1    7      7.32      0.00
    3   -1    7     -5.51      0.00
    4   -1    7     10.30      0.00
    5   -1    7     -7.94      0.00
    6   -1    7      0.97      0.00
    7   -1    7      5.22      0.00
    8   -1    7     -0.02      0.00
    9   -1    7     -0.58      0.00
   10   -1    7     -6.09      0.00
   11   -1    7     -0.29      0.00
   12   -1    7     -1.08      0.00
   13   -1    7      1.30      0.00
   14   -1    7     -0.81      0.00
  -13    0    7      3.12      0.00
  -12    0    7     -0.78      0.00
  -11    0    7     -1.76      0.00
  -10    0    7     -3.10      0.00
   -9    0    7      0.41      0.00
   -8    0    7     -1.62      0.00
   -7    0    7      6.78      0.00
   -6    0    7    -13.06      0.00
   -5    0    7      3.88      0.00
   -4    0    7     -5.64      0.00
   -3    0    7      9.80      0.00
   -2    0    7     -7.53      0.00
   -1    0    7     -6.92      0.00
    0    0    7     14.90      0.00
    1    0    7     -8.31      0.00
    2    0    7      5.36      0.00
    3    0    7     -3.26      0.00
    4    0    7      4.82      0.00
    5    0    7      8.91      0.00
    6    0    7     -6.67      0.00
    7    0    7      5.08      0.00
    8    0    7     -2.09      0.00
    9    0    7      0.63      0.00
   10    0    7     -2.02      0.00
   11    0    7      0.60      0.00
   12    0    7      2.79      0.00
   13    0    7      1.96      0.00
   14    0    7      0.73      0.00
  -13    1    7     -0.95      0.00
  -12    1    7     -0.12      0.00
  -11    1    7     -0.73      0.00
  -10    1    7      1.04      0.00
   -9    1    7      0.90      0.00
   -8    1    7     -1.16      0.00
   -7    1    7      1.05      0.00
   -6    1    7      4.42      0.00
   -5    1    7     -8.87      0.00
   -4    1    7      9.40      0.00
   -3    1    7    -14.10      0.00
   -2    1    7     14.10      0.00
   -1    1    7    -12.65      0.00
    0    1    7      2.46      0.00
    1    1    7      7.63      0.00
    2    1    7    -18.93      0.00
    3    1    7      8.10      0.00
    4    1    7    -11.25      0.00
    5    1    7      3.95      0.00
    6    1    7     -3.08      0.00
    7    1    7      0.18      0.00
    8    1    7     -0.27      0.00
    9    1    7     -1.05      0.00
   10    1    7      3.70      0.00
   11    1    7     -1.53      0.00
   12    1    7      3.10      0.00
   13    1    7     -0.35      0.00
   14    1    7      3.22      0.00
  -13    2    7     -4.19      0.00
  -12    2    7      0.53      0.00
  -11    2    7     -0.61      0.00
  -10    2    7     -1.05      0.00
   -9    2    7      3.80      0.00
   -8    2    7      3.65      0.00
   -7    2    7     -1.82      0.00
   -6    2    7      2.49      0.00
   -5    2    7     -3.62      0.00
   -4    2    7      4.31      0.00
   -3    2    7      1.21      0.00
   -2    2    7    -12.24      0.00
   -1    2    7     11.37      0.00
    0    2    7    -16.77      0.00
    1    2    7      3.49      0.00
    2    2    7    -14.46      0.00
    3    2    7    -15.24      0.00
    4    2    7     13.29      0.00
    5    2    7    -11.19      0.00
    6    2    7     -0.13      0.00
    7    2    7    -10.55      0.00
    8    2    7      0.84      0.00
    9    2    7     -5.92      0.00
   10    2    7     -0.39      0.00
   11    2    7     -0.24      0.00
   12    2    7     -2.41      0.00
   13    2    7      3.71      0.00
   14    2    7     -0.51      0.00
  -12    3    7      0.70      0.00
  -11    3    7      0.39      0.00
  -10    3    7     -0.58      0.00
   -9    3    7      0.19      0.00
   -8    3    7      2.98      0.00
   -7    3    7     -0.07      0.00
   -6    3    7     -0.56      0.00
   -5    3    7      4.86      0.00
   -4    3    7     -4.66      0.00
   -3    3    7     12.89      0.00
   -2    3    7    -10.76      0.00
   -1    3    7      1.42      0.00
    0    3    7     -8.06      0.00
    1    3    7    -14.74      0.00
    2    3    7      1.26      0.00
    3    3    7    -13.45      0.00
    4    3    7      2.79      0.00
    5    3    7      6.19      0.00
    6    3    7     -6.21      0.00
    7    3    7      3.17      0.00
    8    3    7     -9.56      0.00
    9    3    7     -2.71      0.00
   10    3    7     -3.35      0.00
   11    3    7      3.08      0.00
   12    3    7      1.26      0.00
   13    3    7      0.28      0.00
   14    3    7      2.13      0.00
  -12    4    7     -0.32      0.00
  -11    4    7     -0.17      0.00
  -10    4    7      0.10      0.00
   -9    4    7     -1.26      0.00
   -8    4    7      0.97      0.00
   -7    4    7     -2.43      0.00
   -6    4    7     -2.38      0.00
   -5    4    7      4.10      0.00
   -4    4    7      1.23      0.00
   -3    4    7     -3.28      0.00
   -2    4    7      8.99      0.00
   -1    4    7    -11.28      0.00
    0    4    7     12.24      0.00
    1    4    7    -17.37      0.00
    2    4    7      6.12      0.00
    3    4    7      1.64      0.00
    4    4    7      1.08      0.00
    5    4    7      5.37      0.00
    6    4    7     -1.58      0.00
    7    4    7      9.85      0.00
    8    4    7      6.70      0.00
    9    4    7     -3.48      0.00
   10    4    7      1.39      0.00
   11    4    7     -0.58      0.00
   12    4    7     -0.77      0.00
   13    4    7     -1.96      0.00
   14    4    7     -0.50      0.00
  -12    5    7      1.00      0.00
  -11    5    7     -0.11      0.00
  -10    5    7     -4.57      0.00
   -9    5    7     -0.59      0.00
   -8    5    7     -2.71      0.00
   -7    5    7      3.72      0.00
   -6    5    7     -6.47      0.00
   -5    5    7     -1.91      0.00
   -4    5    7      2.08      0.00
   -3    5    7     -1.16      0.00
   -2    5    7      9.05      0.00
   -1    5    7      3.21      0.00
    0    5    7     -2.82      0.00
    1    5    7     12.22      0.00
    2    5    7     -7.31      0.00
    3    5    7     13.34      0.00
    4    5    7     -1.58      0.00
    5    5    7      9.05      0.00
    6    5    7     -1.51      0.00
    7    5    7     -5.55      0.00
    8    5    7      8.26      0.00
    9    5    7      0.53      0.00
   10    5    7      2.05      0.00
   11    5    7      0.63      0.00
   12    5    7     -3.27      0.00
   13    5    7     -1.94      0.00
   14    5    7     -0.71      0.00
   15    5    7     -0.56      0.00
  -12    6    7     -2.24      0.00
  -11    6    7      4.15      0.00
  -10    6    7      0.37      0.00
   -9    6    7     -1.22      0.00
   -8    6    7     -0.27      0.00
   -7    6    7     -3.32      0.00
   -6    6    7      8.09      0.00
   -5    6    7     -5.40      0.00
   -4    6    7      4.01      0.00
   -3    6    7     -4.34      0.00
   -2    6    7     -3.22      0.00
   -1    6    7     10.83      0.00
    0    6    7    -11.45      0.00
    1    6    7      2.45      0.00
    2    6    7      5.17      0.00
    3    6    7      5.93      0.00
    4    6    7      4.27      0.00
    5    6    7     -4.50      0.00
    6    6    7      0.07      0.00
    7    6    7     -8.44      0.00
    8    6    7     -4.21      0.00
    9    6    7      1.55      0.00
   10    6    7     -1.39      0.00
   11    6    7      2.89      0.00
   12    6    7     -1.47      0.00
   13    6    7     -0.63      0.00
   14    6    7      0.11      0.00
   15    6    7      0.50      0.00
  -11    7    7     -2.82      0.00
  -10    7    7      4.38      0.00
   -9    7    7     -1.78      0.00
   -8    7    7     -0.70      0.00
   -7    7    7     -1.97      0.00
   -6    7    7     -1.00      0.00
   -5    7    7      7.26      0.00
   -4    7    7     -4.07      0.00
   -3    7    7      5.60      0.00
   -2    7    7    -10.95      0.00
   -1    7    7     -1.40      0.00
    0    7    7      5.62      0.00
    1    7    7    -12.59      0.00
    2    7    7      7.43      0.00
    3    7    7     -8.96      0.00
    4    7    7      5.33      0.00
    5    7    7     -4.26      0.00
    6    7    7     -0.64      0.00
    7    7    7      0.21      0.00
    8    7    7     -0.73      0.00
    9    7    7     -0.99      0.00
   10    7    7     -2.87      0.00
   11    7    7      0.09      0.00
   12    7    7      2.48      0.00
   13    7    7      1.08      0.00
   14    7    7      0.95      0.00
   15    7    7     -2.01      0.00
  -11    8    7      2.14      0.00
  -10    8    7      0.35      0.00
   -9    8    7      0.43      0.00
   -8    8    7     -2.09      0.00
   -7    8    7      1.73      0.00
   -6    8    7      0.66      0.00
   -5    8    7      2.68      0.00
   -4    8    7      1.47      0.00
   -3    8    7      2.26      0.00
   -2    8    7      7.21      0.00
   -1    8    7     -7.84      0.00
    0    8    7      1.04      0.00
    1    8    7     -4.35      0.00
    2    8    7     -5.88      0.00
    3    8    7      3.26      0.00
    4    8    7    -15.01      0.00
    5    8    7      9.22      0.00
    6    8    7     -2.94      0.00
    7    8    7      2.16      0.00
    8    8    7     -1.77      0.00
    9    8    7      1.05      0.00
   10    8    7      0.24      0.00
   11    8    7     -1.39      0.00
   12    8    7      0.49      0.00
   13    8    7     -0.30      0.00
   14    8    7     -0.57      0.00
  -10    9    7      2.02      0.00
   -9    9    7      1.58      0.00
   -8    9    7     -0.28      0.00
   -7    9    7     -0.57      0.00
   -6    9    7      1.64      0.00
   -5    9    7     -1.34      0.00
   -4    9    7      1.04      0.00
   -3    9    7     -3.30      0.00
   -2    9    7      3.69      0.00
   -1    9    7      0.80      0.00
    0    9    7      0.83      0.00
    1    9    7      0.59      0.00
    2    9    7     -5.38      0.00
    3    9    7      4.49      0.00
    4    9    7     -3.47      0.00
    5    9    7     -7.58      0.00
    6    9    7      8.33      0.00
    7    9    7     -3.89      0.00
    8    9    7      4.31      0.00
    9    9    7     -2.08      0.00
   10    9    7      1.27      0.00
   11    9    7     -0.90      0.00
   12    9    7     -1.28      0.00
   13    9    7     -0.03      0.00
   14    9    7     -1.58      0.00
  -10   10    7     -0.67      0.00
   -9   10    7     -1.31      0.00
   -8   10    7      0.19      0.00
   -7   10    7      0.45      0.00
   -6   10    7      0.46      0.00
   -5   10    7     -1.39      0.00
   -4   10    7     -3.12      0.00
   -3   10    7      2.97      0.00
   -2   10    7     -0.70      0.00
   -1   10    7      2.13      0.00
    0   10    7     -3.71      0.00
    1   10    7      6.55      0.00
    2   10    7     -4.57      0.00
    3   10    7     -4.11      0.00
    4   10    7      2.72      0.00
    5   10    7     -5.89      0.00
    6   10    7      4.16      0.00
    7   10    7      1.79      0.00
    8   10    7     -1.56      0.00
    9   10    7      3.52      0.00
   10   10    7     -2.38      0.00
   11   10    7      1.49      0.00
   12   10    7     -1.64      0.00
   13   10    7     -0.66      0.00
   14   10    7      2.79      0.00
   -9   11    7      0.24      0.00
   -8   11    7     -0.01      0.00
   -7   11    7     -0.17      0.00
   -6   11    7     -0.05      0.00
   -5   11    7      2.34      0.00
   -4   11    7     -3.26      0.00
   -3   11    7     -2.91      0.00
   -2   11    7      2.93      0.00
   -1   11    7      0.87      0.00
    0   11    7     -2.76      0.00
    1   11    7     -4.59      0.00
    2   11    7      4.63      0.00
    3   11    7     -2.60      0.00
    4   11    7      3.17      0.00
    5   11    7     -1.02      0.00
    6   11    7     -5.92      0.00
    7   11    7      2.86      0.00
    8   11    7     -2.47      0.00
    9   11    7      2.51      0.00
   10   11    7      1.12      0.00
   11   11    7     -0.10      0.00
   12   11    7      1.93      0.00
   13   11    7     -1.01      0.00
   14   11    7      0.74      0.00
   -9   12    7     -1.73      0.00
   -8   12    7     -2.77      0.00
   -7   12    7     -1.01      0.00
   -6   12    7     -3.64      0.00
   -5   12    7      1.97      0.00
   -4   12    7      3.26      0.00
   -3   12    7     -5.11      0.00
   -2   12    7     -2.28      0.00
   -1   12    7      0.37      0.00
    0   12    7      5.67      0.00
    1   12    7     -1.38      0.00
    2   12    7     -0.43      0.00
    3   12    7      0.63      0.00
    4   12    7      1.61      0.00
    5   12    7      2.83      0.00
    6   12    7     -1.85      0.00
    7   12    7     -0.19      0.00
    8   12    7      1.71      0.00
    9   12    7      1.14      0.00
   10   12    7      2.59      0.00
   11   12    7      0.69      0.00
   12   12    7      2.09      0.00
   13   12    7      2.29      0.00
   14   12    7     -1.28      0.00
   -8   13    7     -0.81      0.00
   -7   13    7     -1.60      0.00
   -6   13    7      2.46      0.00
   -5   13    7     -3.37      0.00
   -4   13    7      3.92      0.00
   -3   13    7      0.48      0.00
   -2   13    7     -1.97      0.00
   -1   13    7     -0.08      0.00
    0   13    7     -3.04      0.00
    1   13    7      4.97      0.00
    2   13    7     -1.15      0.00
    3   13    7      3.88      0.00
    4   13    7     -1.76      0.00
    5   13    7      1.98      0.00
    6   13    7      0.12      0.00
    7   13    7      1.04      0.00
    8   13    7      0.51      0.00
    9   13    7      0.42      0.00
   10   13    7      3.47      0.00
   11   13    7      1.00      0.00
   12   13    7     -1.59      0.00
   13   13    7     -2.65      0.00
   -7   14    7      2.27      0.00
   -6   14    7      1.55      0.00
   -5   14    7     -1.61      0.00
   -4   14    7     -3.40      0.00
   -3   14    7      2.33      0.00
   -2   14    7     -2.20      0.00
   -1   14    7      1.75      0.00
    0   14    7     -1.98      0.00
    1   14    7     -5.01      0.00
    2   14    7      2.16      0.00
    3   14    7      0.44      0.00
    4   14    7      4.35      0.00
    5   14    7     -3.20      0.00
    6   14    7     -0.21      0.00
    7   14    7     -0.91      0.00
    8   14    7      3.92      0.00
    9   14    7      0.22      0.00
   10   14    7      0.85      0.00
   11   14    7      1.86      0.00
   12   14    7     -0.08      0.00
   13   14    7     -1.43      0.00
   -6   15    7     -0.25      0.00
   -5   15    7      2.66      0.00
   -4   15    7     -1.11      0.00
   -3   15    7      1.35      0.00
   -2   15    7     -1.99      0.00
   -1   15    7     -3.69      0.00
    0   15    7      1.44      0.00
    1   15    7     -3.04      0.00
    2   15    7     -2.26      0.00
    3   15    7      0.07      0.00
    4   15    7      2.25      0.00
    5   15    7      3.16      0.00
    6   15    7     -0.84      0.00
    7   15    7     -0.09      0.00
    8   15    7     -1.34      0.00
    9   15    7      3.19      0.00
   10   15    7      1.04      0.00
   11   15    7      1.21      0.00
   12   15    7      0.31      0.00
   -5   16    7      3.29      0.00
   -4   16    7     -0.84      0.00
   -3   16    7     -2.05      0.00
   -2   16    7      1.65      0.00
   -1   16    7     -0.90      0.00
    0   16    7      2.71      0.00
    1   16    7      1.72      0.00
    2   16    7     -3.14      0.00
    3   16    7      0.26      0.00
    4   16    7     -1.30      0.00
    5   16    7     -0.89      0.00
    6   16    7      0.22      0.00
    7   16    7     -0.03      0.00
    8   16    7     -0.56      0.00
    9   16    7     -1.51      0.00
   10   16    7      1.33      0.00
   11   16    7     -1.79      0.00
   12   16    7     -2.43      0.00
   -4   17    7      3.14      0.00
   -3   17    7     -2.50      0.00
   -2   17    7      1.55      0.00
   -1   17    7      2.91      0.00
    0   17    7      3.06      0.00
    1   17    7      3.12      0.00
    2   17    7     -1.30      0.00
    3   17    7     -0.98      0.00
    4   17    7      0.65      0.00
    5   17    7     -0.35      0.00
    6   17    7      0.26      0.00
    7   17    7      0.95      0.00
    8   17    7     -2.09      0.00
    9   17    7     -0.06      0.00
   10   17    7     -0.66      0.00
   11   17    7      0.92      0.00
   -3   18    7      3.62      0.00
   -2   18    7     -1.05      0.00
   -1   18    7      0.52      0.00
    0   18    7     -0.83      0.00
    1   18    7     -0.89      0.00
    2   18    7      0.28      0.00
    3   18    7     -0.17      0.00
    4   18    7      2.01      0.00
    5   18    7     -0.17      0.00
    6   18    7      0.58      0.00
    7   18    7     -0.04      0.00
    8   18    7     -0.55      0.00
    9   18    7     -1.05      0.00
   10   18    7      4.28      0.00
   -1   19    7     -1.45      0.00
    0   19    7     -1.36      0.00
    1   19    7     -4.50      0.00
    2   19    7     -5.39      0.00
    3   19    7     -0.94      0.00
    4   19    7     -0.85      0.00
    5   19    7     -0.85      0.00
    6   19    7     -0.27      0.00
    7   19    7      1.91      0.00
    8   19    7     -0.71      0.00
    9   19    7     -2.18      0.00
    1   20    7     -0.67      0.00
    2   20    7     -2.30      0.00
    3   20    7     -0.71      0.00
    4   20    7      0.32      0.00
    5   20    7     -0.35      0.00
    6   20    7      1.35      0.00
    7   20    7      1.52      0.00
   -5  -16    8     -0.02      0.00
   -4  -16    8     -0.75      0.00
   -3  -16    8     -1.27      0.00
   -2  -16    8      0.16      0.00
   -1  -16    8      0.35      0.00
    0  -16    8      5.21      0.00
   -7  -15    8     -0.32      0.00
   -6  -15    8      0.65      0.00
   -5  -15    8      1.96      0.00
   -4  -15    8      1.98      0.00
   -3  -15    8     -1.41      0.00
   -2  -15    8      0.93      0.00
   -1  -15    8      4.28      0.00
    0  -15    8      1.83      0.00
    1  -15    8      3.27      0.00
    2  -15    8      1.01      0.00
    3  -15    8      0.84      0.00
   -8  -14    8      1.33      0.00
   -7  -14    8     -0.48      0.00
   -6  -14    8     -1.00      0.00
   -5  -14    8     -0.30      0.00
   -4  -14    8      3.74      0.00
   -3  -14    8      0.65      0.00
   -2  -14    8     -2.47      0.00
   -1  -14    8      0.08      0.00
    0  -14    8      1.22      0.00
    1  -14    8      0.21      0.00
    2  -14    8      0.06      0.00
    3  -14    8     -1.47      0.00
    4  -14    8     -3.07      0.00
   -9  -13    8      0.83      0.00
   -8  -13    8     -0.65      0.00
   -7  -13    8      2.01      0.00
   -6  -13    8     -3.26      0.00
   -5  -13    8     -0.19      0.00
   -4  -13    8     -3.78      0.00
   -3  -13    8     -0.86      0.00
   -2  -13    8     -0.60      0.00
   -1  -13    8      2.42      0.00
    0  -13    8      4.12      0.00
    1  -13    8      0.82      0.00
    2  -13    8     -0.50      0.00
    3  -13    8     -1.54      0.00
    4  -13    8     -1.90      0.00
    5  -13    8      0.84      0.00
    6  -13    8      1.51      0.00
  -10  -12    8      1.13      0.00
   -9  -12    8     -0.68      0.00
   -8  -12    8      2.43      0.00
   -7  -12    8     -0.85      0.00
   -6  -12    8     -1.62      0.00
   -5  -12    8     -0.99      0.00
   -4  -12    8      3.04      0.00
   -3  -12    8     -2.28      0.00
   -2  -12    8      0.26      0.00
   -1  -12    8      1.35      0.00
    0  -12    8      1.07      0.00
    1  -12    8      0.16      0.00
    2  -12    8     -0.68      0.00
    3  -12    8      3.96      0.00
    4  -12    8      2.44      0.00
    5  -12    8      0.52      0.00
    6  -12    8      1.42      0.00
    7  -12    8      0.80      0.00
  -11  -11    8      0.13      0.00
  -10  -11    8      2.13      0.00
   -9  -11    8     -0.79      0.00
   -8  -11    8     -1.20      0.00
   -7  -11    8      0.06      0.00
   -6  -11    8     -0.08      0.00
   -5  -11    8     -0.31      0.00
   -4  -11    8      4.40      0.00
   -3  -11    8      2.56      0.00
   -2  -11    8     -0.68      0.00
   -1  -11    8     -1.15      0.00
    0  -11    8     -3.67      0.00
    1  -11    8     -4.15      0.00
    2  -11    8      1.24      0.00
    3  -11    8      1.03      0.00
    4  -11    8      6.02      0.00
    5  -11    8      1.46      0.00
    6  -11    8     -1.84      0.00
    7  -11    8     -2.66      0.00
    8  -11    8      1.76      0.00
  -11  -10    8      1.79      0.00
  -10  -10    8     -0.39      0.00
   -9  -10    8      2.10      0.00
   -8  -10    8      0.83      0.00
   -7  -10    8      0.96      0.00
   -6  -10    8     -1.48      0.00
   -5  -10    8     -2.41      0.00
   -4  -10    8      0.65      0.00
   -3  -10    8      1.82      0.00
   -2  -10    8     -1.67      0.00
   -1  -10    8      3.73      0.00
    0  -10    8     -1.30      0.00
    1  -10    8     -1.81      0.00
    2  -10    8     -0.77      0.00
    3  -10    8      1.12      0.00
    4  -10    8     -0.88      0.00
    5  -10    8      3.26      0.00
    6  -10    8      1.74      0.00
    7  -10    8     -0.96      0.00
    8  -10    8     -3.61      0.00
    9  -10    8      1.30      0.00
  -12   -9    8     -1.31      0.00
  -11   -9    8      1.71      0.00
  -10   -9    8      1.34      0.00
   -9   -9    8     -1.19      0.00
   -8   -9    8     -1.07      0.00
   -7   -9    8     -1.33      0.00
   -6   -9    8     -1.53      0.00
   -5   -9    8     -0.30      0.00
   -4   -9    8     -0.58      0.00
   -3   -9    8      2.54      0.00
   -2   -9    8     -2.78      0.00
   -1   -9    8     -0.60      0.00
    0   -9    8      6.56      0.00
    1   -9    8     -0.59      0.00
    2   -9    8      3.28      0.00
    3   -9    8      1.23      0.00
    4   -9    8     -1.23      0.00
    5   -9    8     -0.07      0.00
    6   -9    8      1.07      0.00
    7   -9    8      3.62      0.00
    8   -9    8      0.85      0.00
    9   -9    8     -1.58      0.00
  -12   -8    8     -2.90      0.00
  -11   -8    8     -3.88      0.00
  -10   -8    8     -1.01      0.00
   -9   -8    8      1.62      0.00
   -8   -8    8      0.30      0.00
   -7   -8    8     -4.42      0.00
   -6   -8    8     -2.93      0.00
   -5   -8    8      3.37      0.00
   -4   -8    8      3.56      0.00
   -3   -8    8     -1.38      0.00
   -2   -8    8      2.09      0.00
   -1   -8    8     -4.54      0.00
    0   -8    8      2.04      0.00
    1   -8    8      0.06      0.00
    2   -8    8     -1.23      0.00
    3   -8    8      6.64      0.00
    4   -8    8      0.23      0.00
    5   -8    8      0.98      0.00
    6   -8    8     -1.44      0.00
    7   -8    8     -3.49      0.00
    8   -8    8      1.01      0.00
    9   -8    8      1.91      0.00
   10   -8    8      0.11      0.00
  -12   -7    8     -2.14      0.00
  -11   -7    8     -1.29      0.00
  -10   -7    8     -0.14      0.00
   -9   -7    8      0.22      0.00
   -8   -7    8      6.43      0.00
   -7   -7    8      0.76      0.00
   -6   -7    8     -2.70      0.00
   -5   -7    8     -1.74      0.00
   -4   -7    8      3.14      0.00
   -3   -7    8      0.18      0.00
   -2   -7    8     -1.46      0.00
   -1   -7    8      3.17      0.00
    0   -7    8     -4.22      0.00
    1   -7    8      0.25      0.00
    2   -7    8     -5.09      0.00
    3   -7    8      2.83      0.00
    4   -7    8      5.60      0.00
    5   -7    8     -2.45      0.00
    6   -7    8      2.16      0.00
    7   -7    8     -5.63      0.00
    8   -7    8     -0.83      0.00
    9   -7    8     -0.04      0.00
   10   -7    8      2.00      0.00
   11   -7    8      1.41      0.00
  -12   -6    8     -1.03      0.00
  -11   -6    8      0.67      0.00
  -10   -6    8      2.52      0.00
   -9   -6    8     -1.20      0.00
   -8   -6    8     -1.18      0.00
   -7   -6    8      4.60      0.00
   -6   -6    8     -1.80      0.00
   -5   -6    8      3.41      0.00
   -4   -6    8     -1.80      0.00
   -3   -6    8      0.55      0.00
   -2   -6    8      0.44      0.00
   -1   -6    8      1.00      0.00
    0   -6    8      0.49      0.00
    1   -6    8     -2.46      0.00
    2   -6    8      3.01      0.00
    3   -6    8     -0.75      0.00
    4   -6    8      5.17      0.00
    5   -6    8     -2.56      0.00
    6   -6    8     -3.34      0.00
    7   -6    8      4.01      0.00
    8   -6    8     -2.06      0.00
    9   -6    8      3.32      0.00
   10   -6    8     -2.17      0.00
   11   -6    8     -2.56      0.00
  -13   -5    8      0.82      0.00
  -12   -5    8      0.05      0.00
  -11   -5    8     -4.06      0.00
  -10   -5    8      0.02      0.00
   -9   -5    8      1.31      0.00
   -8   -5    8     -0.16      0.00
   -7   -5    8      4.41      0.00
   -6   -5    8     -3.02      0.00
   -5   -5    8      0.83      0.00
   -4   -5    8      8.81      0.00
   -3   -5    8     -5.19      0.00
   -2   -5    8      0.23      0.00
   -1   -5    8     -1.39      0.00
    0   -5    8     -1.58      0.00
    1   -5    8     -3.72      0.00
    2   -5    8     -1.67      0.00
    3   -5    8      3.77      0.00
    4   -5    8      1.89      0.00
    5   -5    8      1.89      0.00
    6   -5    8     -4.24      0.00
    7   -5    8      3.83      0.00
    8   -5    8      3.39      0.00
    9   -5    8     -0.02      0.00
   10   -5    8      2.27      0.00
   11   -5    8     -1.00      0.00
   12   -5    8      2.82      0.00
  -13   -4    8      1.37      0.00
  -12   -4    8     -2.18      0.00
  -11   -4    8      1.67      0.00
  -10   -4    8     -2.78      0.00
   -9   -4    8      3.07      0.00
   -8   -4    8     -1.56      0.00
   -7   -4    8      1.99      0.00
   -6   -4    8      6.00      0.00
   -5   -4    8     -9.29      0.00
   -4   -4    8      4.89      0.00
   -3   -4    8      0.13      0.00
   -2   -4    8     -5.41      0.00
   -1   -4    8      0.08      0.00
    0   -4    8     -0.32      0.00
    1   -4    8      5.84      0.00
    2   -4    8     -0.76      0.00
    3   -4    8     -2.48      0.00
    4   -4    8     -3.45      0.00
    5   -4    8     -1.45      0.00
    6   -4    8      0.63      0.00
    7   -4    8      0.32      0.00
    8   -4    8      3.32      0.00
    9   -4    8      0.41      0.00
   10   -4    8      0.32      0.00
   11   -4    8      3.82      0.00
   12   -4    8      0.99      0.00
  -13   -3    8      3.20      0.00
  -12   -3    8     -1.67      0.00
  -11   -3    8     -3.55      0.00
  -10   -3    8      3.55      0.00
   -9   -3    8     -0.68      0.00
   -8   -3    8     -0.32      0.00
   -7   -3    8     -7.76      0.00
   -6   -3    8      5.24      0.00
   -5   -3    8      2.56      0.00
   -4   -3    8     -7.57      0.00
   -3   -3    8      2.87      0.00
   -2   -3    8     -7.05      0.00
   -1   -3    8      5.65      0.00
    0   -3    8     -8.35      0.00
    1   -3    8     -0.45      0.00
    2   -3    8      5.17      0.00
    3   -3    8     -1.39      0.00
    4   -3    8     -2.56      0.00
    5   -3    8     -8.27      0.00
    6   -3    8     -3.62      0.00
    7   -3    8     -1.49      0.00
    8   -3    8      4.82      0.00
    9   -3    8      0.33      0.00
   10   -3    8      1.86      0.00
   11   -3    8     -1.81      0.00
   12   -3    8      0.87      0.00
   13   -3    8      1.24      0.00
  -13   -2    8      0.09      0.00
  -12   -2    8      2.58      0.00
  -11   -2    8     -2.57      0.00
  -10   -2    8     -1.78      0.00
   -9   -2    8      0.33      0.00
   -8   -2    8      0.48      0.00
   -7   -2    8     -2.41      0.00
   -6   -2    8     -4.44      0.00
   -5   -2    8      3.05      0.00
   -4   -2    8     -4.89      0.00
   -3   -2    8      2.10      0.00
   -2   -2    8     -3.42      0.00
   -1   -2    8     -4.51      0.00
    0   -2    8      5.41      0.00
    1   -2    8    -15.52      0.00
    2   -2    8      8.15      0.00
    3   -2    8     -0.55      0.00
    4   -2    8      5.81      0.00
    5   -2    8      2.76      0.00
    6   -2    8     -5.40      0.00
    7   -2    8     -0.64      0.00
    8   -2    8     -1.82      0.00
    9   -2    8      9.04      0.00
   10   -2    8      0.28      0.00
   11   -2    8      1.26      0.00
   12   -2    8     -3.17      0.00
   13   -2    8      0.97      0.00
  -13   -1    8     -0.82      0.00
  -12   -1    8      1.35      0.00
  -11   -1    8      5.20      0.00
  -10   -1    8      1.30      0.00
   -9   -1    8      2.76      0.00
   -8   -1    8     -3.38      0.00
   -7   -1    8      1.71      0.00
   -6   -1    8     -1.51      0.00
   -5   -1    8      5.17      0.00
   -4   -1    8     -4.87      0.00
   -3   -1    8     -6.15      0.00
   -2   -1    8     12.16      0.00
   -1   -1    8     -8.84      0.00
    0   -1    8      4.16      0.00
    1   -1    8      0.52      0.00
    2   -1    8     -3.38      0.00
    3   -1    8      9.56      0.00
    4   -1    8     -9.41      0.00
    5   -1    8      8.07      0.00
    6   -1    8     -0.27      0.00
    7   -1    8     -0.37      0.00
    8   -1    8     -3.15      0.00
    9   -1    8     -3.46      0.00
   10   -1    8      4.80      0.00
   11   -1    8     -1.09      0.00
   12   -1    8      1.36      0.00
   13   -1    8     -3.70      0.00
  -13    0    8     -1.70      0.00
  -12    0    8      4.66      0.00
  -11    0    8      0.99      0.00
  -10    0    8      1.95      0.00
   -9    0    8      1.83      0.00
   -8    0    8      1.85      0.00
   -7    0    8     -6.45      0.00
   -6    0    8      5.07      0.00
   -5    0    8     -1.18      0.00
   -4    0    8     11.62      0.00
   -3    0    8    -12.71      0.00
   -2    0    8      0.31      0.00
   -1    0    8      8.39      0.00
    0    0    8    -16.65      0.00
    1    0    8      6.00      0.00
    2    0    8     -7.99      0.00
    3    0    8      4.44      0.00
    4    0    8     -3.48      0.00
    5    0    8     -6.74      0.00
    6    0    8      6.35      0.00
    7    0    8     -3.33      0.00
    8    0    8      3.54      0.00
    9    0    8     -5.74      0.00
   10    0    8      0.19      0.00
   11    0    8      0.95      0.00
   12    0    8      0.09      0.00
   13    0    8      0.59      0.00
   14    0    8     -4.13      0.00
  -13    1    8     -0.97      0.00
  -12    1    8     -2.99      0.00
  -11    1    8      2.62      0.00
  -10    1    8     -4.01      0.00
   -9    1    8     -2.37      0.00
   -8    1    8     -0.67      0.00
   -7    1    8     -1.26      0.00
   -6    1    8     -0.55      0.00
   -5    1    8      4.85      0.00
   -4    1    8     -4.91      0.00
   -3    1    8     12.22      0.00
   -2    1    8    -12.71      0.00
   -1    1    8      9.61      0.00
    0    1    8     -3.07      0.00
    1    1    8     -9.69      0.00
    2    1    8     17.53      0.00
    3    1    8     -5.60      0.00
    4    1    8      6.02      0.00
    5    1    8     -6.88      0.00
    6    1    8      4.26      0.00
    7    1    8      0.70      0.00
    8    1    8     -0.33      0.00
    9    1    8      4.79      0.00
   10    1    8     -0.21      0.00
   11    1    8      2.94      0.00
   12    1    8     -5.70      0.00
   13    1    8     -1.99      0.00
   14    1    8     -3.13      0.00
  -12    2    8     -0.46      0.00
  -11    2    8      0.03      0.00
  -10    2    8      2.61      0.00
   -9    2    8     -3.52      0.00
   -8    2    8      0.14      0.00
   -7    2    8     -0.72      0.00
   -6    2    8     -1.71      0.00
   -5    2    8      5.19      0.00
   -4    2    8     -4.82      0.00
   -3    2    8     -0.02      0.00
   -2    2    8      9.11      0.00
   -1    2    8      1.31      0.00
    0    2    8     15.02      0.00
    1    2    8     -7.22      0.00
    2    2    8      5.48      0.00
    3    2    8     12.89      0.00
    4    2    8     -6.95      0.00
    5    2    8      3.86      0.00
    6    2    8     -4.92      0.00
    7    2    8      5.62      0.00
    8    2    8     -1.16      0.00
    9    2    8      4.01      0.00
   10    2    8      0.12      0.00
   11    2    8     -0.42      0.00
   12    2    8      2.02      0.00
   13    2    8     -3.24      0.00
   14    2    8      1.87      0.00
  -12    3    8      1.34      0.00
  -11    3    8     -0.07      0.00
  -10    3    8      0.21      0.00
   -9    3    8      0.38      0.00
   -8    3    8     -2.25      0.00
   -7    3    8      1.88      0.00
   -6    3    8     -4.56      0.00
   -5    3    8     -4.34      0.00
   -4    3    8      2.62      0.00
   -3    3    8     -7.75      0.00
   -2    3    8      9.81      0.00
   -1    3    8     -7.32      0.00
    0    3    8     12.88      0.00
    1    3    8      4.53      0.00
    2    3    8      1.56      0.00
    3    3    8     11.03      0.00
    4    3    8     -1.09      0.00
    5    3    8      1.52      0.00
    6    3    8      4.39      0.00
    7    3    8     -2.09      0.00
    8    3    8      4.31      0.00
    9    3    8      1.30      0.00
   10    3    8      2.23      0.00
   11    3    8      0.56      0.00
   12    3    8      1.20      0.00
   13    3    8      2.21      0.00
   14    3    8     -2.56      0.00
  -12    4    8     -2.45      0.00
  -11    4    8     -1.23      0.00
  -10    4    8      0.83      0.00
   -9    4    8      1.40      0.00
   -8    4    8     -3.69      0.00
   -7    4    8      0.21      0.00
   -6    4    8      4.31      0.00
   -5    4    8     -2.94      0.00
   -4    4    8     -0.30      0.00
   -3    4    8     -5.59      0.00
   -2    4    8     -7.30      0.00
   -1    4    8      5.87      0.00
    0    4    8    -11.14      0.00
    1    4    8     23.09      0.00
    2    4    8     -6.13      0.00
    3    4    8     13.50      0.00
    4    4    8     -3.87      0.00
    5    4    8     -6.71      0.00
    6    4    8      7.09      0.00
    7    4    8     -2.93      0.00
    8    4    8     -3.04      0.00
    9    4    8     -1.49      0.00
   10    4    8     -0.25      0.00
   11    4    8     -0.13      0.00
   12    4    8      0.98      0.00
   13    4    8     -1.71      0.00
   14    4    8      0.18      0.00
  -12    5    8     -0.13      0.00
  -11    5    8     -0.03      0.00
  -10    5    8      4.89      0.00
   -9    5    8      0.41      0.00
   -8    5    8      5.36      0.00
   -7    5    8     -3.89      0.00
   -6    5    8      5.52      0.00
   -5    5    8      1.99      0.00
   -4    5    8      0.50      0.00
   -3    5    8      4.33      0.00
   -2    5    8    -12.41      0.00
   -1    5    8     -0.08      0.00
    0    5    8     -1.50      0.00
    1    5    8     -4.65      0.00
    2    5    8      3.43      0.00
    3    5    8    -19.52      0.00
    4    5    8      8.50      0.00
    5    5    8    -14.74      0.00
    6    5    8      2.75      0.00
    7    5    8      2.51      0.00
    8    5    8     -5.57      0.00
    9    5    8      0.19      0.00
   10    5    8     -5.21      0.00
   11    5    8     -1.90      0.00
   12    5    8      0.74      0.00
   13    5    8      3.24      0.00
   14    5    8      1.33      0.00
  -11    6    8      0.18      0.00
  -10    6    8      0.18      0.00
   -9    6    8      2.54      0.00
   -8    6    8      0.45      0.00
   -7    6    8      6.35      0.00
   -6    6    8     -6.35      0.00
   -5    6    8      4.62      0.00
   -4    6    8     -5.28      0.00
   -3    6    8      6.69      0.00
   -2    6    8      7.25      0.00
   -1    6    8    -13.40      0.00
    0    6    8      3.43      0.00
    1    6    8    -10.65      0.00
    2    6    8      2.79      0.00
    3    6    8     -8.57      0.00
    4    6    8     -5.68      0.00
    5    6    8      3.85      0.00
    6    6    8     -6.93      0.00
    7    6    8      8.56      0.00
    8    6    8      0.74      0.00
    9    6    8      3.47      0.00
   10    6    8      2.87      0.00
   11    6    8     -3.86      0.00
   12    6    8      0.22      0.00
   13    6    8      1.03      0.00
   14    6    8      1.83      0.00
  -11    7    8      1.67      0.00
  -10    7    8     -2.41      0.00
   -9    7    8      0.74      0.00
   -8    7    8     -0.90      0.00
   -7    7    8      1.19      0.00
   -6    7    8      0.40      0.00
   -5    7    8     -4.86      0.00
   -4    7    8      1.19      0.00
   -3    7    8     -8.62      0.00
   -2    7    8      7.95      0.00
   -1    7    8      5.66      0.00
    0    7    8     -0.38      0.00
    1    7    8     10.71      0.00
    2    7    8     -8.00      0.00
    3    7    8     10.04      0.00
    4    7    8     -7.59      0.00
    5    7    8      4.19      0.00
    6    7    8     -2.88      0.00
    7    7    8      1.27      0.00
    8    7    8      2.85      0.00
    9    7    8     -2.50      0.00
   10    7    8      3.17      0.00
   11    7    8      0.07      0.00
   12    7    8     -0.55      0.00
   13    7    8     -1.19      0.00
   14    7    8     -1.67      0.00
  -11    8    8     -3.78      0.00
  -10    8    8     -1.67      0.00
   -9    8    8     -2.29      0.00
   -8    8    8      1.80      0.00
   -7    8    8      0.17      0.00
   -6    8    8     -0.30      0.00
   -5    8    8     -4.46      0.00
   -4    8    8      0.92      0.00
   -3    8    8     -2.60      0.00
   -2    8    8     -1.97      0.00
   -1    8    8      3.32      0.00
    0    8    8      0.74      0.00
    1    8    8      6.10      0.00
    2    8    8      2.25      0.00
    3    8    8     -5.17      0.00
    4    8    8     11.56      0.00
    5    8    8     -2.54      0.00
    6    8    8      5.45      0.00
    7    8    8     -4.46      0.00
    8    8    8      0.41      0.00
    9    8    8     -2.47      0.00
   10    8    8     -1.34      0.00
   11    8    8      3.45      0.00
   12    8    8      0.20      0.00
   13    8    8      1.82      0.00
   14    8    8      0.19      0.00
  -10    9    8     -3.01      0.00
   -9    9    8     -2.44      0.00
   -8    9    8      0.47      0.00
   -7    9    8     -0.54      0.00
   -6    9    8      0.24      0.00
   -5    9    8      0.23      0.00
   -4    9    8     -0.62      0.00
   -3    9    8      2.05      0.00
   -2    9    8     -5.90      0.00
   -1    9    8      4.52      0.00
    0    9    8     -7.53      0.00
    1    9    8      0.94      0.00
    2    9    8      6.98      0.00
    3    9    8     -0.91      0.00
    4    9    8      4.54      0.00
    5    9    8      2.90      0.00
    6    9    8     -4.18      0.00
    7    9    8      2.40      0.00
    8    9    8     -2.03      0.00
    9    9    8      2.33      0.00
   10    9    8     -0.52      0.00
   11    9    8     -0.38      0.00
   12    9    8      1.08      0.00
   13    9    8     -1.09      0.00
   14    9    8      1.92      0.00
  -10   10    8      0.42      0.00
   -9   10    8      0.14      0.00
   -8   10    8     -1.28      0.00
   -7   10    8      0.00      0.00
   -6   10    8     -2.66      0.00
   -5   10    8      1.99      0.00
   -4   10    8      2.75      0.00
   -3   10    8      1.36      0.00
   -2   10    8     -3.38      0.00
   -1   10    8     -3.27      0.00
    0   10    8      8.33      0.00
    1   10    8     -8.87      0.00
    2   10    8      6.60      0.00
    3   10    8     -0.58      0.00
    4   10    8     -0.54      0.00
    5   10    8      7.63      0.00
    6   10    8     -3.13      0.00
    7   10    8     -0.16      0.00
    8   10    8     -1.48      0.00
    9   10    8     -2.58      0.00
   10   10    8      1.15      0.00
   11   10    8     -1.45      0.00
   12   10    8      0.89      0.00
   13   10    8      0.91      0.00
   14   10    8     -2.37      0.00
   -9   11    8      0.16      0.00
   -8   11    8     -1.00      0.00
   -7   11    8      1.44      0.00
   -6   11    8      0.83      0.00
   -5   11    8     -3.24      0.00
   -4   11    8      1.40      0.00
   -3   11    8      2.50      0.00
   -2   11    8      3.03      0.00
   -1   11    8     -5.12      0.00
    0   11    8     -0.12      0.00
    1   11    8      4.03      0.00
    2   11    8     -2.60      0.00
    3   11    8      7.71      0.00
    4   11    8     -5.48      0.00
    5   11    8      3.87      0.00
    6   11    8      3.93      0.00
    7   11    8     -1.94      0.00
    8   11    8      2.74      0.00
    9   11    8     -3.05      0.00
   10   11    8      0.24      0.00
   11   11    8      0.21      0.00
   12   11    8     -2.38      0.00
   13   11    8      0.32      0.00
   14   11    8      1.00      0.00
   -9   12    8      3.32      0.00
   -8   12    8      1.70      0.00
   -7   12    8     -0.74      0.00
   -6   12    8      2.71      0.00
   -5   12    8     -0.44      0.00
   -4   12    8     -1.93      0.00
   -3   12    8      1.66      0.00
   -2   12    8      2.12      0.00
   -1   12    8      5.87      0.00
    0   12    8     -4.53      0.00
    1   12    8      0.69      0.00
    2   12    8     -1.78      0.00
    3   12    8      0.41      0.00
    4   12    8     -0.44      0.00
    5   12    8     -4.70      0.00
    6   12    8      2.75      0.00
    7   12    8      0.17      0.00
    8   12    8      2.44      0.00
    9   12    8     -1.53      0.00
   10   12    8     -4.60      0.00
   11   12    8     -1.49      0.00
   12   12    8     -2.47      0.00
   13   12    8     -2.18      0.00
   14   12    8     -0.87      0.00
   -8   13    8      0.73      0.00
   -7   13    8      3.35      0.00
   -6   13    8      0.16      0.00
   -5   13    8      2.47      0.00
   -4   13    8     -3.31      0.00
   -3   13    8     -0.85      0.00
   -2   13    8     -0.91      0.00
   -1   13    8     -1.03      0.00
    0   13    8      4.45      0.00
    1   13    8     -3.79      0.00
    2   13    8     -0.09      0.00
    3   13    8     -6.01      0.00
    4   13    8      2.02      0.00
    5   13    8     -0.95      0.00
    6   13    8      3.00      0.00
    7   13    8     -3.09      0.00
    8   13    8     -5.45      0.00
    9   13    8     -0.94      0.00
   10   13    8     -3.52      0.00
   11   13    8     -0.05      0.00
   12   13    8      0.56      0.00
   13   13    8      1.58      0.00
   -7   14    8     -3.47      0.00
   -6   14    8      0.44      0.00
   -5   14    8      0.80      0.00
   -4   14    8      1.04      0.00
   -3   14    8     -2.74      0.00
   -2   14    8      1.58      0.00
   -1   14    8     -1.22      0.00
    0   14    8     -0.29      0.00
    1   14    8      4.15      0.00
    2   14    8      0.67      0.00
    3   14    8      1.30      0.00
    4   14    8     -5.85      0.00
    5   14    8      1.17      0.00
    6   14    8     -1.32      0.00
    7   14    8      2.77      0.00
    8   14    8     -3.21      0.00
    9   14    8      0.79      0.00
   10   14    8      0.49      0.00
   11   14    8     -1.52      0.00
   12   14    8      0.68      0.00
   13   14    8      0.11      0.00
   -6   15    8     -1.41      0.00
   -5   15    8     -0.72      0.00
   -4   15    8      3.77      0.00
   -3   15    8     -1.16      0.00
   -2   15    8     -0.36      0.00
   -1   15    8      1.97      0.00
    0   15    8      0.59      0.00
    1   15    8      0.84      0.00
    2   15    8      1.66      0.00
    3   15    8     -0.12      0.00
    4   15    8     -1.05      0.00
    5   15    8     -0.82      0.00
    6   15    8      1.15      0.00
    7   15    8     -0.47      0.00
    8   15    8      2.92      0.00
    9   15    8     -0.73      0.00
   10   15    8     -1.17      0.00
   11   15    8     -2.03      0.00
   12   15    8     -0.57      0.00
   -5   16    8     -1.57      0.00
   -4   16    8     -0.54      0.00
   -3   16    8      2.38      0.00
   -2   16    8     -1.92      0.00
   -1   16    8      1.51      0.00
    0   16    8     -1.41      0.00
    1   16    8      1.22      0.00
    2   16    8      2.93      0.00
    3   16    8      0.85      0.00
    4   16    8      0.41      0.00
    5   16    8     -1.37      0.00
    6   16    8      0.11      0.00
    7   16    8     -1.71      0.00
    8   16    8     -1.11      0.00
    9   16    8      0.24      0.00
   10   16    8      0.10      0.00
   11   16    8     -0.38      0.00
   12   16    8      1.56      0.00
   -4   17    8     -2.06      0.00
   -3   17    8      4.30      0.00
   -2   17    8      2.24      0.00
   -1   17    8     -0.42      0.00
    0   17    8     -2.35      0.00
    1   17    8     -5.15      0.00
    2   17    8     -0.32      0.00
    3   17    8     -0.06      0.00
    4   17    8     -1.10      0.00
    5   17    8     -0.15      0.00
    6   17    8      0.13      0.00
    7   17    8      1.56      0.00
    8   17    8      1.37      0.00
    9   17    8     -0.88      0.00
   10   17    8     -1.00      0.00
   11   17    8      0.94      0.00
   -3   18    8     -2.13      0.00
   -2   18    8      1.23      0.00
   -1   18    8     -2.19      0.00
    0   18    8     -0.82      0.00
    1   18    8     -0.27      0.00
    2   18    8     -0.35      0.00
    3   18    8     -0.78      0.00
    4   18    8     -1.68      0.00
    5   18    8      3.27      0.00
    6   18    8     -0.65      0.00
    7   18    8     -2.17      0.00
    8   18    8     -1.16      0.00
    9   18    8      2.26      0.00
   10   18    8     -2.92      0.00
   -1   19    8      0.67      0.00
    0   19    8     -0.14      0.00
    1   19    8      2.63      0.00
    2   19    8      5.60      0.00
    3   19    8      1.78      0.00
    4   19    8     -1.36      0.00
    5   19    8     -0.24      0.00
    6   19    8      1.64      0.00
    7   19    8     -3.48      0.00
    8   19    8      1.11      0.00
    9   19    8      1.92      0.00
    1   20    8      0.29      0.00
    2   20    8      2.51      0.00
    3   20    8      3.86      0.00
    4   20    8      0.26      0.00
    5   20    8     -0.59      0.00
    6   20    8      0.96      0.00
    7   20    8     -0.14      0.00
   -6  -15    9      0.09      0.00
   -5  -15    9     -0.56      0.00
   -4  -15    9     -4.52      0.00
   -3  -15    9     -1.02      0.00
   -2  -15    9      0.04      0.00
   -1  -15    9     -3.16      0.00
    0  -15    9     -2.31      0.00
    1  -15    9     -5.98      0.00
    2  -15    9     -2.45      0.00
   -7  -14    9     -1.23      0.00
   -6  -14    9      0.32      0.00
   -5  -14    9      0.00      0.00
   -4  -14    9     -2.37      0.00
   -3  -14    9     -1.96      0.00
   -2  -14    9      0.91      0.00
   -1  -14    9      0.58      0.00
    0  -14    9     -2.78      0.00
    1  -14    9     -0.86      0.00
    2  -14    9      1.37      0.00
    3  -14    9      2.06      0.00
    4  -14    9      2.78      0.00
   -8  -13    9      2.75      0.00
   -7  -13    9      0.47      0.00
   -6  -13    9      1.96      0.00
   -5  -13    9     -0.43      0.00
   -4  -13    9      2.01      0.00
   -3  -13    9      1.62      0.00
   -2  -13    9      2.01      0.00
   -1  -13    9      0.54      0.00
    0  -13    9     -0.73      0.00
    1  -13    9     -1.05      0.00
    2  -13    9     -0.42      0.00
    3  -13    9      2.58      0.00
    4  -13    9      2.43      0.00
    5  -13    9      1.01      0.00
   -9  -12    9      1.89      0.00
   -8  -12    9     -0.75      0.00
   -7  -12    9      0.32      0.00
   -6  -12    9     -0.02      0.00
   -5  -12    9      1.36      0.00
   -4  -12    9     -0.20      0.00
   -3  -12    9      1.11      0.00
   -2  -12    9      1.27      0.00
   -1  -12    9      0.03      0.00
    0  -12    9     -0.57      0.00
    1  -12    9     -0.55      0.00
    2  -12    9     -1.78      0.00
    3  -12    9     -3.37      0.00
    4  -12    9     -0.97      0.00
    5  -12    9      0.97      0.00
    6  -12    9     -1.47      0.00
  -10  -11    9     -2.14      0.00
   -9  -11    9     -0.21      0.00
   -8  -11    9      0.04      0.00
   -7  -11    9     -2.12      0.00
   -6  -11    9      1.80      0.00
   -5  -11    9      1.86      0.00
   -4  -11    9     -3.70      0.00
   -3  -11    9     -2.01      0.00
   -2  -11    9     -3.15      0.00
   -1  -11    9     -0.18      0.00
    0  -11    9      1.00      0.00
    1  -11    9      2.08      0.00
    2  -11    9      1.17      0.00
    3  -11    9     -1.42      0.00
    4  -11    9     -5.07      0.00
    5  -11    9     -3.25      0.00
    6  -11    9      1.94      0.00
    7  -11    9      1.54      0.00
  -11  -10    9     -2.42      0.00
  -10  -10    9      1.58      0.00
   -9  -10    9     -1.24      0.00
   -8  -10    9      1.17      0.00
   -7  -10    9     -0.58      0.00
   -6  -10    9      0.61      0.00
   -5  -10    9      3.98      0.00
   -4  -10    9     -1.20      0.00
   -3  -10    9     -3.41      0.00
   -2  -10    9      1.94      0.00
   -1  -10    9     -4.39      0.00
    0  -10    9      1.92      0.00
    1  -10    9      0.25      0.00
    2  -10    9      0.53      0.00
    3  -10    9     -0.08      0.00
    4  -10    9     -0.08      0.00
    5  -10    9     -2.74      0.00
    6  -10    9     -2.24      0.00
    7  -10    9      2.47      0.00
    8  -10    9      3.38      0.00
  -11   -9    9      1.58      0.00
  -10   -9    9     -1.39      0.00
   -9   -9    9      1.95      0.00
   -8   -9    9      0.68      0.00
   -7   -9    9      3.84      0.00
   -6   -9    9     -0.06      0.00
   -5   -9    9     -1.55      0.00
   -4   -9    9      1.67      0.00
   -3   -9    9     -1.77      0.00
   -2   -9    9      2.21      0.00
   -1   -9    9     -0.25      0.00
    0   -9    9     -7.15      0.00
    1   -9    9      3.13      0.00
    2   -9    9     -2.58      0.00
    3   -9    9      0.43      0.00
    4   -9    9     -0.61      0.00
    5   -9    9     -0.31      0.00
    6   -9    9     -0.92      0.00
    7   -9    9     -2.87      0.00
    8   -9    9     -0.23      0.00
    9   -9    9      0.49      0.00
  -11   -8    9      1.74      0.00
  -10   -8    9      1.16      0.00
   -9   -8    9     -0.99      0.00
   -8   -8    9     -1.24      0.00
   -7   -8    9      1.36      0.00
   -6   -8    9      4.17      0.00
   -5   -8    9     -1.50      0.00
   -4   -8    9     -3.80      0.00
   -3   -8    9     -1.19      0.00
   -2   -8    9     -1.97      0.00
   -1   -8    9      4.98      0.00
    0   -8    9     -3.19      0.00
    1   -8    9     -1.34      0.00
    2   -8    9      1.82      0.00
    3   -8    9     -5.59      0.00
    4   -8    9     -0.72      0.00
    5   -8    9     -4.22      0.00
    6   -8    9      2.07      0.00
    7   -8    9      3.85      0.00
    8   -8    9     -1.29      0.00
    9   -8    9     -0.58      0.00
   10   -8    9     -1.09      0.00
  -12   -7    9      1.36      0.00
  -11   -7    9     -1.32      0.00
  -10   -7    9     -0.63      0.00
   -9   -7    9      1.97      0.00
   -8   -7    9     -2.75      0.00
   -7   -7    9     -3.29      0.00
   -6   -7    9      0.05      0.00
   -5   -7    9      2.05      0.00
   -4   -7    9     -1.00      0.00
   -3   -7    9      0.29      0.00
   -2   -7    9     -2.13      0.00
   -1   -7    9     -1.98      0.00
    0   -7    9      3.10      0.00
    1   -7    9     -1.71      0.00
    2   -7    9      5.06      0.00
    3   -7    9     -3.83      0.00
    4   -7    9     -2.76      0.00
    5   -7    9      1.45      0.00
    6   -7    9     -3.22      0.00
    7   -7    9      4.88      0.00
    8   -7    9      0.27      0.00
    9   -7    9     -1.24      0.00
   10   -7    9     -1.95      0.00
  -12   -6    9      0.38      0.00
  -11   -6    9      2.14      0.00
  -10   -6    9     -0.62      0.00
   -9   -6    9      0.04      0.00
   -8   -6    9     -1.31      0.00
   -7   -6    9     -2.85      0.00
   -6   -6    9      2.20      0.00
   -5   -6    9     -3.11      0.00
   -4   -6    9     -2.81      0.00
   -3   -6    9      1.16      0.00
   -2   -6    9      4.27      0.00
   -1   -6    9     -2.64      0.00
    0   -6    9      0.74      0.00
    1   -6    9      0.47      0.00
    2   -6    9      3.35      0.00
    3   -6    9      3.92      0.00
    4   -6    9     -6.42      0.00
    5   -6    9      4.14      0.00
    6   -6    9      1.38      0.00
    7   -6    9     -2.68      0.00
    8   -6    9      1.81      0.00
    9   -6    9     -3.81      0.00
   10   -6    9      1.45      0.00
   11   -6    9     -0.46      0.00
  -12   -5    9      1.72      0.00
  -11   -5    9      1.41      0.00
  -10   -5    9     -0.04      0.00
   -9   -5    9      0.49      0.00
   -8   -5    9      1.89      0.00
   -7   -5    9     -5.83      0.00
   -6   -5    9      1.66      0.00
   -5   -5    9     -0.13      0.00
   -4   -5    9     -5.05      0.00
   -3   -5    9     -1.32      0.00
   -2   -5    9      2.98      0.00
   -1   -5    9      4.02      0.00
    0   -5    9     -0.66      0.00
    1   -5    9      2.38      0.00
    2   -5    9     -3.00      0.00
    3   -5    9      4.58      0.00
    4   -5    9     -2.17      0.00
    5   -5    9     -2.68      0.00
    6   -5    9      4.91      0.00
    7   -5    9      0.24      0.00
    8   -5    9      1.29      0.00
    9   -5    9     -1.64      0.00
   10   -5    9     -3.22      0.00
   11   -5    9     -1.59      0.00
   12   -5    9     -2.07      0.00
  -12   -4    9      0.64      0.00
  -11   -4    9     -0.68      0.00
  -10   -4    9     -0.13      0.00
   -9   -4    9     -1.91      0.00
   -8   -4    9      5.08      0.00
   -7   -4    9      1.08      0.00
   -6   -4    9     -8.25      0.00
   -5   -4    9      4.64      0.00
   -4   -4    9     -3.67      0.00
   -3   -4    9      3.51      0.00
   -2   -4    9     -3.69      0.00
   -1   -4    9      0.66      0.00
    0   -4    9      1.54      0.00
    1   -4    9      0.74      0.00
    2   -4    9      0.79      0.00
    3   -4    9     -3.74      0.00
    4   -4    9      4.59      0.00
    5   -4    9     -1.45      0.00
    6   -4    9      3.78      0.00
    7   -4    9     -1.87      0.00
    8   -4    9     -1.86      0.00
    9   -4    9      0.75      0.00
   10   -4    9     -3.05      0.00
   11   -4    9     -0.49      0.00
   12   -4    9     -1.91      0.00
  -12   -3    9     -1.37      0.00
  -11   -3    9      4.89      0.00
  -10   -3    9      0.81      0.00
   -9   -3    9     -0.75      0.00
   -8   -3    9     -3.56      0.00
   -7   -3    9      5.86      0.00
   -6   -3    9     -1.41      0.00
   -5   -3    9     -0.86      0.00
   -4   -3    9      1.43      0.00
   -3   -3    9     -2.45      0.00
   -2   -3    9     11.69      0.00
   -1   -3    9     -6.55      0.00
    0   -3    9      8.55      0.00
    1   -3    9     -0.64      0.00
    2   -3    9      0.47      0.00
    3   -3    9     -2.19      0.00
    4   -3    9     -2.69      0.00
    5   -3    9      3.89      0.00
    6   -3    9      1.73      0.00
    7   -3    9      4.82      0.00
    8   -3    9     -7.30      0.00
    9   -3    9      0.88      0.00
   10   -3    9     -0.62      0.00
   11   -3    9      0.81      0.00
   12   -3    9     -0.03      0.00
  -12   -2    9     -1.43      0.00
  -11   -2    9     -1.16      0.00
  -10   -2    9      0.09      0.00
   -9   -2    9     -1.14      0.00
   -8   -2    9     -1.66      0.00
   -7   -2    9      1.87      0.00
   -6   -2    9      1.98      0.00
   -5   -2    9     -2.25      0.00
   -4   -2    9      6.48      0.00
   -3   -2    9     -3.19      0.00
   -2   -2    9      4.77      0.00
   -1   -2    9      5.73      0.00
    0   -2    9     -6.90      0.00
    1   -2    9     11.96      0.00
    2   -2    9     -5.82      0.00
    3   -2    9      5.64      0.00
    4   -2    9     -2.72      0.00
    5   -2    9     -0.65      0.00
    6   -2    9      0.80      0.00
    7   -2    9      1.27      0.00
    8   -2    9      6.86      0.00
    9   -2    9     -6.37      0.00
   10   -2    9      1.31      0.00
   11   -2    9     -2.47      0.00
   12   -2    9      3.65      0.00
   13   -2    9      2.98      0.00
  -12   -1    9     -2.13      0.00
  -11   -1    9     -3.69      0.00
  -10   -1    9     -2.54      0.00
   -9   -1    9     -1.67      0.00
   -8   -1    9      2.20      0.00
   -7   -1    9      1.36      0.00
   -6   -1    9      4.85      0.00
   -5   -1    9     -8.49      0.00
   -4   -1    9      3.81      0.00
   -3   -1    9      8.29      0.00
   -2   -1    9     -7.74      0.00
   -1   -1    9      5.62      0.00
    0   -1    9     -3.23      0.00
    1   -1    9      1.43      0.00
    2   -1    9      4.58      0.00
    3   -1    9     -6.61      0.00
    4   -1    9      5.00      0.00
    5   -1    9     -6.72      0.00
    6   -1    9     -0.10      0.00
    7   -1    9     -3.27      0.00
    8   -1    9      1.30      0.00
    9   -1    9      6.28      0.00
   10   -1    9     -3.68      0.00
   11   -1    9      0.65      0.00
   12   -1    9     -2.50      0.00
   13   -1    9      2.70      0.00
  -12    0    9     -4.53      0.00
  -11    0    9     -1.12      0.00
  -10    0    9      1.20      0.00
   -9    0    9     -0.92      0.00
   -8    0    9     -0.83      0.00
   -7    0    9     -0.10      0.00
   -6    0    9     -1.55      0.00
   -5    0    9      2.17      0.00
   -4    0    9    -11.77      0.00
   -3    0    9      8.59      0.00
   -2    0    9      0.34      0.00
   -1    0    9     -4.47      0.00
    0    0    9      8.28      0.00
    1    0    9     -4.70      0.00
    2    0    9      1.66      0.00
    3    0    9     -5.86      0.00
    4    0    9      2.54      0.00
    5    0    9      1.07      0.00
    6    0    9     -4.61      0.00
    7    0    9      1.56      0.00
    8    0    9     -4.15      0.00
    9    0    9      1.89      0.00
   10    0    9      0.72      0.00
   11    0    9      0.46      0.00
   12    0    9      0.82      0.00
   13    0    9     -2.00      0.00
  -12    1    9      3.68      0.00
  -11    1    9     -4.94      0.00
  -10    1    9      2.04      0.00
   -9    1    9      0.27      0.00
   -8    1    9     -1.06      0.00
   -7    1    9      2.01      0.00
   -6    1    9     -2.93      0.00
   -5    1    9     -1.53      0.00
   -4    1    9     -0.31      0.00
   -3    1    9     -5.31      0.00
   -2    1    9      6.80      0.00
   -1    1    9     -8.20      0.00
    0    1    9      5.22      0.00
    1    1    9      9.38      0.00
    2    1    9     -3.33      0.00
    3    1    9      0.80      0.00
    4    1    9     -1.82      0.00
    5    1    9      9.97      0.00
    6    1    9     -0.79      0.00
    7    1    9      0.33      0.00
    8    1    9     -1.26      0.00
    9    1    9     -2.96      0.00
   10    1    9     -0.03      0.00
   11    1    9     -2.25      0.00
   12    1    9      4.54      0.00
   13    1    9      2.04      0.00
   14    1    9      1.37      0.00
  -12    2    9      0.69      0.00
  -11    2    9      1.90      0.00
  -10    2    9     -1.49      0.00
   -9    2    9      4.97      0.00
   -8    2    9     -1.63      0.00
   -7    2    9      3.21      0.00
   -6    2    9      4.80      0.00
   -5    2    9     -3.39      0.00
   -4    2    9      2.18      0.00
   -3    2    9     -5.67      0.00
   -2    2    9      2.70      0.00
   -1    2    9     -3.58      0.00
    0    2    9     -7.55      0.00
    1    2    9      6.37      0.00
    2    2    9     -3.15      0.00
    3    2    9     -3.93      0.00
    4    2    9     -1.34      0.00
    5    2    9     -0.85      0.00
    6    2    9      3.47      0.00
    7    2    9     -1.23      0.00
    8    2    9      1.74      0.00
    9    2    9     -1.01      0.00
   10    2    9      0.21      0.00
   11    2    9     -3.22      0.00
   12    2    9     -3.73      0.00
   13    2    9      1.92      0.00
   14    2    9      1.06      0.00
  -12    3    9      0.50      0.00
  -11    3    9      0.44      0.00
  -10    3    9     -1.14      0.00
   -9    3    9     -0.09      0.00
   -8    3    9      3.84      0.00
   -7    3    9     -3.08      0.00
   -6    3    9      2.31      0.00
   -5    3    9      0.77      0.00
   -4    3    9      2.47      0.00
   -3    3    9      5.32      0.00
   -2    3    9     -9.61      0.00
   -1    3    9      9.76      0.00
    0    3    9    -20.67      0.00
    1    3    9     -2.64      0.00
    2    3    9    -11.51      0.00
    3    3    9    -12.40      0.00
    4    3    9      5.33      0.00
    5    3    9     -3.04      0.00
    6    3    9     -2.73      0.00
    7    3    9     -2.83      0.00
    8    3    9      1.27      0.00
    9    3    9      0.33      0.00
   10    3    9     -0.60      0.00
   11    3    9     -1.24      0.00
   12    3    9     -0.65      0.00
   13    3    9      0.13      0.00
   14    3    9      1.24      0.00
  -12    4    9      0.61      0.00
  -11    4    9      1.78      0.00
  -10    4    9     -1.45      0.00
   -9    4    9     -2.49      0.00
   -8    4    9      2.17      0.00
   -7    4    9      0.23      0.00
   -6    4    9     -2.37      0.00
   -5    4    9      1.78      0.00
   -4    4    9     -0.66      0.00
   -3    4    9     10.99      0.00
   -2    4    9      5.00      0.00
   -1    4    9     -5.31      0.00
    0    4    9      7.09      0.00
    1    4    9    -23.63      0.00
    2    4    9     13.46      0.00
    3    4    9    -17.55      0.00
    4    4    9      1.14      0.00
    5    4    9      5.86      0.00
    6    4    9     -7.29      0.00
    7    4    9      1.58      0.00
    8    4    9     -3.05      0.00
    9    4    9      3.09      0.00
   10    4    9      1.11      0.00
   11    4    9      2.80      0.00
   12    4    9     -1.21      0.00
   13    4    9      1.25      0.00
   14    4    9     -1.04      0.00
  -11    5    9     -0.39      0.00
  -10    5    9     -2.41      0.00
   -9    5    9     -0.18      0.00
   -8    5    9     -5.25      0.00
   -7    5    9      2.12      0.00
   -6    5    9     -3.70      0.00
   -5    5    9      0.94      0.00
   -4    5    9     -2.63      0.00
   -3    5    9     -7.12      0.00
   -2    5    9      8.89      0.00
   -1    5    9      4.11      0.00
    0    5    9      9.78      0.00
    1    5    9      2.48      0.00
    2    5    9     -6.13      0.00
    3    5    9     16.67      0.00
    4    5    9    -13.11      0.00
    5    5    9     11.78      0.00
    6    5    9     -3.59      0.00
    7    5    9     -1.25      0.00
    8    5    9      2.95      0.00
    9    5    9     -3.67      0.00
   10    5    9      5.53      0.00
   11    5    9      2.37      0.00
   12    5    9      2.33      0.00
   13    5    9     -3.13      0.00
   14    5    9     -0.39      0.00
  -11    6    9     -2.57      0.00
  -10    6    9     -3.17      0.00
   -9    6    9     -4.39      0.00
   -8    6    9      0.36      0.00
   -7    6    9     -5.03      0.00
   -6    6    9      2.56      0.00
   -5    6    9     -5.88      0.00
   -4    6    9      4.83      0.00
   -3    6    9     -4.96      0.00
   -2    6    9     -6.62      0.00
   -1    6    9      6.31      0.00
    0    6    9      1.16      0.00
    1    6    9     13.04      0.00
    2    6    9     -2.84      0.00
    3    6    9      8.49      0.00
    4    6    9      5.84      0.00
    5    6    9      0.93      0.00
    6    6    9      9.75      0.00
    7    6    9     -8.66      0.00
    8    6    9      1.71      0.00
    9    6    9     -2.29      0.00
   10    6    9     -2.13      0.00
   11    6    9      4.07      0.00
   12    6    9      0.44      0.00
   13    6    9      1.53      0.00
   14    6    9     -1.72      0.00
  -11    7    9      0.44      0.00
  -10    7    9      0.39      0.00
   -9    7    9      0.97      0.00
   -8    7    9     -0.11      0.00
   -7    7    9     -1.65      0.00
   -6    7    9      0.84      0.00
   -5    7    9      2.17      0.00
   -4    7    9     -0.32      0.00
   -3    7    9      5.66      0.00
   -2    7    9     -3.03      0.00
   -1    7    9     -3.20      0.00
    0    7    9     -3.56      0.00
    1    7    9     -4.78      0.00
    2    7    9      8.66      0.00
    3    7    9     -1.60      0.00
    4    7    9      7.22      0.00
    5    7    9     -6.43      0.00
    6    7    9      4.95      0.00
    7    7    9      0.17      0.00
    8    7    9     -0.56      0.00
    9    7    9      3.34      0.00
   10    7    9     -3.31      0.00
   11    7    9     -2.13      0.00
   12    7    9     -2.58      0.00
   13    7    9     -1.42      0.00
   14    7    9      0.28      0.00
  -10    8    9      2.20      0.00
   -9    8    9      2.17      0.00
   -8    8    9     -0.52      0.00
   -7    8    9     -1.69      0.00
   -6    8    9     -1.31      0.00
   -5    8    9      6.12      0.00
   -4    8    9     -1.29      0.00
   -3    8    9      7.01      0.00
   -2    8    9     -3.12      0.00
   -1    8    9      0.71      0.00
    0    8    9     -0.05      0.00
    1    8    9     -8.09      0.00
    2    8    9     -3.64      0.00
    3    8    9     -0.39      0.00
    4    8    9     -2.96      0.00
    5    8    9      0.16      0.00
    6    8    9     -5.53      0.00
    7    8    9      3.36      0.00
    8    8    9     -2.99      0.00
    9    8    9      2.47      0.00
   10    8    9      0.58      0.00
   11    8    9     -1.70      0.00
   12    8    9      0.24      0.00
   13    8    9     -2.17      0.00
   14    8    9     -0.45      0.00
  -10    9    9      4.45      0.00
   -9    9    9      2.55      0.00
   -8    9    9      1.63      0.00
   -7    9    9      1.30      0.00
   -6    9    9     -0.03      0.00
   -5    9    9      0.84      0.00
   -4    9    9      0.73      0.00
   -3    9    9     -2.55      0.00
   -2    9    9      9.41      0.00
   -1    9    9    -11.43      0.00
    0    9    9      7.26      0.00
    1    9    9     -3.28      0.00
    2    9    9     -4.17      0.00
    3    9    9      2.84      0.00
    4    9    9     -5.83      0.00
    5    9    9      1.19      0.00
    6    9    9     -0.42      0.00
    7    9    9     -0.10      0.00
    8    9    9     -0.54      0.00
    9    9    9     -1.58      0.00
   10    9    9      1.90      0.00
   11    9    9      1.95      0.00
   12    9    9      0.56      0.00
   13    9    9      2.38      0.00
   14    9    9     -1.62      0.00
   -9   10    9      2.34      0.00
   -8   10    9      1.26      0.00
   -7   10    9     -1.27      0.00
   -6   10    9      1.75      0.00
   -5   10    9     -0.82      0.00
   -4   10    9     -1.12      0.00
   -3   10    9     -6.26      0.00
   -2   10    9      1.33      0.00
   -1   10    9      7.09      0.00
    0   10    9     -8.37      0.00
    1   10    9      9.93      0.00
    2   10    9     -9.57      0.00
    3   10    9      1.30      0.00
    4   10    9      0.57      0.00
    5   10    9     -8.12      0.00
    6   10    9      3.74      0.00
    7   10    9     -1.68      0.00
    8   10    9      5.00      0.00
    9   10    9      0.40      0.00
   10   10    9     -0.81      0.00
   11   10    9     -1.37      0.00
   12   10    9     -0.85      0.00
   13   10    9     -1.29      0.00
   14   10    9      2.17      0.00
   -9   11    9     -1.66      0.00
   -8   11    9      1.05      0.00
   -7   11    9      0.41      0.00
   -6   11    9     -0.47      0.00
   -5   11    9      1.35      0.00
   -4   11    9     -0.16      0.00
   -3   11    9      0.45      0.00
   -2   11    9     -5.53      0.00
   -1   11    9      3.38      0.00
    0   11    9      1.85      0.00
    1   11    9     -0.51      0.00
    2   11    9      3.33      0.00
    3   11    9    -10.42      0.00
    4   11    9      4.48      0.00
    5   11    9     -3.82      0.00
    6   11    9     -3.64      0.00
    7   11    9     -1.21      0.00
    8   11    9     -4.61      0.00
    9   11    9      5.47      0.00
   10   11    9      0.90      0.00
   11   11    9      0.55      0.00
   12   11    9      0.86      0.00
   13   11    9      0.71      0.00
   14   11    9     -0.07      0.00
   -8   12    9      0.10      0.00
   -7   12    9      1.89      0.00
   -6   12    9     -1.30      0.00
   -5   12    9      0.14      0.00
   -4   12    9     -0.30      0.00
   -3   12    9      1.21      0.00
   -2   12    9      0.95      0.00
   -1   12    9     -5.75      0.00
    0   12    9      0.91      0.00
    1   12    9     -0.98      0.00
    2   12    9      4.65      0.00
    3   12    9     -0.27      0.00
    4   12    9     -1.84      0.00
    5   12    9      1.23      0.00
    6   12    9     -4.10      0.00
    7   12    9      3.41      0.00
    8   12    9     -1.40      0.00
    9   12    9      1.30      0.00
   10   12    9      3.21      0.00
   11   12    9      1.75      0.00
   12   12    9      3.33      0.00
   13   12    9      2.55      0.00
   14   12    9      1.31      0.00
   -8   13    9     -0.04      0.00
   -7   13    9     -4.28      0.00
   -6   13    9     -3.54      0.00
   -5   13    9     -1.77      0.00
   -4   13    9      3.19      0.00
   -3   13    9      1.07      0.00
   -2   13    9      1.78      0.00
   -1   13    9      0.32      0.00
    0   13    9     -4.10      0.00
    1   13    9     -1.94      0.00
    2   13    9     -1.85      0.00
    3   13    9      5.09      0.00
    4   13    9      0.96      0.00
    5   13    9      4.75      0.00
    6   13    9     -3.36      0.00
    7   13    9      1.86      0.00
    8   13    9      4.68      0.00
    9   13    9     -1.07      0.00
   10   13    9      2.45      0.00
   11   13    9     -1.09      0.00
   12   13    9      1.26      0.00
   13   13    9      0.55      0.00
   -7   14    9      5.13      0.00
   -6   14    9     -0.26      0.00
   -5   14    9     -2.07      0.00
   -4   14    9     -1.12      0.00
   -3   14    9      2.42      0.00
   -2   14    9      1.59      0.00
   -1   14    9      0.58      0.00
    0   14    9      0.64      0.00
    1   14    9     -0.90      0.00
    2   14    9     -2.56      0.00
    3   14    9     -0.33      0.00
    4   14    9      3.40      0.00
    5   14    9     -1.44      0.00
    6   14    9      1.67      0.00
    7   14    9     -5.05      0.00
    8   14    9      2.20      0.00
    9   14    9     -0.05      0.00
   10   14    9      1.92      0.00
   11   14    9      1.67      0.00
   12   14    9     -1.94      0.00
   13   14    9      0.65      0.00
   -6   15    9      3.51      0.00
   -5   15    9      0.39      0.00
   -4   15    9     -3.62      0.00
   -3   15    9     -1.15      0.00
   -2   15    9     -0.07      0.00
   -1   15    9      0.95      0.00
    0   15    9     -2.16      0.00
    1   15    9      0.89      0.00
    2   15    9     -0.31      0.00
    3   15    9     -0.59      0.00
    4   15    9      1.81      0.00
    5   15    9      0.19      0.00
    6   15    9     -0.94      0.00
    7   15    9      2.79      0.00
    8   15    9     -0.26      0.00
    9   15    9      0.83      0.00
   10   15    9     -1.48      0.00
   11   15    9      1.62      0.00
   12   15    9      0.35      0.00
   -5   16    9     -0.02      0.00
   -4   16    9      0.87      0.00
   -3   16    9     -2.84      0.00
   -2   16    9     -0.57      0.00
   -1   16    9     -2.43      0.00
    0   16    9      1.47      0.00
    1   16    9     -1.74      0.00
    2   16    9      0.54      0.00
    3   16    9     -0.06      0.00
    4   16    9      1.33      0.00
    5   16    9      2.20      0.00
    6   16    9     -2.33      0.00
    7   16    9     -0.87      0.00
    8   16    9      0.93      0.00
    9   16    9      1.68      0.00
   10   16    9     -0.18      0.00
   11   16    9      0.13      0.00
   12   16    9     -1.68      0.00
   -4   17    9      0.84      0.00
   -3   17    9     -2.63      0.00
   -2   17    9     -2.75      0.00
   -1   17    9     -0.79      0.00
    0   17    9      0.43      0.00
    1   17    9      2.92      0.00
    2   17    9     -0.79      0.00
    3   17    9     -0.40      0.00
    4   17    9     -1.61      0.00
    5   17    9     -2.30      0.00
    6   17    9     -0.10      0.00
    7   17    9     -1.29      0.00
    8   17    9     -0.59      0.00
    9   17    9     -0.19      0.00
   10   17    9      3.35      0.00
   11   17    9     -1.35      0.00
   -3   18    9      0.96      0.00
   -2   18    9     -2.46      0.00
   -1   18    9     -0.17      0.00
    0   18    9      0.81      0.00
    1   18    9      0.92      0.00
    2   18    9     -0.26      0.00
    3   18    9      2.18      0.00
    4   18    9      4.34      0.00
    5   18    9     -0.60      0.00
    6   18    9      1.56      0.00
    7   18    9      2.77      0.00
    8   18    9      0.29      0.00
    9   18    9     -1.99      0.00
   10   18    9      1.29      0.00
   -1   19    9     -0.36      0.00
    0   19    9      1.03      0.00
    1   19    9      1.41      0.00
    2   19    9     -3.09      0.00
    3   19    9     -2.23      0.00
    4   19    9      2.90      0.00
    5   19    9      0.94      0.00
    6   19    9     -4.52      0.00
    7   19    9      1.92      0.00
    8   19    9     -0.23      0.00
    9   19    9      1.14      0.00
    1   20    9     -0.99      0.00
    2   20    9     -1.36      0.00
    3   20    9     -4.02      0.00
    4   20    9     -1.26      0.00
    5   20    9      0.43      0.00
    6   20    9     -1.98      0.00
    7   20    9     -1.08      0.00
   -4  -15   10      3.47      0.00
   -3  -15   10      1.92      0.00
   -2  -15   10      0.23      0.00
   -1  -15   10      2.69      0.00
    0  -15   10      1.45      0.00
   -6  -14   10      1.39      0.00
   -5  -14   10      1.05      0.00
   -4  -14   10     -1.53      0.00
   -3  -14   10      0.82      0.00
   -2  -14   10      1.88      0.00
   -1  -14   10     -0.62      0.00
    0  -14   10      2.32      0.00
    1  -14   10      0.70      0.00
    2  -14   10     -1.68      0.00
    3  -14   10     -1.08      0.00
   -8  -13   10     -4.16      0.00
   -7  -13   10     -1.39      0.00
   -6  -13   10     -0.39      0.00
   -5  -13   10      0.12      0.00
   -4  -13   10      0.05      0.00
   -3  -13   10     -1.10      0.00
   -2  -13   10     -2.35      0.00
   -1  -13   10     -1.81      0.00
    0  -13   10     -2.60      0.00
    1  -13   10      1.89      0.00
    2  -13   10      2.63      0.00
    3  -13   10     -3.33      0.00
    4  -13   10     -3.43      0.00
   -9  -12   10     -0.31      0.00
   -8  -12   10      1.47      0.00
   -7  -12   10     -0.78      0.00
   -6  -12   10     -0.98      0.00
   -5  -12   10      0.26      0.00
   -4  -12   10     -0.44      0.00
   -3  -12   10      0.24      0.00
   -2  -12   10     -1.43      0.00
   -1  -12   10     -0.20      0.00
    0  -12   10      1.53      0.00
    1  -12   10      1.08      0.00
    2  -12   10      2.31      0.00
    3  -12   10      3.83      0.00
    4  -12   10      0.68      0.00
    5  -12   10     -0.20      0.00
    6  -12   10      0.08      0.00
   -9  -11   10      0.53      0.00
   -8  -11   10     -1.73      0.00
   -7  -11   10      1.44      0.00
   -6  -11   10     -2.51      0.00
   -5  -11   10     -3.70      0.00
   -4  -11   10      2.20      0.00
   -3  -11   10     -0.32      0.00
   -2  -11   10      5.33      0.00
   -1  -11   10      1.39      0.00
    0  -11   10      0.16      0.00
    1  -11   10     -1.75      0.00
    2  -11   10     -1.85      0.00
    3  -11   10      0.62      0.00
    4  -11   10      4.32      0.00
    5  -11   10      3.31      0.00
    6  -11   10     -1.85      0.00
    7  -11   10     -1.89      0.00
  -10  -10   10     -1.91      0.00
   -9  -10   10      0.43      0.00
   -8  -10   10     -4.20      0.00
   -7  -10   10     -1.57      0.00
   -6  -10   10      3.41      0.00
   -5  -10   10     -1.83      0.00
   -4  -10   10     -0.50      0.00
   -3  -10   10      2.09      0.00
   -2  -10   10     -0.84      0.00
   -1  -10   10      5.76      0.00
    0  -10   10     -2.25      0.00
    1  -10   10     -1.25      0.00
    2  -10   10     -0.81      0.00
    3  -10   10      0.33      0.00
    4  -10   10      1.56      0.00
    5  -10   10      3.05      0.00
    6  -10   10      2.54      0.00
    7  -10   10     -3.14      0.00
    8  -10   10     -2.40      0.00
  -10   -9   10      1.66      0.00
   -9   -9   10     -2.16      0.00
   -8   -9   10      2.67      0.00
   -7   -9   10     -3.05      0.00
   -6   -9   10     -0.40      0.00
   -5   -9   10      2.42      0.00
   -4   -9   10      1.00      0.00
   -3   -9   10      2.83      0.00
   -2   -9   10     -2.56      0.00
   -1   -9   10     -0.11      0.00
    0   -9   10      5.57      0.00
    1   -9   10     -0.55      0.00
    2   -9   10      2.76      0.00
    3   -9   10     -0.31      0.00
    4   -9   10      1.40      0.00
    5   -9   10     -0.03      0.00
    6   -9   10     -0.21      0.00
    7   -9   10      1.49      0.00
    8   -9   10     -1.06      0.00
    9   -9   10     -1.09      0.00
  -11   -8   10      1.81      0.00
  -10   -8   10     -1.50      0.00
   -9   -8   10     -1.01      0.00
   -8   -8   10     -0.48      0.00
   -7   -8   10      1.20      0.00
   -6   -8   10     -4.90      0.00
   -5   -8   10     -2.10      0.00
   -4   -8   10      0.55      0.00
   -3   -8   10      5.09      0.00
   -2   -8   10      2.35      0.00
   -1   -8   10     -4.45      0.00
    0   -8   10      3.51      0.00
    1   -8   10      1.22      0.00
    2   -8   10      0.30      0.00
    3   -8   10      2.16      0.00
    4   -8   10     -2.03      0.00
    5   -8   10      5.09      0.00
    6   -8   10     -0.88      0.00
    7   -8   10     -2.36      0.00
    8   -8   10      0.91      0.00
    9   -8   10      0.42      0.00
  -11   -7   10     -1.71      0.00
  -10   -7   10      1.39      0.00
   -9   -7   10     -0.93      0.00
   -8   -7   10     -0.82      0.00
   -7   -7   10      0.68      0.00
   -6   -7   10     -0.38      0.00
   -5   -7   10      0.77      0.00
   -4   -7   10      0.76      0.00
   -3   -7   10     -3.66      0.00
   -2   -7   10      3.70      0.00
   -1   -7   10      0.72      0.00
    0   -7   10     -0.10      0.00
    1   -7   10      1.04      0.00
    2   -7   10     -6.97      0.00
    3   -7   10      3.93      0.00
    4   -7   10      1.44      0.00
    5   -7   10      0.26      0.00
    6   -7   10      5.00      0.00
    7   -7   10     -4.61      0.00
    8   -7   10     -1.96      0.00
    9   -7   10      0.41      0.00
   10   -7   10      1.05      0.00
  -12   -6   10     -0.32      0.00
  -11   -6   10      0.22      0.00
  -10   -6   10      1.22      0.00
   -9   -6   10      0.48      0.00
   -8   -6   10      1.83      0.00
   -7   -6   10      2.98      0.00
   -6   -6   10     -0.20      0.00
   -5   -6   10      0.11      0.00
   -4   -6   10      5.21      0.00
   -3   -6   10      0.42      0.00
   -2   -6   10     -5.02      0.00
   -1   -6   10      2.18      0.00
    0   -6   10     -2.40      0.00
    1   -6   10      4.68      0.00
    2   -6   10     -4.63      0.00
    3   -6   10     -6.41      0.00
    4   -6   10      7.48      0.00
    5   -6   10     -2.91      0.00
    6   -6   10     -0.20      0.00
    7   -6   10      0.05      0.00
    8   -6   10     -1.23      0.00
    9   -6   10      4.21      0.00
   10   -6   10      1.15      0.00
   11   -6   10      3.50      0.00
  -12   -5   10     -2.56      0.00
  -11   -5   10      0.88      0.00
  -10   -5   10      1.49      0.00
   -9   -5   10     -2.46      0.00
   -8   -5   10     -4.46      0.00
   -7   -5   10      4.93      0.00
   -6   -5   10      2.90      0.00
   -5   -5   10      1.77      0.00
   -4   -5   10      0.67      0.00
   -3   -5   10      4.59      0.00
   -2   -5   10      0.67      0.00
   -1   -5   10     -3.97      0.00
    0   -5   10     -2.73      0.00
    1   -5   10     -4.43      0.00
    2   -5   10      6.35      0.00
    3   -5   10     -6.85      0.00
    4   -5   10      0.02      0.00
    5   -5   10      1.63      0.00
    6   -5   10     -4.47      0.00
    7   -5   10      0.88      0.00
    8   -5   10     -3.10      0.00
    9   -5   10      2.33      0.00
   10   -5   10      2.06      0.00
   11   -5   10      0.58      0.00
  -12   -4   10      0.46      0.00
  -11   -4   10     -4.44      0.00
  -10   -4   10     -1.14      0.00
   -9   -4   10      2.64      0.00
   -8   -4   10     -1.85      0.00
   -7   -4   10     -2.88      0.00
   -6   -4   10      3.64      0.00
   -5   -4   10     -1.39      0.00
   -4   -4   10      6.48      0.00
   -3   -4   10     -5.24      0.00
   -2   -4   10     -0.07      0.00
   -1   -4   10     -1.53      0.00
    0   -4   10     -1.23      0.00
    1   -4   10     -3.05      0.00
    2   -4   10     -1.52      0.00
    3   -4   10      4.29      0.00
    4   -4   10     -4.06      0.00
    5   -4   10      2.29      0.00
    6   -4   10     -5.83      0.00
    7   -4   10      1.84      0.00
    8   -4   10      1.62      0.00
    9   -4   10     -3.24      0.00
   10   -4   10      3.25      0.00
   11   -4   10     -1.12      0.00
   12   -4   10      3.78      0.00
  -12   -3   10      3.84      0.00
  -11   -3   10      0.19      0.00
  -10   -3   10     -0.40      0.00
   -9   -3   10      1.39      0.00
   -8   -3   10      2.20      0.00
   -7   -3   10     -2.47      0.00
   -6   -3   10     -0.45      0.00
   -5   -3   10     -1.57      0.00
   -4   -3   10     -1.57      0.00
   -3   -3   10      3.20      0.00
   -2   -3   10    -10.63      0.00
   -1   -3   10      3.79      0.00
    0   -3   10     -2.39      0.00
    1   -3   10      1.88      0.00
    2   -3   10     -1.79      0.00
    3   -3   10      0.28      0.00
    4   -3   10      1.77      0.00
    5   -3   10      2.80      0.00
    6   -3   10      2.45      0.00
    7   -3   10     -6.30      0.00
    8   -3   10      4.72      0.00
    9   -3   10     -0.74      0.00
   10   -3   10      0.25      0.00
   11   -3   10      1.76      0.00
   12   -3   10     -3.19      0.00
  -12   -2   10      1.12      0.00
  -11   -2   10      2.59      0.00
  -10   -2   10      0.52      0.00
   -9   -2   10      0.27      0.00
   -8   -2   10      0.51      0.00
   -7   -2   10     -3.92      0.00
   -6   -2   10      1.73      0.00
   -5   -2   10      2.83      0.00
   -4   -2   10     -5.05      0.00
   -3   -2   10     -0.24      0.00
   -2   -2   10     -2.02      0.00
   -1   -2   10     -3.21      0.00
    0   -2   10      3.76      0.00
    1   -2   10     -7.05      0.00
    2   -2   10     -0.60      0.00
    3   -2   10     -4.19      0.00
    4   -2   10      1.95      0.00
    5   -2   10     -0.12      0.00
    6   -2   10      2.59      0.00
    7   -2   10     -0.05      0.00
    8   -2   10     -6.07      0.00
    9   -2   10      2.11      0.00
   10   -2   10     -1.85      0.00
   11   -2   10      1.08      0.00
   12   -2   10     -1.44      0.00
   13   -2   10     -3.07      0.00
  -12   -1   10      0.38      0.00
  -11   -1   10      0.41      0.00
  -10   -1   10      0.73      0.00
   -9   -1   10      0.36      0.00
   -8   -1   10      1.93      0.00
   -7   -1   10      1.27      0.00
   -6   -1   10     -6.74      0.00
   -5   -1   10      6.58      0.00
   -4   -1   10     -2.64      0.00
   -3   -1   10     -2.03      0.00
   -2   -1   10     -0.07      0.00
   -1   -1   10     -4.25      0.00
    0   -1   10      1.47      0.00
    1   -1   10     -0.78      0.00
    2   -1   10     -0.51      0.00
    3   -1   10     -1.49      0.00
    4   -1   10     -2.04      0.00
    5   -1   10      2.51      0.00
    6   -1   10     -0.86      0.00
    7   -1   10      3.09      0.00
    8   -1   10      3.33      0.00
    9   -1   10     -2.26      0.00
   10   -1   10      0.72      0.00
   11   -1   10     -1.83      0.00
   12   -1   10      0.96      0.00
   13   -1   10     -0.46      0.00
  -12    0   10      3.85      0.00
  -11    0   10      4.23      0.00
  -10    0   10      1.56      0.00
   -9    0   10      2.14      0.00
   -8    0   10     -1.91      0.00
   -7    0   10      2.80      0.00
   -6    0   10      0.87      0.00
   -5    0   10     -1.56      0.00
   -4    0   10      7.95      0.00
   -3    0   10     -8.25      0.00
   -2    0   10      3.76      0.00
   -1    0   10     -2.26      0.00
    0    0   10     -1.63      0.00
    1    0   10     -1.39      0.00
    2    0   10      1.04      0.00
    3    0   10      7.86      0.00
    4    0   10     -5.63      0.00
    5    0   10      1.39      0.00
    6    0   10      0.53      0.00
    7    0   10      1.56      0.00
    8    0   10      1.69      0.00
    9    0   10      0.26      0.00
   10    0   10     -2.39      0.00
   11    0   10     -1.99      0.00
   12    0   10     -1.53      0.00
   13    0   10      0.35      0.00
  -12    1   10     -3.81      0.00
  -11    1   10      3.79      0.00
  -10    1   10     -1.75      0.00
   -9    1   10     -0.93      0.00
   -8    1   10      1.83      0.00
   -7    1   10     -3.76      0.00
   -6    1   10      2.84      0.00
   -5    1   10     -0.47      0.00
   -4    1   10      6.18      0.00
   -3    1   10     -0.19      0.00
   -2    1   10     -6.41      0.00
   -1    1   10      6.28      0.00
    0    1   10     -6.73      0.00
    1    1   10     -0.32      0.00
    2    1   10     -4.99      0.00
    3    1   10      4.43      0.00
    4    1   10      4.27      0.00
    5    1   10     -6.85      0.00
    6    1   10     -0.39      0.00
    7    1   10     -4.44      0.00
    8    1   10      1.68      0.00
    9    1   10     -1.47      0.00
   10    1   10      2.23      0.00
   11    1   10      4.07      0.00
   12    1   10     -0.36      0.00
   13    1   10     -0.25      0.00
  -12    2   10     -2.32      0.00
  -11    2   10     -3.18      0.00
  -10    2   10     -0.17      0.00
   -9    2   10     -4.96      0.00
   -8    2   10      1.33      0.00
   -7    2   10     -0.22      0.00
   -6    2   10     -1.39      0.00
   -5    2   10      1.32      0.00
   -4    2   10     -3.37      0.00
   -3    2   10     11.40      0.00
   -2    2   10     -7.52      0.00
   -1    2   10      4.69      0.00
    0    2   10      3.30      0.00
    1    2   10     -2.74      0.00
    2    2   10      7.52      0.00
    3    2   10     -4.75      0.00
    4    2   10      1.65      0.00
    5    2   10     -1.67      0.00
    6    2   10      1.18      0.00
    7    2   10     -0.52      0.00
    8    2   10     -2.23      0.00
    9    2   10      1.79      0.00
   10    2   10     -0.12      0.00
   11    2   10      3.54      0.00
   12    2   10      1.91      0.00
   13    2   10     -1.72      0.00
   14    2   10     -1.20      0.00
  -12    3   10     -0.15      0.00
  -11    3   10     -1.55      0.00
  -10    3   10      1.86      0.00
   -9    3   10      0.73      0.00
   -8    3   10     -2.95      0.00
   -7    3   10      0.27      0.00
   -6    3   10     -1.54      0.00
   -5    3   10      1.71      0.00
   -4    3   10     -6.03      0.00
   -3    3   10     -6.05      0.00
   -2    3   10      8.67      0.00
   -1    3   10     -7.92      0.00
    0    3   10     19.91      0.00
    1    3   10     -4.80      0.00
    2    3   10      7.73      0.00
    3    3   10     11.27      0.00
    4    3   10     -5.76      0.00
    5    3   10      1.97      0.00
    6    3   10     -0.03      0.00
    7    3   10      7.38      0.00
    8    3   10     -0.43      0.00
    9    3   10     -0.70      0.00
   10    3   10     -4.18      0.00
   11    3   10     -1.31      0.00
   12    3   10      0.56      0.00
   13    3   10     -0.62      0.00
   14    3   10      1.03      0.00
  -11    4   10     -2.31      0.00
  -10    4   10      0.24      0.00
   -9    4   10      2.22      0.00
   -8    4   10     -0.39      0.00
   -7    4   10      0.70      0.00
   -6    4   10     -2.97      0.00
   -5    4   10     -1.13      0.00
   -4    4   10      2.51      0.00
   -3    4   10     -8.34      0.00
   -2    4   10     -3.35      0.00
   -1    4   10     -1.48      0.00
    0    4   10     -5.28      0.00
    1    4   10     21.93      0.00
    2    4   10     -8.97      0.00
    3    4   10     17.83      0.00
    4    4   10      3.70      0.00
    5    4   10     -1.99      0.00
    6    4   10      4.85      0.00
    7    4   10     -2.33      0.00
    8    4   10      5.75      0.00
    9    4   10     -1.88      0.00
   10    4   10     -1.02      0.00
   11    4   10     -3.04      0.00
   12    4   10      1.12      0.00
   13    4   10     -0.43      0.00
   14    4   10     -1.66      0.00
  -11    5   10      2.22      0.00
  -10    5   10      2.09      0.00
   -9    5   10      0.86      0.00
   -8    5   10      1.91      0.00
   -7    5   10     -1.45      0.00
   -6    5   10      5.17      0.00
   -5    5   10     -1.08      0.00
   -4    5   10      3.68      0.00
   -3    5   10      3.42      0.00
   -2    5   10     -2.62      0.00
   -1    5   10     -4.13      0.00
    0    5   10    -10.80      0.00
    1    5   10      1.57      0.00
    2    5   10      7.26      0.00
    3    5   10     -7.63      0.00
    4    5   10      9.30      0.00
    5    5   10     -9.28      0.00
    6    5   10      3.72      0.00
    7    5   10      1.77      0.00
    8    5   10     -3.35      0.00
    9    5   10      2.89      0.00
   10    5   10     -3.25      0.00
   11    5   10     -2.13      0.00
   12    5   10     -4.31      0.00
   13    5   10     -0.73      0.00
   14    5   10     -0.13      0.00
  -11    6   10      1.01      0.00
  -10    6   10      3.31      0.00
   -9    6   10      4.31      0.00
   -8    6   10      1.18      0.00
   -7    6   10      3.10      0.00
   -6    6   10     -0.10      0.00
   -5    6   10      5.64      0.00
   -4    6   10     -2.83      0.00
   -3    6   10      3.56      0.00
   -2    6   10      0.89      0.00
   -1    6   10      2.52      0.00
    0    6   10     -3.59      0.00
    1    6   10    -12.04      0.00
    2    6   10     -3.59      0.00
    3    6   10    -11.60      0.00
    4    6   10      0.77      0.00
    5    6   10     -2.55      0.00
    6    6   10     -7.43      0.00
    7    6   10      3.60      0.00
    8    6   10     -2.67      0.00
    9    6   10      2.19      0.00
   10    6   10      2.17      0.00
   11    6   10     -2.50      0.00
   12    6   10      0.09      0.00
   13    6   10     -1.48      0.00
   14    6   10      2.28      0.00
  -10    7   10      2.53      0.00
   -9    7   10     -0.87      0.00
   -8    7   10      2.73      0.00
   -7    7   10      4.13      0.00
   -6    7   10     -0.56      0.00
   -5    7   10     -0.93      0.00
   -4    7   10     -1.93      0.00
   -3    7   10     -1.85      0.00
   -2    7   10      2.39      0.00
   -1    7   10     -0.95      0.00
    0    7   10      3.93      0.00
    1    7   10     -0.66      0.00
    2    7   10     -1.67      0.00
    3    7   10     -4.65      0.00
    4    7   10     -9.37      0.00
    5    7   10      6.54      0.00
    6    7   10     -7.13      0.00
    7    7   10      1.45      0.00
    8    7   10     -0.55      0.00
    9    7   10     -0.71      0.00
   10    7   10      1.75      0.00
   11    7   10      0.73      0.00
   12    7   10      2.33      0.00
   13    7   10      2.68      0.00
   14    7   10      0.30      0.00
  -10    8   10     -2.64      0.00
   -9    8   10     -1.81      0.00
   -8    8   10     -4.16      0.00
   -7    8   10      0.46      0.00
   -6    8   10      0.77      0.00
   -5    8   10     -5.36      0.00
   -4    8   10      2.29      0.00
   -3    8   10     -9.63      0.00
   -2    8   10      5.24      0.00
   -1    8   10     -0.51      0.00
    0    8   10      0.64      0.00
    1    8   10      6.60      0.00
    2    8   10     -0.09      0.00
    3    8   10      3.06      0.00
    4    8   10     -4.28      0.00
    5    8   10      0.00      0.00
    6    8   10      4.22      0.00
    7    8   10     -1.06      0.00
    8    8   10      6.02      0.00
    9    8   10     -5.28      0.00
   10    8   10     -1.40      0.00
   11    8   10     -1.63      0.00
   12    8   10      0.20      0.00
   13    8   10      2.52      0.00
   14    8   10      1.12      0.00
  -10    9   10     -7.34      0.00
   -9    9   10     -2.75      0.00
   -8    9   10     -2.40      0.00
   -7    9   10     -0.08      0.00
   -6    9   10      0.32      0.00
   -5    9   10     -2.19      0.00
   -4    9   10     -1.12      0.00
   -3    9   10      4.79      0.00
   -2    9   10    -10.82      0.00
   -1    9   10      9.26      0.00
    0    9   10     -6.53      0.00
    1    9   10      4.69      0.00
    2    9   10      3.70      0.00
    3    9   10     -3.00      0.00
    4    9   10      5.92      0.00
    5    9   10     -2.50      0.00
    6    9   10      3.36      0.00
    7    9   10     -2.64      0.00
    8    9   10      0.61      0.00
    9    9   10      2.65      0.00
   10    9   10     -0.83      0.00
   11    9   10      0.76      0.00
   12    9   10     -1.08      0.00
   13    9   10     -2.86      0.00
   14    9   10      0.43      0.00
   -9   10   10     -2.68      0.00
   -8   10   10      0.46      0.00
   -7   10   10     -0.54      0.00
   -6   10   10      1.01      0.00
   -5   10   10     -0.48      0.00
   -4   10   10     -1.39      0.00
   -3   10   10      4.54      0.00
   -2   10   10      1.77      0.00
   -1   10   10     -5.55      0.00
    0   10   10      5.49      0.00
    1   10   10     -8.75      0.00
    2   10   10     10.38      0.00
    3   10   10      2.11      0.00
    4   10   10     -2.19      0.00
    5   10   10      3.70      0.00
    6   10   10     -4.14      0.00
    7   10   10      3.94      0.00
    8   10   10     -5.23      0.00
    9   10   10      0.19      0.00
   10   10   10     -0.96      0.00
   11   10   10      1.99      0.00
   12   10   10      0.41      0.00
   13   10   10     -0.18      0.00
   14   10   10     -4.10      0.00
   -9   11   10      0.76      0.00
   -8   11   10     -2.55      0.00
   -7   11   10     -1.67      0.00
   -6   11   10     -0.66      0.00
   -5   11   10      2.06      0.00
   -4   11   10      0.25      0.00
   -3   11   10     -1.90      0.00
   -2   11   10      2.30      0.00
   -1   11   10     -0.81      0.00
    0   11   10      0.81      0.00
    1   11   10     -2.09      0.00
    2   11   10     -5.12      0.00
    3   11   10      6.54      0.00
    4   11   10      1.06      0.00
    5   11   10      5.12      0.00
    6   11   10      2.72      0.00
    7   11   10     -0.67      0.00
    8   11   10      3.85      0.00
    9   11   10     -5.54      0.00
   10   11   10     -0.88      0.00
   11   11   10     -1.39      0.00
   12   11   10      1.66      0.00
   13   11   10      0.53      0.00
   14   11   10      1.31      0.00
   -8   12   10     -0.55      0.00
   -7   12   10     -0.33      0.00
   -6   12   10      0.48      0.00
   -5   12   10     -1.38      0.00
   -4   12   10      0.61      0.00
   -3   12   10     -2.41      0.00
   -2   12   10     -1.27      0.00
   -1   12   10      2.03      0.00
    0   12   10      1.74      0.00
    1   12   10      4.09      0.00
    2   12   10     -4.42      0.00
    3   12   10      0.46      0.00
    4   12   10     -1.47      0.00
    5   12   10      0.96      0.00
    6   12   10      4.59      0.00
    7   12   10     -2.24      0.00
    8   12   10      1.76      0.00
    9   12   10      0.23      0.00
   10   12   10     -0.63      0.00
   11   12   10     -1.33      0.00
   12   12   10     -3.66      0.00
   13   12   10     -2.76      0.00
   -7   13   10      1.07      0.00
   -6   13   10      2.36      0.00
   -5   13   10      1.44      0.00
   -4   13   10     -1.23      0.00
   -3   13   10     -0.98      0.00
   -2   13   10     -2.32      0.00
   -1   13   10      1.57      0.00
    0   13   10      1.52      0.00
    1   13   10      3.97      0.00
    2   13   10      2.17      0.00
    3   13   10     -3.43      0.00
    4   13   10     -0.60      0.00
    5   13   10     -7.23      0.00
    6   13   10      3.51      0.00
    7   13   10      1.39      0.00
    8   13   10     -2.35      0.00
    9   13   10     -0.34      0.00
   10   13   10     -5.62      0.00
   11   13   10      1.66      0.00
   12   13   10     -2.59      0.00
   13   13   10     -3.21      0.00
   -7   14   10     -5.10      0.00
   -6   14   10      1.39      0.00
   -5   14   10      3.75      0.00
   -4   14   10      2.46      0.00
   -3   14   10      0.55      0.00
   -2   14   10     -3.70      0.00
   -1   14   10     -1.64      0.00
    0   14   10      0.23      0.00
    1   14   10     -0.67      0.00
    2   14   10      5.79      0.00
    3   14   10      0.21      0.00
    4   14   10     -0.74      0.00
    5   14   10      1.65      0.00
    6   14   10     -3.18      0.00
    7   14   10      2.11      0.00
    8   14   10     -3.30      0.00
    9   14   10      0.34      0.00
   10   14   10     -1.20      0.00
   11   14   10     -1.61      0.00
   12   14   10      3.38      0.00
   13   14   10     -0.69      0.00
   -6   15   10     -3.22      0.00
   -5   15   10     -0.63      0.00
   -4   15   10      1.16      0.00
   -3   15   10      2.52      0.00
   -2   15   10      2.49      0.00
   -1   15   10     -2.34      0.00
    0   15   10      2.08      0.00
    1   15   10     -2.35      0.00
    2   15   10     -2.02      0.00
    3   15   10      1.17      0.00
    4   15   10     -3.80      0.00
    5   15   10     -0.16      0.00
    6   15   10      2.61      0.00
    7   15   10     -0.76      0.00
    8   15   10      0.11      0.00
    9   15   10     -0.95      0.00
   10   15   10      3.75      0.00
   11   15   10     -0.63      0.00
   12   15   10      0.78      0.00
   -5   16   10      0.04      0.00
   -4   16   10     -0.97      0.00
   -3   16   10     -0.22      0.00
   -2   16   10      1.11      0.00
   -1   16   10      2.70      0.00
    0   16   10     -0.37      0.00
    1   16   10      2.68      0.00
    2   16   10     -2.62      0.00
    3   16   10     -0.32      0.00
    4   16   10     -0.02      0.00
    5   16   10     -0.83      0.00
    6   16   10      1.43      0.00
    7   16   10      1.54      0.00
    8   16   10     -0.27      0.00
    9   16   10     -2.33      0.00
   10   16   10     -2.63      0.00
   11   16   10      0.24      0.00
   12   16   10      1.61      0.00
   -4   17   10     -0.72      0.00
   -3   17   10      0.56      0.00
   -2   17   10      2.46      0.00
   -1   17   10      3.30      0.00
    0   17   10      1.64      0.00
    1   17   10      0.44      0.00
    2   17   10      1.50      0.00
    3   17   10     -1.31      0.00
    4   17   10     -0.78      0.00
    5   17   10     -0.36      0.00
    6   17   10     -0.51      0.00
    7   17   10      0.85      0.00
    8   17   10      1.52      0.00
    9   17   10      1.26      0.00
   10   17   10     -4.81      0.00
   11   17   10     -2.00      0.00
   -2   18   10      3.07      0.00
   -1   18   10      2.15      0.00
    0   18   10     -0.74      0.00
    1   18   10     -3.03      0.00
    2   18   10      0.50      0.00
    3   18   10     -1.89      0.00
    4   18   10     -4.21      0.00
    5   18   10     -0.26      0.00
    6   18   10      0.57      0.00
    7   18   10     -0.35      0.00
    8   18   10      0.79      0.00
    9   18   10     -0.15      0.00
   10   18   10      0.19      0.00
   -1   19   10      0.25      0.00
    0   19   10      0.56      0.00
    1   19   10     -2.01      0.00
    2   19   10      1.34      0.00
    3   19   10      2.90      0.00
    4   19   10     -1.43      0.00
    5   19   10     -0.87      0.00
    6   19   10      3.02      0.00
    7   19   10     -2.60      0.00
    8   19   10     -0.54      0.00
    2   20   10     -1.23      0.00
    3   20   10      1.57      0.00
    4   20   10      0.00      0.00
    5   20   10     -0.83      0.00
    6   20   10      1.64      0.00
   -4  -14   11      0.84      0.00
   -3  -14   11      0.49      0.00
   -2  -14   11     -2.22      0.00
   -1  -14   11      1.22      0.00
    0  -14   11     -2.58      0.00
    1  -14   11     -2.42      0.00
   -6  -13   11     -0.63      0.00
   -5  -13   11     -1.32      0.00
   -4  -13   11     -1.26      0.00
   -3  -13   11      3.31      0.00
   -2  -13   11      3.31      0.00
   -1  -13   11     -0.18      0.00
    0  -13   11      2.87      0.00
    1  -13   11      0.25      0.00
    2  -13   11     -0.15      0.00
    3  -13   11      4.98      0.00
   -8  -12   11      0.93      0.00
   -7  -12   11      3.75      0.00
   -6  -12   11      3.43      0.00
   -5  -12   11     -1.13      0.00
   -4  -12   11     -0.37      0.00
   -3  -12   11     -1.83      0.00
   -2  -12   11     -0.48      0.00
   -1  -12   11     -0.08      0.00
    0  -12   11     -0.59      0.00
    1  -12   11     -0.04      0.00
    2  -12   11     -2.65      0.00
    3  -12   11     -4.90      0.00
    4  -12   11     -1.07      0.00
    5  -12   11     -0.42      0.00
   -9  -11   11     -0.04      0.00
   -8  -11   11      2.62      0.00
   -7  -11   11     -3.16      0.00
   -6  -11   11     -1.85      0.00
   -5  -11   11      3.68      0.00
   -4  -11   11     -0.80      0.00
   -3  -11   11      1.61      0.00
   -2  -11   11     -5.61      0.00
   -1  -11   11     -2.48      0.00
    0  -11   11     -0.67      0.00
    1  -11   11      0.59      0.00
    2  -11   11     -1.85      0.00
    3  -11   11     -2.51      0.00
    4  -11   11     -5.89      0.00
    5  -11   11     -3.68      0.00
    6  -11   11      0.24      0.00
   -9  -10   11     -3.66      0.00
   -8  -10   11      1.19      0.00
   -7  -10   11      3.40      0.00
   -6  -10   11     -1.69      0.00
   -5  -10   11      0.02      0.00
   -4  -10   11      1.72      0.00
   -3  -10   11      0.40      0.00
   -2  -10   11      1.47      0.00
   -1  -10   11     -6.40      0.00
    0  -10   11     -0.62      0.00
    1  -10   11      0.28      0.00
    2  -10   11      3.71      0.00
    3  -10   11      0.77      0.00
    4  -10   11     -0.01      0.00
    5  -10   11     -3.00      0.00
    6  -10   11     -1.41      0.00
    7  -10   11      4.26      0.00
  -10   -9   11      0.88      0.00
   -9   -9   11      4.72      0.00
   -8   -9   11     -1.42      0.00
   -7   -9   11      4.16      0.00
   -6   -9   11      4.27      0.00
   -5   -9   11     -0.60      0.00
   -4   -9   11     -4.41      0.00
   -3   -9   11     -5.25      0.00
   -2   -9   11      1.99      0.00
   -1   -9   11     -0.67      0.00
    0   -9   11     -2.34      0.00
    1   -9   11     -0.10      0.00
    2   -9   11     -1.93      0.00
    3   -9   11      2.11      0.00
    4   -9   11     -0.35      0.00
    5   -9   11      0.01      0.00
    6   -9   11     -0.71      0.00
    7   -9   11     -1.23      0.00
    8   -9   11      1.84      0.00
  -10   -8   11      0.38      0.00
   -9   -8   11      1.34      0.00
   -8   -8   11      3.10      0.00
   -7   -8   11     -1.56      0.00
   -6   -8   11      0.99      0.00
   -5   -8   11      1.19      0.00
   -4   -8   11      3.22      0.00
   -3   -8   11     -5.35      0.00
   -2   -8   11     -2.74      0.00
   -1   -8   11      2.32      0.00
    0   -8   11     -3.15      0.00
    1   -8   11      3.03      0.00
    2   -8   11     -2.12      0.00
    3   -8   11     -2.17      0.00
    4   -8   11      1.09      0.00
    5   -8   11     -5.07      0.00
    6   -8   11      0.07      0.00
    7   -8   11      1.48      0.00
    8   -8   11     -0.13      0.00
    9   -8   11      0.28      0.00
  -11   -7   11      1.27      0.00
  -10   -7   11     -3.98      0.00
   -9   -7   11     -1.29      0.00
   -8   -7   11      0.80      0.00
   -7   -7   11     -0.25      0.00
   -6   -7   11      2.05      0.00
   -5   -7   11     -0.50      0.00
   -4   -7   11     -0.93      0.00
   -3   -7   11      4.51      0.00
   -2   -7   11     -4.89      0.00
   -1   -7   11      2.45      0.00
    0   -7   11     -1.60      0.00
    1   -7   11     -3.16      0.00
    2   -7   11      6.34      0.00
    3   -7   11     -3.58      0.00
    4   -7   11     -0.77      0.00
    5   -7   11     -0.45      0.00
    6   -7   11     -5.26      0.00
    7   -7   11      3.49      0.00
    8   -7   11      1.94      0.00
    9   -7   11      1.21      0.00
   10   -7   11     -0.53      0.00
  -11   -6   11     -3.93      0.00
  -10   -6   11     -0.46      0.00
   -9   -6   11      0.89      0.00
   -8   -6   11      0.04      0.00
   -7   -6   11     -2.66      0.00
   -6   -6   11     -2.57      0.00
   -5   -6   11      2.87      0.00
   -4   -6   11     -3.94      0.00
   -3   -6   11     -2.04      0.00
   -2   -6   11      1.50      0.00
   -1   -6   11     -1.03      0.00
    0   -6   11      5.36      0.00
    1   -6   11     -7.51      0.00
    2   -6   11      1.44      0.00
    3   -6   11      6.10      0.00
    4   -6   11     -3.62      0.00
    5   -6   11      2.04      0.00
    6   -6   11     -1.11      0.00
    7   -6   11     -0.61      0.00
    8   -6   11      0.98      0.00
    9   -6   11     -3.34      0.00
   10   -6   11     -1.37      0.00
  -11   -5   11      2.49      0.00
  -10   -5   11     -1.99      0.00
   -9   -5   11     -0.45      0.00
   -8   -5   11      2.32      0.00
   -7   -5   11     -0.66      0.00
   -6   -5   11     -2.14      0.00
   -5   -5   11     -4.98      0.00
   -4   -5   11     -0.69      0.00
   -3   -5   11     -1.72      0.00
   -2   -5   11      0.85      0.00
   -1   -5   11     -0.03      0.00
    0   -5   11      3.63      0.00
    1   -5   11      4.96      0.00
    2   -5   11     -4.42      0.00
    3   -5   11      6.83      0.00
    4   -5   11      1.22      0.00
    5   -5   11      0.18      0.00
    6   -5   11      2.98      0.00
    7   -5   11     -1.62      0.00
    8   -5   11      2.93      0.00
    9   -5   11     -2.30      0.00
   10   -5   11     -0.70      0.00
   11   -5   11      0.04      0.00
  -11   -4   11      4.60      0.00
  -10   -4   11      0.91      0.00
   -9   -4   11     -1.56      0.00
   -8   -4   11     -0.11      0.00
   -7   -4   11      1.30      0.00
   -6   -4   11     -0.18      0.00
   -5   -4   11      0.67      0.00
   -4   -4   11     -7.21      0.00
   -3   -4   11      0.31      0.00
   -2   -4   11      3.19      0.00
   -1   -4   11      0.76      0.00
    0   -4   11     -0.68      0.00
    1   -4   11      3.37      0.00
    2   -4   11     -0.35      0.00
    3   -4   11      1.30      0.00
    4   -4   11      2.66      0.00
    5   -4   11     -4.02      0.00
    6   -4   11      4.63      0.00
    7   -4   11     -0.03      0.00
    8   -4   11     -0.73      0.00
    9   -4   11      2.64      0.00
   10   -4   11     -3.42      0.00
   11   -4   11      2.04      0.00
  -12   -3   11     -3.17      0.00
  -11   -3   11     -4.28      0.00
  -10   -3   11      0.07      0.00
   -9   -3   11      0.19      0.00
   -8   -3   11      2.77      0.00
   -7   -3   11     -0.36      0.00
   -6   -3   11     -2.55      0.00
   -5   -3   11      0.53      0.00
   -4   -3   11      3.70      0.00
   -3   -3   11     -1.61      0.00
   -2   -3   11      3.17      0.00
   -1   -3   11      1.93      0.00
    0   -3   11      0.04      0.00
    1   -3   11      0.88      0.00
    2   -3   11      0.77      0.00
    3   -3   11     -2.67      0.00
    4   -3   11      2.87      0.00
    5   -3   11     -5.65      0.00
    6   -3   11     -2.85      0.00
    7   -3   11      3.81      0.00
    8   -3   11     -2.72      0.00
    9   -3   11      0.16      0.00
   10   -3   11     -1.11      0.00
   11   -3   11     -3.19      0.00
   12   -3   11      2.73      0.00
  -12   -2   11     -1.94      0.00
  -11   -2   11     -0.91      0.00
  -10   -2   11      0.18      0.00
   -9   -2   11     -1.69      0.00
   -8   -2   11     -3.56      0.00
   -7   -2   11      5.31      0.00
   -6   -2   11     -0.78      0.00
   -5   -2   11      0.27      0.00
   -4   -2   11      0.37      0.00
   -3   -2   11      2.95      0.00
   -2   -2   11      4.92      0.00
   -1   -2   11      2.62      0.00
    0   -2   11      1.13      0.00
    1   -2   11     -1.92      0.00
    2   -2   11      3.94      0.00
    3   -2   11      1.32      0.00
    4   -2   11     -1.81      0.00
    5   -2   11      1.34      0.00
    6   -2   11     -5.33      0.00
    7   -2   11     -0.03      0.00
    8   -2   11      0.62      0.00
    9   -2   11      1.22      0.00
   10   -2   11      3.14      0.00
   11   -2   11      1.79      0.00
   12   -2   11     -0.22      0.00
  -12   -1   11      0.57      0.00
  -11   -1   11     -1.39      0.00
  -10   -1   11     -2.62      0.00
   -9   -1   11     -0.01      0.00
   -8   -1   11     -2.16      0.00
   -7   -1   11     -2.49      0.00
   -6   -1   11      5.76      0.00
   -5   -1   11     -4.59      0.00
   -4   -1   11      5.72      0.00
   -3   -1   11     -2.12      0.00
   -2   -1   11      4.34      0.00
   -1   -1   11      2.98      0.00
    0   -1   11     -0.75      0.00
    1   -1   11      2.16      0.00
    2   -1   11     -5.94      0.00
    3   -1   11      7.42      0.00
    4   -1   11      1.81      0.00
    5   -1   11      1.47      0.00
    6   -1   11      0.40      0.00
    7   -1   11     -0.17      0.00
    8   -1   11     -0.49      0.00
    9   -1   11     -1.38      0.00
   10   -1   11      2.09      0.00
   11   -1   11      1.40      0.00
   12   -1   11      3.10      0.00
   13   -1   11      0.50      0.00
  -12    0   11     -0.86      0.00
  -11    0   11     -3.40      0.00
  -10    0   11     -1.88      0.00
   -9    0   11     -1.37      0.00
   -8    0   11      3.98      0.00
   -7    0   11     -1.73      0.00
   -6    0   11     -0.95      0.00
   -5    0   11     -2.10      0.00
   -4    0   11     -5.56      0.00
   -3    0   11     10.35      0.00
   -2    0   11     -6.80      0.00
   -1    0   11      3.93      0.00
    0    0   11     -2.87      0.00
    1    0   11      5.12      0.00
    2    0   11      1.61      0.00
    3    0   11     -8.96      0.00
    4    0   11      5.97      0.00
    5    0   11     -2.09      0.00
    6    0   11      4.92      0.00
    7    0   11     -2.84      0.00
    8    0   11     -0.25      0.00
    9    0   11     -3.33      0.00
   10    0   11     -1.61      0.00
   11    0   11      0.50      0.00
   12    0   11     -0.69      0.00
   13    0   11      1.31      0.00
  -11    1   11     -0.83      0.00
  -10    1   11      2.36      0.00
   -9    1   11      0.83      0.00
   -8    1   11     -3.61      0.00
   -7    1   11     -0.22      0.00
   -6    1   11     -3.98      0.00
   -5    1   11      2.30      0.00
   -4    1   11     -8.37      0.00
   -3    1   11     -1.64      0.00
   -2    1   11      4.83      0.00
   -1    1   11     -4.53      0.00
    0    1   11      7.16      0.00
    1    1   11     -6.48      0.00
    2    1   11      5.21      0.00
    3    1   11     -4.28      0.00
    4    1   11     -5.25      0.00
    5    1   11      1.16      0.00
    6    1   11     -1.91      0.00
    7    1   11      6.39      0.00
    8    1   11     -3.11      0.00
    9    1   11      3.14      0.00
   10    1   11     -1.48      0.00
   11    1   11     -0.65      0.00
   12    1   11     -0.15      0.00
   13    1   11     -1.85      0.00
  -11    2   11      3.06      0.00
  -10    2   11     -0.05      0.00
   -9    2   11      1.79      0.00
   -8    2   11      0.72      0.00
   -7    2   11      0.43      0.00
   -6    2   11     -1.95      0.00
   -5    2   11     -0.07      0.00
   -4    2   11      5.54      0.00
   -3    2   11     -8.35      0.00
   -2    2   11      6.15      0.00
   -1    2   11     -5.21      0.00
    0    2   11      1.27      0.00
    1    2   11      4.72      0.00
    2    2   11     -7.71      0.00
    3    2   11      3.30      0.00
    4    2   11     -0.77      0.00
    5    2   11      3.15      0.00
    6    2   11     -4.36      0.00
    7    2   11     -0.28      0.00
    8    2   11      3.10      0.00
    9    2   11      1.01      0.00
   10    2   11      3.31      0.00
   11    2   11     -1.88      0.00
   12    2   11     -1.34      0.00
   13    2   11      0.71      0.00
  -11    3   11      2.79      0.00
  -10    3   11      0.42      0.00
   -9    3   11      1.75      0.00
   -8    3   11      0.25      0.00
   -7    3   11      4.09      0.00
   -6    3   11      4.26      0.00
   -5    3   11     -2.87      0.00
   -4    3   11      3.25      0.00
   -3    3   11      2.87      0.00
   -2    3   11     -3.31      0.00
   -1    3   11      6.54      0.00
    0    3   11    -14.82      0.00
    1    3   11      5.66      0.00
    2    3   11     -4.40      0.00
    3    3   11     -7.04      0.00
    4    3   11      1.33      0.00
    5    3   11     -0.50      0.00
    6    3   11      1.61      0.00
    7    3   11     -7.79      0.00
    8    3   11     -2.41      0.00
    9    3   11     -1.87      0.00
   10    3   11      4.09      0.00
   11    3   11     -0.33      0.00
   12    3   11     -0.46      0.00
   13    3   11      0.82      0.00
   14    3   11      1.01      0.00
  -11    4   11      0.47      0.00
  -10    4   11      0.13      0.00
   -9    4   11     -1.48      0.00
   -8    4   11      0.28      0.00
   -7    4   11     -4.17      0.00
   -6    4   11      3.43      0.00
   -5    4   11     -1.55      0.00
   -4    4   11     -0.71      0.00
   -3    4   11      4.85      0.00
   -2    4   11      0.96      0.00
   -1    4   11      7.63      0.00
    0    4   11      1.95      0.00
    1    4   11    -15.66      0.00
    2    4   11      1.84      0.00
    3    4   11    -12.85      0.00
    4    4   11     -0.74      0.00
    5    4   11     -0.31      0.00
    6    4   11     -2.71      0.00
    7    4   11      1.33      0.00
    8    4   11     -3.49      0.00
    9    4   11     -1.01      0.00
   10    4   11     -1.28      0.00
   11    4   11      2.94      0.00
   12    4   11      0.65      0.00
   13    4   11      1.75      0.00
   14    4   11      2.25      0.00
  -11    5   11     -1.20      0.00
  -10    5   11     -1.75      0.00
   -9    5   11     -2.07      0.00
   -8    5   11      0.10      0.00
   -7    5   11      2.08      0.00
   -6    5   11     -4.93      0.00
   -5    5   11      1.79      0.00
   -4    5   11     -3.23      0.00
   -3    5   11      5.09      0.00
   -2    5   11     -0.74      0.00
   -1    5   11      0.29      0.00
    0    5   11      8.19      0.00
    1    5   11     -3.74      0.00
    2    5   11     -0.37      0.00
    3    5   11     -2.63      0.00
    4    5   11     -7.08      0.00
    5    5   11      5.70      0.00
    6    5   11     -2.45      0.00
    7    5   11      0.27      0.00
    8    5   11      2.26      0.00
    9    5   11     -0.91      0.00
   10    5   11      0.83      0.00
   11    5   11      2.41      0.00
   12    5   11      2.60      0.00
   13    5   11      2.50      0.00
   14    5   11     -0.59      0.00
  -10    6   11     -2.16      0.00
   -9    6   11     -3.30      0.00
   -8    6   11     -3.80      0.00
   -7    6   11     -2.69      0.00
   -6    6   11      0.20      0.00
   -5    6   11     -2.13      0.00
   -4    6   11      0.77      0.00
   -3    6   11     -5.88      0.00
   -2    6   11      0.98      0.00
   -1    6   11     -7.75      0.00
    0    6   11      4.81      0.00
    1    6   11      5.36      0.00
    2    6   11      1.85      0.00
    3    6   11     13.79      0.00
    4    6   11     -6.97      0.00
    5    6   11      2.88      0.00
    6    6   11      2.69      0.00
    7    6   11      0.54      0.00
    8    6   11      2.81      0.00
    9    6   11     -2.05      0.00
   10    6   11      0.16      0.00
   11    6   11      1.74      0.00
   12    6   11      1.94      0.00
   13    6   11      1.28      0.00
   14    6   11      0.15      0.00
  -10    7   11     -4.26      0.00
   -9    7   11      1.89      0.00
   -8    7   11     -1.50      0.00
   -7    7   11     -3.92      0.00
   -6    7   11     -0.90      0.00
   -5    7   11     -2.47      0.00
   -4    7   11      1.58      0.00
   -3    7   11     -0.37      0.00
   -2    7   11     -2.37      0.00
   -1    7   11      1.70      0.00
    0    7   11     -2.04      0.00
    1    7   11      6.72      0.00
    2    7   11     -1.44      0.00
    3    7   11      7.68      0.00
    4    7   11     10.71      0.00
    5    7   11     -4.99      0.00
    6    7   11      7.88      0.00
    7    7   11     -5.43      0.00
    8    7   11      2.73      0.00
    9    7   11      1.02      0.00
   10    7   11      0.04      0.00
   11    7   11      0.64      0.00
   12    7   11     -2.51      0.00
   13    7   11     -2.61      0.00
   14    7   11     -1.56      0.00
  -10    8   11      3.35      0.00
   -9    8   11      0.29      0.00
   -8    8   11      6.59      0.00
   -7    8   11     -0.91      0.00
   -6    8   11     -0.67      0.00
   -5    8   11      2.40      0.00
   -4    8   11     -3.68      0.00
   -3    8   11      8.13      0.00
   -2    8   11     -1.38      0.00
   -1    8   11      3.48      0.00
    0    8   11     -2.05      0.00
    1    8   11     -3.82      0.00
    2    8   11      1.18      0.00
    3    8   11     -4.04      0.00
    4    8   11      6.10      0.00
    5    8   11     -0.54      0.00
    6    8   11     -1.66      0.00
    7    8   11      1.67      0.00
    8    8   11     -7.62      0.00
    9    8   11      3.79      0.00
   10    8   11     -1.45      0.00
   11    8   11      2.31      0.00
   12    8   11     -0.94      0.00
   13    8   11     -3.46      0.00
   14    8   11     -2.00      0.00
   -9    9   11      0.94      0.00
   -8    9   11      1.46      0.00
   -7    9   11      0.32      0.00
   -6    9   11     -1.51      0.00
   -5    9   11      4.55      0.00
   -4    9   11      3.88      0.00
   -3    9   11     -2.41      0.00
   -2    9   11      6.03      0.00
   -1    9   11     -5.79      0.00
    0    9   11      5.05      0.00
    1    9   11     -5.87      0.00
    2    9   11     -4.56      0.00
    3    9   11      0.19      0.00
    4    9   11      0.55      0.00
    5    9   11      4.24      0.00
    6    9   11     -4.11      0.00
    7    9   11      2.49      0.00
    8    9   11     -0.90      0.00
    9    9   11     -2.47      0.00
   10    9   11      1.95      0.00
   11    9   11     -1.11      0.00
   12    9   11      2.91      0.00
   13    9   11      4.56      0.00
   14    9   11      2.75      0.00
   -9   10   11      5.50      0.00
   -8   10   11     -0.10      0.00
   -7   10   11      3.91      0.00
   -6   10   11     -2.27      0.00
   -5   10   11      0.69      0.00
   -4   10   11      2.12      0.00
   -3   10   11      0.09      0.00
   -2   10   11     -0.16      0.00
   -1   10   11     -0.61      0.00
    0   10   11     -2.49      0.00
    1   10   11      7.10      0.00
    2   10   11     -3.47      0.00
    3   10   11     -2.90      0.00
    4   10   11     -2.03      0.00
    5   10   11     -0.24      0.00
    6   10   11      4.26      0.00
    7   10   11     -1.48      0.00
    8   10   11      3.47      0.00
    9   10   11     -0.06      0.00
   10   10   11      2.38      0.00
   11   10   11     -1.20      0.00
   12   10   11     -1.67      0.00
   13   10   11     -1.00      0.00
   14   10   11      4.03      0.00
   -8   11   11      2.02      0.00
   -7   11   11     -1.30      0.00
   -6   11   11      2.06      0.00
   -5   11   11     -3.25      0.00
   -4   11   11      0.78      0.00
   -3   11   11     -0.85      0.00
   -2   11   11      0.97      0.00
   -1   11   11      2.19      0.00
    0   11   11     -4.25      0.00
    1   11   11      1.55      0.00
    2   11   11      1.44      0.00
    3   11   11     -0.20      0.00
    4   11   11     -3.51      0.00
    5   11   11     -4.75      0.00
    6   11   11     -1.95      0.00
    7   11   11      1.40      0.00
    8   11   11     -1.78      0.00
    9   11   11      1.87      0.00
   10   11   11     -1.20      0.00
   11   11   11      0.85      0.00
   12   11   11     -3.36      0.00
   13   11   11     -2.02      0.00
   -8   12   11      0.64      0.00
   -7   12   11      1.49      0.00
   -6   12   11      1.18      0.00
   -5   12   11      0.97      0.00
   -4   12   11     -2.02      0.00
   -3   12   11      2.29      0.00
   -2   12   11     -1.08      0.00
   -1   12   11      1.13      0.00
    0   12   11     -0.07      0.00
    1   12   11     -4.13      0.00
    2   12   11      3.65      0.00
    3   12   11     -2.52      0.00
    4   12   11      6.09      0.00
    5   12   11     -1.57      0.00
    6   12   11     -4.91      0.00
    7   12   11     -2.97      0.00
    8   12   11     -0.99      0.00
    9   12   11      2.80      0.00
   10   12   11      1.69      0.00
   11   12   11      1.19      0.00
   12   12   11      3.26      0.00
   13   12   11      3.37      0.00
   -7   13   11      1.47      0.00
   -6   13   11     -1.79      0.00
   -5   13   11     -1.61      0.00
   -4   13   11     -2.18      0.00
   -3   13   11      1.19      0.00
   -2   13   11      4.30      0.00
   -1   13   11     -1.05      0.00
    0   13   11     -0.39      0.00
    1   13   11     -4.71      0.00
    2   13   11     -2.88      0.00
    3   13   11      1.61      0.00
    4   13   11     -3.08      0.00
    5   13   11      6.19      0.00
    6   13   11     -0.64      0.00
    7   13   11      1.23      0.00
    8   13   11      0.80      0.00
    9   13   11     -0.13      0.00
   10   13   11      6.24      0.00
   11   13   11     -2.05      0.00
   12   13   11      2.83      0.00
   13   13   11      3.18      0.00
   -6   14   11     -3.35      0.00
   -5   14   11     -2.65      0.00
   -4   14   11     -0.46      0.00
   -3   14   11     -2.62      0.00
   -2   14   11      2.98      0.00
   -1   14   11      0.73      0.00
    0   14   11     -0.93      0.00
    1   14   11      0.23      0.00
    2   14   11     -7.33      0.00
    3   14   11     -0.74      0.00
    4   14   11      1.26      0.00
    5   14   11     -0.80      0.00
    6   14   11      2.63      0.00
    7   14   11     -0.12      0.00
    8   14   11      1.46      0.00
    9   14   11     -2.41      0.00
   10   14   11     -1.51      0.00
   11   14   11      2.94      0.00
   12   14   11     -3.97      0.00
   -5   15   11      0.09      0.00
   -4   15   11      0.80      0.00
   -3   15   11     -1.69      0.00
   -2   15   11     -4.16      0.00
   -1   15   11      0.91      0.00
    0   15   11     -2.67      0.00
    1   15   11      3.19      0.00
    2   15   11      2.97      0.00
    3   15   11     -2.79      0.00
    4   15   11      1.75      0.00
    5   15   11      0.34      0.00
    6   15   11     -2.17      0.00
    7   15   11     -1.94      0.00
    8   15   11     -0.38      0.00
    9   15   11      1.34      0.00
   10   15   11     -2.04      0.00
   11   15   11     -0.37      0.00
   12   15   11     -0.54      0.00
   -5   16   11     -0.37      0.00
   -4   16   11      0.32      0.00
   -3   16   11      2.27      0.00
   -2   16   11     -1.71      0.00
   -1   16   11     -2.85      0.00
    0   16   11     -1.05      0.00
    1   16   11     -3.16      0.00
    2   16   11      3.88      0.00
    3   16   11      2.90      0.00
    4   16   11      1.99      0.00
    5   16   11      0.89      0.00
    6   16   11      0.59      0.00
    7   16   11     -0.43      0.00
    8   16   11     -0.18      0.00
    9   16   11      1.14      0.00
   10   16   11      4.16      0.00
   11   16   11      0.37      0.00
   -3   17   11      0.97      0.00
   -2   17   11      0.88      0.00
   -1   17   11     -2.27      0.00
    0   17   11     -0.10      0.00
    1   17   11     -0.30      0.00
    2   17   11     -0.21      0.00
    3   17   11      1.74      0.00
    4   17   11      1.53      0.00
    5   17   11      0.60      0.00
    6   17   11     -2.27      0.00
    7   17   11     -0.80      0.00
    8   17   11     -1.35      0.00
    9   17   11     -0.84      0.00
   10   17   11      3.08      0.00
   11   17   11      4.73      0.00
   -2   18   11     -1.71      0.00
   -1   18   11     -2.76      0.00
    0   18   11     -2.31      0.00
    1   18   11      1.33      0.00
    2   18   11     -2.73      0.00
    3   18   11     -0.49      0.00
    4   18   11      0.64      0.00
    5   18   11      1.04      0.00
    6   18   11      1.97      0.00
    7   18   11      0.89      0.00
    8   18   11     -1.82      0.00
    9   18   11     -0.66      0.00
   10   18   11     -0.86      0.00
    0   19   11     -2.40      0.00
    1   19   11      1.15      0.00
    2   19   11      0.76      0.00
    3   19   11     -1.18      0.00
    4   19   11      1.74      0.00
    5   19   11      1.57      0.00
    6   19   11     -0.22      0.00
    7   19   11      3.09      0.00
    8   19   11      0.24      0.00
    3   20   11     -0.69      0.00
    4   20   11      1.21      0.00
    5   20   11     -0.54      0.00
    6   20   11     -2.64      0.00
   -5  -13   12      1.61      0.00
   -4  -13   12      1.89      0.00
   -3  -13   12     -3.18      0.00
   -2  -13   12     -3.48      0.00
   -1  -13   12      1.09      0.00
    0  -13   12     -3.01      0.00
    1  -13   12     -1.18      0.00
    2  -13   12     -0.54      0.00
   -7  -12   12     -2.60      0.00
   -6  -12   12     -3.85      0.00
   -5  -12   12      0.43      0.00
   -4  -12   12      2.89      0.00
   -3  -12   12      4.14      0.00
   -2  -12   12      1.24      0.00
   -1  -12   12      0.09      0.00
    0  -12   12      1.39      0.00
    1  -12   12      1.63      0.00
    2  -12   12      3.41      0.00
    3  -12   12      3.42      0.00
    4  -12   12      0.23      0.00
   -8  -11   12     -2.35      0.00
   -7  -11   12      1.24      0.00
   -6  -11   12      2.05      0.00
   -5  -11   12     -2.84      0.00
   -4  -11   12      0.30      0.00
   -3  -11   12     -1.59      0.00
   -2  -11   12      4.38      0.00
   -1  -11   12      5.39      0.00
    0  -11   12      3.34      0.00
    1  -11   12     -0.65      0.00
    2  -11   12      1.49      0.00
    3  -11   12      3.19      0.00
    4  -11   12      6.43      0.00
    5  -11   12      4.13      0.00
   -8  -10   12      0.34      0.00
   -7  -10   12     -4.14      0.00
   -6  -10   12     -1.46      0.00
   -5  -10   12      2.43      0.00
   -4  -10   12     -0.68      0.00
   -3  -10   12     -1.45      0.00
   -2  -10   12     -1.55      0.00
   -1  -10   12      4.72      0.00
    0  -10   12      1.50      0.00
    1  -10   12     -0.61      0.00
    2  -10   12     -6.12      0.00
    3  -10   12     -1.73      0.00
    4  -10   12     -1.24      0.00
    5  -10   12      4.91      0.00
    6  -10   12      3.50      0.00
   -9   -9   12     -4.83      0.00
   -8   -9   12     -0.01      0.00
   -7   -9   12     -1.58      0.00
   -6   -9   12     -2.87      0.00
   -5   -9   12     -3.38      0.00
   -4   -9   12      2.77      0.00
   -3   -9   12      4.56      0.00
   -2   -9   12     -1.11      0.00
   -1   -9   12      2.35      0.00
    0   -9   12     -0.55      0.00
    1   -9   12     -1.05      0.00
    2   -9   12      2.81      0.00
    3   -9   12     -1.54      0.00
    4   -9   12      0.97      0.00
    5   -9   12     -1.12      0.00
    6   -9   12      1.46      0.00
    7   -9   12      1.67      0.00
  -10   -8   12      3.05      0.00
   -9   -8   12     -0.54      0.00
   -8   -8   12     -3.17      0.00
   -7   -8   12     -0.54      0.00
   -6   -8   12     -0.22      0.00
   -5   -8   12     -1.41      0.00
   -4   -8   12     -4.63      0.00
   -3   -8   12      5.03      0.00
   -2   -8   12      1.95      0.00
   -1   -8   12     -0.96      0.00
    0   -8   12      5.34      0.00
    1   -8   12     -2.98      0.00
    2   -8   12      2.27      0.00
    3   -8   12      2.68      0.00
    4   -8   12     -0.10      0.00
    5   -8   12      2.16      0.00
    6   -8   12     -1.27      0.00
    7   -8   12     -1.59      0.00
    8   -8   12      0.03      0.00
  -10   -7   12      1.27      0.00
   -9   -7   12      0.65      0.00
   -8   -7   12     -0.57      0.00
   -7   -7   12      1.22      0.00
   -6   -7   12     -3.72      0.00
   -5   -7   12     -0.66      0.00
   -4   -7   12      0.61      0.00
   -3   -7   12     -3.07      0.00
   -2   -7   12      5.54      0.00
   -1   -7   12     -5.41      0.00
    0   -7   12      0.78      0.00
    1   -7   12      3.68      0.00
    2   -7   12     -4.71      0.00
    3   -7   12      0.92      0.00
    4   -7   12     -1.03      0.00
    5   -7   12      1.84      0.00
    6   -7   12      6.01      0.00
    7   -7   12     -0.52      0.00
    8   -7   12     -0.84      0.00
    9   -7   12     -0.73      0.00
  -10   -6   12      0.66      0.00
   -9   -6   12      1.77      0.00
   -8   -6   12     -1.25      0.00
   -7   -6   12     -0.64      0.00
   -6   -6   12      3.34      0.00
   -5   -6   12     -1.81      0.00
   -4   -6   12      1.38      0.00
   -3   -6   12     -1.03      0.00
   -2   -6   12      1.46      0.00
   -1   -6   12      2.87      0.00
    0   -6   12     -6.69      0.00
    1   -6   12      4.29      0.00
    2   -6   12     -0.45      0.00
    3   -6   12     -2.05      0.00
    4   -6   12      0.27      0.00
    5   -6   12     -1.79      0.00
    6   -6   12      0.10      0.00
    7   -6   12      0.99      0.00
    8   -6   12     -0.80      0.00
    9   -6   12      1.92      0.00
   10   -6   12     -0.66      0.00
  -11   -5   12     -1.84      0.00
  -10   -5   12      4.53      0.00
   -9   -5   12      2.42      0.00
   -8   -5   12      1.05      0.00
   -7   -5   12     -0.87      0.00
   -6   -5   12      0.53      0.00
   -5   -5   12      5.81      0.00
   -4   -5   12      4.52      0.00
   -3   -5   12      2.38      0.00
   -2   -5   12     -2.45      0.00
   -1   -5   12      4.19      0.00
    0   -5   12     -3.14      0.00
    1   -5   12     -0.98      0.00
    2   -5   12      2.58      0.00
    3   -5   12     -5.81      0.00
    4   -5   12      0.28      0.00
    5   -5   12     -2.17      0.00
    6   -5   12     -1.11      0.00
    7   -5   12      0.20      0.00
    8   -5   12     -0.88      0.00
    9   -5   12      3.01      0.00
   10   -5   12      0.44      0.00
  -11   -4   12     -1.44      0.00
  -10   -4   12     -1.98      0.00
   -9   -4   12     -2.50      0.00
   -8   -4   12     -0.10      0.00
   -7   -4   12      3.45      0.00
   -6   -4   12      1.86      0.00
   -5   -4   12     -1.21      0.00
   -4   -4   12      3.54      0.00
   -3   -4   12      4.93      0.00
   -2   -4   12     -2.92      0.00
   -1   -4   12     -2.81      0.00
    0   -4   12      0.25      0.00
    1   -4   12     -4.32      0.00
    2   -4   12      6.43      0.00
    3   -4   12     -5.08      0.00
    4   -4   12     -2.96      0.00
    5   -4   12      4.36      0.00
    6   -4   12     -1.81      0.00
    7   -4   12      0.76      0.00
    8   -4   12     -1.31      0.00
    9   -4   12     -1.14      0.00
   10   -4   12      3.94      0.00
   11   -4   12     -2.21      0.00
  -11   -3   12      1.17      0.00
  -10   -3   12     -1.45      0.00
   -9   -3   12      2.06      0.00
   -8   -3   12     -3.75      0.00
   -7   -3   12     -0.96      0.00
   -6   -3   12      0.54      0.00
   -5   -3   12      0.52      0.00
   -4   -3   12     -2.63      0.00
   -3   -3   12     -3.44      0.00
   -2   -3   12     -0.67      0.00
   -1   -3   12     -6.82      0.00
    0   -3   12      1.93      0.00
    1   -3   12     -2.20      0.00
    2   -3   12     -0.78      0.00
    3   -3   12      6.10      0.00
    4   -3   12     -7.82      0.00
    5   -3   12      4.71      0.00
    6   -3   12      0.13      0.00
    7   -3   12     -1.63      0.00
    8   -3   12      1.08      0.00
    9   -3   12     -1.91      0.00
   10   -3   12      1.84      0.00
   11   -3   12      3.06      0.00
  -11   -2   12      2.41      0.00
  -10   -2   12      1.99      0.00
   -9   -2   12      1.73      0.00
   -8   -2   12      3.66      0.00
   -7   -2   12     -6.59      0.00
   -6   -2   12     -0.43      0.00
   -5   -2   12     -2.99      0.00
   -4   -2   12      2.38      0.00
   -3   -2   12     -2.22      0.00
   -2   -2   12     -6.28      0.00
   -1   -2   12     -0.11      0.00
    0   -2   12     -4.63      0.00
    1   -2   12      6.78      0.00
    2   -2   12     -4.52      0.00
    3   -2   12     -0.13      0.00
    4   -2   12      1.40      0.00
    5   -2   12     -1.53      0.00
    6   -2   12      7.81      0.00
    7   -2   12     -2.70      0.00
    8   -2   12      2.22      0.00
    9   -2   12     -0.97      0.00
   10   -2   12     -2.33      0.00
   11   -2   12     -1.64      0.00
   12   -2   12     -0.82      0.00
  -11   -1   12      2.22      0.00
  -10   -1   12      2.33      0.00
   -9   -1   12     -1.27      0.00
   -8   -1   12      1.03      0.00
   -7   -1   12      3.25      0.00
   -6   -1   12     -1.80      0.00
   -5   -1   12      5.12      0.00
   -4   -1   12     -8.99      0.00
   -3   -1   12      1.33      0.00
   -2   -1   12     -3.76      0.00
   -1   -1   12     -1.07      0.00
    0   -1   12     -0.35      0.00
    1   -1   12     -5.66      0.00
    2   -1   12      7.53      0.00
    3   -1   12     -5.43      0.00
    4   -1   12      0.66      0.00
    5   -1   12     -3.43      0.00
    6   -1   12      0.64      0.00
    7   -1   12     -0.02      0.00
    8   -1   12     -2.22      0.00
    9   -1   12      4.42      0.00
   10   -1   12     -2.31      0.00
   11   -1   12      0.01      0.00
   12   -1   12     -4.36      0.00
  -11    0   12     -0.58      0.00
  -10    0   12      0.84      0.00
   -9    0   12      2.96      0.00
   -8    0   12      0.56      0.00
   -7    0   12      3.28      0.00
   -6    0   12     -0.68      0.00
   -5    0   12      2.12      0.00
   -4    0   12      5.31      0.00
   -3    0   12     -8.35      0.00
   -2    0   12      3.43      0.00
   -1    0   12     -4.65      0.00
    0    0   12      3.77      0.00
    1    0   12     -3.50      0.00
    2    0   12     -3.36      0.00
    3    0   12      4.92      0.00
    4    0   12     -4.01      0.00
    5    0   12      1.80      0.00
    6    0   12     -7.36      0.00
    7    0   12      2.53      0.00
    8    0   12     -0.48      0.00
    9    0   12      2.58      0.00
   10    0   12      2.20      0.00
   11    0   12     -1.80      0.00
   12    0   12      2.18      0.00
   13    0   12     -2.23      0.00
  -11    1   12      0.18      0.00
  -10    1   12     -0.48      0.00
   -9    1   12     -1.32      0.00
   -8    1   12     -0.63      0.00
   -7    1   12      0.88      0.00
   -6    1   12      4.54      0.00
   -5    1   12     -1.72      0.00
   -4    1   12      5.81      0.00
   -3    1   12      1.65      0.00
   -2    1   12     -1.00      0.00
   -1    1   12      3.11      0.00
    0    1   12     -4.16      0.00
    1    1   12      4.68      0.00
    2    1   12     -1.65      0.00
    3    1   12      2.70      0.00
    4    1   12      1.75      0.00
    5    1   12      2.98      0.00
    6    1   12      3.89      0.00
    7    1   12     -4.91      0.00
    8    1   12      1.25      0.00
    9    1   12     -4.22      0.00
   10    1   12      0.37      0.00
   11    1   12     -1.71      0.00
   12    1   12     -0.29      0.00
   13    1   12      3.27      0.00
  -11    2   12     -3.86      0.00
  -10    2   12     -3.79      0.00
   -9    2   12     -1.32      0.00
   -8    2   12     -1.30      0.00
   -7    2   12     -2.11      0.00
   -6    2   12      3.63      0.00
   -5    2   12      2.15      0.00
   -4    2   12     -0.57      0.00
   -3    2   12      2.75      0.00
   -2    2   12     -3.76      0.00
   -1    2   12      6.09      0.00
    0    2   12     -1.97      0.00
    1    2   12     -2.73      0.00
    2    2   12      2.66      0.00
    3    2   12      2.94      0.00
    4    2   12      1.91      0.00
    5    2   12     -2.80      0.00
    6    2   12      4.61      0.00
    7    2   12      0.66      0.00
    8    2   12     -0.75      0.00
    9    2   12     -1.65      0.00
   10    2   12     -1.98      0.00
   11    2   12      1.91      0.00
   12    2   12      1.17      0.00
   13    2   12     -0.16      0.00
  -11    3   12     -1.14      0.00
  -10    3   12     -1.18      0.00
   -9    3   12     -2.57      0.00
   -8    3   12      4.69      0.00
   -7    3   12     -2.87      0.00
   -6    3   12     -4.60      0.00
   -5    3   12      0.54      0.00
   -4    3   12     -2.90      0.00
   -3    3   12      2.91      0.00
   -2    3   12     -3.32      0.00
   -1    3   12     -5.22      0.00
    0    3   12      8.15      0.00
    1    3   12     -3.34      0.00
    2    3   12      4.48      0.00
    3    3   12     -0.57      0.00
    4    3   12      1.54      0.00
    5    3   12     -1.71      0.00
    6    3   12     -0.34      0.00
    7    3   12      5.49      0.00
    8    3   12      3.53      0.00
    9    3   12      4.72      0.00
   10    3   12     -3.43      0.00
   11    3   12      1.25      0.00
   12    3   12     -2.18      0.00
   13    3   12     -1.28      0.00
  -11    4   12      0.67      0.00
  -10    4   12      1.08      0.00
   -9    4   12      0.63      0.00
   -8    4   12     -3.01      0.00
   -7    4   12      3.91      0.00
   -6    4   12     -3.96      0.00
   -5    4   12      2.34      0.00
   -4    4   12     -4.75      0.00
   -3    4   12     -5.17      0.00
   -2    4   12      2.87      0.00
   -1    4   12     -7.53      0.00
    0    4   12      2.03      0.00
    1    4   12      4.81      0.00
    2    4   12     -0.42      0.00
    3    4   12      9.22      0.00
    4    4   12     -2.58      0.00
    5    4   12      2.36      0.00
    6    4   12      0.95      0.00
    7    4   12      1.24      0.00
    8    4   12      0.60      0.00
    9    4   12      1.58      0.00
   10    4   12      1.48      0.00
   11    4   12     -2.54      0.00
   12    4   12      1.05      0.00
   13    4   12     -2.36      0.00
  -10    5   12      0.57      0.00
   -9    5   12      1.77      0.00
   -8    5   12      0.77      0.00
   -7    5   12     -0.95      0.00
   -6    5   12      2.43      0.00
   -5    5   12     -1.54      0.00
   -4    5   12      6.82      0.00
   -3    5   12     -6.24      0.00
   -2    5   12      2.98      0.00
   -1    5   12     -0.14      0.00
    0    5   12     -6.44      0.00
    1    5   12      6.17      0.00
    2    5   12     -5.16      0.00
    3    5   12      6.94      0.00
    4    5   12      6.01      0.00
    5    5   12     -2.53      0.00
    6    5   12      1.02      0.00
    7    5   12     -3.10      0.00
    8    5   12     -1.16      0.00
    9    5   12     -0.96      0.00
   10    5   12      1.18      0.00
   11    5   12     -2.01      0.00
   12    5   12     -0.63      0.00
   13    5   12     -2.10      0.00
   14    5   12     -0.44      0.00
  -10    6   12      0.53      0.00
   -9    6   12      1.04      0.00
   -8    6   12      2.14      0.00
   -7    6   12      1.21      0.00
   -6    6   12      0.55      0.00
   -5    6   12      0.67      0.00
   -4    6   12      1.10      0.00
   -3    6   12      4.08      0.00
   -2    6   12     -3.24      0.00
   -1    6   12      5.94      0.00
    0    6   12     -6.41      0.00
    1    6   12      0.50      0.00
    2    6   12      2.92      0.00
    3    6   12    -11.76      0.00
    4    6   12      8.53      0.00
    5    6   12     -3.62      0.00
    6    6   12      2.04      0.00
    7    6   12     -0.17      0.00
    8    6   12     -4.11      0.00
    9    6   12      0.78      0.00
   10    6   12     -1.13      0.00
   11    6   12      0.18      0.00
   12    6   12     -4.43      0.00
   13    6   12     -2.19      0.00
   14    6   12     -2.07      0.00
  -10    7   12      4.31      0.00
   -9    7   12     -2.62      0.00
   -8    7   12      0.04      0.00
   -7    7   12      3.37      0.00
   -6    7   12      3.02      0.00
   -5    7   12      4.92      0.00
   -4    7   12     -1.18      0.00
   -3    7   12     -0.78      0.00
   -2    7   12     -2.61      0.00
   -1    7   12      2.52      0.00
    0    7   12      3.43      0.00
    1    7   12     -5.53      0.00
    2    7   12      3.12      0.00
    3    7   12     -6.87      0.00
    4    7   12     -7.20      0.00
    5    7   12      3.68      0.00
    6    7   12     -7.15      0.00
    7    7   12      6.08      0.00
    8    7   12     -2.74      0.00
    9    7   12     -0.58      0.00
   10    7   12      0.06      0.00
   11    7   12     -1.92      0.00
   12    7   12      3.42      0.00
   13    7   12      2.09      0.00
   14    7   12      2.05      0.00
   -9    8   12      3.45      0.00
   -8    8   12     -5.33      0.00
   -7    8   12      1.93      0.00
   -6    8   12     -0.03      0.00
   -5    8   12     -2.48      0.00
   -4    8   12      1.76      0.00
   -3    8   12     -1.86      0.00
   -2    8   12      3.31      0.00
   -1    8   12     -4.98      0.00
    0    8   12      4.13      0.00
    1    8   12     -0.90      0.00
    2    8   12      0.78      0.00
    3    8   12      0.65      0.00
    4    8   12     -9.07      0.00
    5    8   12      0.30      0.00
    6    8   12     -2.15      0.00
    7    8   12     -2.86      0.00
    8    8   12      6.25      0.00
    9    8   12     -1.64      0.00
   10    8   12      1.84      0.00
   11    8   12     -3.57      0.00
   12    8   12     -1.69      0.00
   13    8   12      3.02      0.00
   14    8   12      1.44      0.00
   -9    9   12     -1.84      0.00
   -8    9   12     -2.35      0.00
   -7    9   12     -3.90      0.00
   -6    9   12      1.71      0.00
   -5    9   12     -3.49      0.00
   -4    9   12     -2.66      0.00
   -3    9   12     -2.05      0.00
   -2    9   12     -0.49      0.00
   -1    9   12      2.95      0.00
    0    9   12     -5.89      0.00
    1    9   12      2.54      0.00
    2    9   12     -1.08      0.00
    3    9   12      5.64      0.00
    4    9   12     -3.06      0.00
    5    9   12     -3.69      0.00
    6    9   12      2.62      0.00
    7    9   12     -1.13      0.00
    8    9   12      2.61      0.00
    9    9   12      0.74      0.00
   10    9   12     -2.76      0.00
   11    9   12      0.83      0.00
   12    9   12     -1.62      0.00
   13    9   12     -3.45      0.00
   14    9   12     -2.72      0.00
   -9   10   12     -5.46      0.00
   -8   10   12      1.81      0.00
   -7   10   12     -2.50      0.00
   -6   10   12      2.25      0.00
   -5   10   12     -0.10      0.00
   -4   10   12     -1.31      0.00
   -3   10   12     -2.35      0.00
   -2   10   12     -7.25      0.00
   -1   10   12      2.52      0.00
    0   10   12      0.84      0.00
    1   10   12     -0.76      0.00
    2   10   12      0.08      0.00
    3   10   12      0.15      0.00
    4   10   12      6.20      0.00
    5   10   12     -1.80      0.00
    6   10   12     -0.84      0.00
    7   10   12     -1.70      0.00
    8   10   12     -1.29      0.00
    9   10   12      1.61      0.00
   10   10   12     -1.27      0.00
   11   10   12      0.71      0.00
   12   10   12      2.12      0.00
   13   10   12      2.95      0.00
   -8   11   12     -3.04      0.00
   -7   11   12      1.20      0.00
   -6   11   12     -3.72      0.00
   -5   11   12      1.93      0.00
   -4   11   12     -3.39      0.00
   -3   11   12      2.79      0.00
   -2   11   12     -0.78      0.00
   -1   11   12     -4.83      0.00
    0   11   12      4.18      0.00
    1   11   12     -1.73      0.00
    2   11   12      4.24      0.00
    3   11   12     -4.50      0.00
    4   11   12      0.36      0.00
    5   11   12      2.70      0.00
    6   11   12      2.72      0.00
    7   11   12      0.49      0.00
    8   11   12     -3.91      0.00
    9   11   12     -1.67      0.00
   10   11   12      0.67      0.00
   11   11   12     -0.28      0.00
   12   11   12      2.52      0.00
   13   11   12      0.33      0.00
   -7   12   12     -1.53      0.00
   -6   12   12      0.13      0.00
   -5   12   12      1.87      0.00
   -4   12   12      3.89      0.00
   -3   12   12     -3.06      0.00
   -2   12   12      1.81      0.00
   -1   12   12     -1.00      0.00
    0   12   12     -0.06      0.00
    1   12   12      3.10      0.00
    2   12   12     -3.22      0.00
    3   12   12      5.85      0.00
    4   12   12     -4.39      0.00
    5   12   12      1.78      0.00
    6   12   12     -0.63      0.00
    7   12   12      3.34      0.00
    8   12   12      0.77      0.00
    9   12   12     -3.66      0.00
   10   12   12     -1.28      0.00
   11   12   12     -0.71      0.00
   12   12   12     -0.95      0.00
   13   12   12     -0.41      0.00
   -7   13   12      0.12      0.00
   -6   13   12      1.84      0.00
   -5   13   12     -1.65      0.00
   -4   13   12      2.73      0.00
   -3   13   12     -0.72      0.00
   -2   13   12     -2.75      0.00
   -1   13   12      0.48      0.00
    0   13   12      1.22      0.00
    1   13   12      4.58      0.00
    2   13   12      2.72      0.00
    3   13   12     -1.97      0.00
    4   13   12      2.10      0.00
    5   13   12     -4.05      0.00
    6   13   12     -0.83      0.00
    7   13   12     -3.04      0.00
    8   13   12      3.00      0.00
    9   13   12      2.85      0.00
   10   13   12     -4.03      0.00
   11   13   12      0.75      0.00
   12   13   12     -3.28      0.00
   13   13   12     -2.67      0.00
   -6   14   12      1.15      0.00
   -5   14   12      1.85      0.00
   -4   14   12     -0.81      0.00
   -3   14   12      4.35      0.00
   -2   14   12     -1.54      0.00
   -1   14   12      1.92      0.00
    0   14   12     -1.47      0.00
    1   14   12     -1.01      0.00
    2   14   12      5.59      0.00
    3   14   12      3.03      0.00
    4   14   12     -0.54      0.00
    5   14   12     -0.19      0.00
    6   14   12      0.58      0.00
    7   14   12     -0.27      0.00
    8   14   12     -1.18      0.00
    9   14   12      0.70      0.00
   10   14   12      1.96      0.00
   11   14   12     -4.00      0.00
   12   14   12      2.27      0.00
   -5   15   12      3.34      0.00
   -4   15   12      0.35      0.00
   -3   15   12      0.61      0.00
   -2   15   12      2.92      0.00
   -1   15   12     -0.75      0.00
    0   15   12      4.54      0.00
    1   15   12     -2.34      0.00
    2   15   12     -1.76      0.00
    3   15   12      2.09      0.00
    4   15   12      1.64      0.00
    5   15   12     -0.24      0.00
    6   15   12     -0.33      0.00
    7   15   12      1.59      0.00
    8   15   12     -1.25      0.00
    9   15   12      0.26      0.00
   10   15   12      0.54      0.00
   11   15   12      2.56      0.00
   12   15   12     -0.32      0.00
   -4   16   12     -1.21      0.00
   -3   16   12     -4.70      0.00
   -2   16   12     -0.05      0.00
   -1   16   12      1.12      0.00
    0   16   12      1.05      0.00
    1   16   12      2.35      0.00
    2   16   12     -3.94      0.00
    3   16   12     -2.83      0.00
    4   16   12     -3.19      0.00
    5   16   12      1.42      0.00
    6   16   12      0.03      0.00
    7   16   12     -0.98      0.00
    8   16   12     -0.07      0.00
    9   16   12      0.52      0.00
   10   16   12     -1.80      0.00
   11   16   12     -0.92      0.00
   -3   17   12     -2.02      0.00
   -2   17   12     -3.45      0.00
   -1   17   12      1.33      0.00
    0   17   12      0.77      0.00
    1   17   12      0.85      0.00
    2   17   12     -0.65      0.00
    3   17   12     -0.75      0.00
    4   17   12     -0.32      0.00
    5   17   12     -1.76      0.00
    6   17   12      1.69      0.00
    7   17   12     -0.89      0.00
    8   17   12      0.20      0.00
    9   17   12     -0.20      0.00
   10   17   12     -0.79      0.00
   -2   18   12      1.72      0.00
   -1   18   12      2.51      0.00
    0   18   12      3.07      0.00
    1   18   12     -0.28      0.00
    2   18   12      1.50      0.00
    3   18   12     -1.81      0.00
    4   18   12     -0.79      0.00
    5   18   12     -2.24      0.00
    6   18   12     -3.82      0.00
    7   18   12     -0.95      0.00
    8   18   12      2.24      0.00
    9   18   12      1.80      0.00
    0   19   12      2.50      0.00
    1   19   12      0.28      0.00
    2   19   12     -0.25      0.00
    3   19   12      1.88      0.00
    4   19   12      0.23      0.00
    5   19   12      1.68      0.00
    6   19   12      0.89      0.00
    7   19   12     -3.23      0.00
    8   19   12     -1.53      0.00
    4   20   12     -1.04      0.00
   -2  -13   13      5.19      0.00
   -1  -13   13     -0.25      0.00
   -5  -12   13      1.84      0.00
   -4  -12   13     -2.39      0.00
   -3  -12   13     -2.70      0.00
   -2  -12   13     -0.94      0.00
   -1  -12   13     -0.78      0.00
    0  -12   13     -1.74      0.00
    1  -12   13      0.07      0.00
    2  -12   13     -0.68      0.00
    3  -12   13     -0.27      0.00
   -6  -11   13     -0.72      0.00
   -5  -11   13      1.03      0.00
   -4  -11   13     -0.28      0.00
   -3  -11   13     -1.30      0.00
   -2  -11   13     -4.77      0.00
   -1  -11   13     -6.56      0.00
    0  -11   13     -4.48      0.00
    1  -11   13     -0.33      0.00
    2  -11   13     -1.32      0.00
    3  -11   13     -3.77      0.00
    4  -11   13     -5.40      0.00
   -7  -10   13     -1.12      0.00
   -6  -10   13      0.25      0.00
   -5  -10   13     -2.03      0.00
   -4  -10   13      0.04      0.00
   -3  -10   13      1.11      0.00
   -2  -10   13      0.70      0.00
   -1  -10   13     -1.94      0.00
    0  -10   13     -2.36      0.00
    1  -10   13     -0.56      0.00
    2  -10   13      3.97      0.00
    3  -10   13      1.29      0.00
    4  -10   13      0.50      0.00
    5  -10   13     -4.70      0.00
    6  -10   13     -5.85      0.00
   -8   -9   13      1.97      0.00
   -7   -9   13      1.53      0.00
   -6   -9   13      2.11      0.00
   -5   -9   13      7.84      0.00
   -4   -9   13      0.74      0.00
   -3   -9   13     -1.55      0.00
   -2   -9   13      1.96      0.00
   -1   -9   13     -4.91      0.00
    0   -9   13     -1.13      0.00
    1   -9   13      1.20      0.00
    2   -9   13     -0.14      0.00
    3   -9   13      2.28      0.00
    4   -9   13      0.27      0.00
    5   -9   13      4.61      0.00
    6   -9   13      0.51      0.00
    7   -9   13     -1.96      0.00
   -9   -8   13      1.24      0.00
   -8   -8   13      2.75      0.00
   -7   -8   13      3.92      0.00
   -6   -8   13      1.67      0.00
   -5   -8   13      0.81      0.00
   -4   -8   13      4.57      0.00
   -3   -8   13     -4.14      0.00
   -2   -8   13     -0.59      0.00
   -1   -8   13      1.41      0.00
    0   -8   13     -5.25      0.00
    1   -8   13      1.74      0.00
    2   -8   13     -0.49      0.00
    3   -8   13     -2.23      0.00
    4   -8   13     -1.86      0.00
    5   -8   13     -2.74      0.00
    6   -8   13      0.74      0.00
    7   -8   13      0.87      0.00
    8   -8   13     -2.38      0.00
   -9   -7   13     -2.97      0.00
   -8   -7   13      0.54      0.00
   -7   -7   13     -2.95      0.00
   -6   -7   13      1.65      0.00
   -5   -7   13     -0.88      0.00
   -4   -7   13      1.64      0.00
   -3   -7   13      2.44      0.00
   -2   -7   13     -6.15      0.00
   -1   -7   13      5.45      0.00
    0   -7   13      1.59      0.00
    1   -7   13     -0.62      0.00
    2   -7   13      0.55      0.00
    3   -7   13     -1.39      0.00
    4   -7   13      0.66      0.00
    5   -7   13     -2.33      0.00
    6   -7   13     -3.79      0.00
    7   -7   13     -1.81      0.00
    8   -7   13      0.50      0.00
    9   -7   13     -0.04      0.00
  -10   -6   13     -2.19      0.00
   -9   -6   13     -2.70      0.00
   -8   -6   13      0.65      0.00
   -7   -6   13      1.81      0.00
   -6   -6   13     -2.62      0.00
   -5   -6   13      0.55      0.00
   -4   -6   13     -1.72      0.00
   -3   -6   13      2.27      0.00
   -2   -6   13     -2.87      0.00
   -1   -6   13     -3.76      0.00
    0   -6   13      4.83      0.00
    1   -6   13     -2.53      0.00
    2   -6   13      1.94      0.00
    3   -6   13     -1.04      0.00
    4   -6   13      1.91      0.00
    5   -6   13      2.17      0.00
    6   -6   13     -0.04      0.00
    7   -6   13     -1.22      0.00
    8   -6   13     -0.41      0.00
    9   -6   13      0.21      0.00
  -10   -5   13     -2.37      0.00
   -9   -5   13      0.44      0.00
   -8   -5   13     -3.49      0.00
   -7   -5   13     -0.38      0.00
   -6   -5   13      0.84      0.00
   -5   -5   13     -1.04      0.00
   -4   -5   13     -5.33      0.00
   -3   -5   13     -3.67      0.00
   -2   -5   13      3.31      0.00
   -1   -5   13     -3.96      0.00
    0   -5   13      3.98      0.00
    1   -5   13     -3.26      0.00
    2   -5   13     -2.40      0.00
    3   -5   13      5.03      0.00
    4   -5   13     -1.79      0.00
    5   -5   13      2.54      0.00
    6   -5   13     -0.41      0.00
    7   -5   13      3.91      0.00
    8   -5   13      1.99      0.00
    9   -5   13     -3.47      0.00
   10   -5   13     -1.67      0.00
  -10   -4   13      1.08      0.00
   -9   -4   13      0.37      0.00
   -8   -4   13      0.91      0.00
   -7   -4   13     -2.71      0.00
   -6   -4   13     -1.21      0.00
   -5   -4   13     -0.22      0.00
   -4   -4   13     -0.59      0.00
   -3   -4   13     -5.37      0.00
   -2   -4   13      1.27      0.00
   -1   -4   13      1.57      0.00
    0   -4   13     -1.44      0.00
    1   -4   13      5.93      0.00
    2   -4   13    -10.33      0.00
    3   -4   13      4.92      0.00
    4   -4   13      4.21      0.00
    5   -4   13     -1.32      0.00
    6   -4   13      2.18      0.00
    7   -4   13     -2.35      0.00
    8   -4   13      2.78      0.00
    9   -4   13     -0.13      0.00
   10   -4   13     -4.42      0.00
   11   -4   13      2.42      0.00
  -10   -3   13      1.14      0.00
   -9   -3   13     -3.04      0.00
   -8   -3   13      3.09      0.00
   -7   -3   13      1.02      0.00
   -6   -3   13     -0.12      0.00
   -5   -3   13     -2.88      0.00
   -4   -3   13     -1.49      0.00
   -3   -3   13      3.31      0.00
   -2   -3   13      0.06      0.00
   -1   -3   13      7.44      0.00
    0   -3   13     -1.96      0.00
    1   -3   13      2.42      0.00
    2   -3   13      0.74      0.00
    3   -3   13     -8.14      0.00
    4   -3   13      7.74      0.00
    5   -3   13     -5.07      0.00
    6   -3   13     -0.88      0.00
    7   -3   13     -1.42      0.00
    8   -3   13     -1.50      0.00
    9   -3   13      3.31      0.00
   10   -3   13     -1.86      0.00
   11   -3   13     -3.29      0.00
  -11   -2   13     -3.66      0.00
  -10   -2   13     -1.83      0.00
   -9   -2   13      1.55      0.00
   -8   -2   13     -2.60      0.00
   -7   -2   13      3.88      0.00
   -6   -2   13     -0.94      0.00
   -5   -2   13      5.38      0.00
   -4   -2   13      0.80      0.00
   -3   -2   13      2.28      0.00
   -2   -2   13      5.96      0.00
   -1   -2   13      1.41      0.00
    0   -2   13      7.63      0.00
    1   -2   13     -5.00      0.00
    2   -2   13      3.63      0.00
    3   -2   13     -2.28      0.00
    4   -2   13     -0.65      0.00
    5   -2   13      1.61      0.00
    6   -2   13     -8.11      0.00
    7   -2   13      4.04      0.00
    8   -2   13     -1.61      0.00
    9   -2   13      0.69      0.00
   10   -2   13      1.93      0.00
   11   -2   13     -0.98      0.00
  -11   -1   13     -1.23      0.00
  -10   -1   13     -1.27      0.00
   -9   -1   13     -0.97      0.00
   -8   -1   13     -2.80      0.00
   -7   -1   13     -1.92      0.00
   -6   -1   13      3.66      0.00
   -5   -1   13     -2.08      0.00
   -4   -1   13      7.29      0.00
   -3   -1   13      1.18      0.00
   -2   -1   13      4.58      0.00
   -1   -1   13      0.92      0.00
    0   -1   13     -0.21      0.00
    1   -1   13      4.02      0.00
    2   -1   13     -2.94      0.00
    3   -1   13      3.67      0.00
    4   -1   13     -2.11      0.00
    5   -1   13      4.48      0.00
    6   -1   13     -1.35      0.00
    7   -1   13     -0.36      0.00
    8   -1   13      2.90      0.00
    9   -1   13     -3.01      0.00
   10   -1   13      2.51      0.00
   11   -1   13      1.06      0.00
   12   -1   13      3.48      0.00
  -11    0   13      1.88      0.00
  -10    0   13     -0.86      0.00
   -9    0   13     -1.18      0.00
   -8    0   13     -1.60      0.00
   -7    0   13     -4.97      0.00
   -6    0   13     -0.68      0.00
   -5    0   13     -2.55      0.00
   -4    0   13     -4.16      0.00
   -3    0   13      3.42      0.00
   -2    0   13      0.56      0.00
   -1    0   13      2.46      0.00
    0    0   13     -3.77      0.00
    1    0   13      0.73      0.00
    2    0   13     -0.07      0.00
    3    0   13      0.99      0.00
    4    0   13      0.47      0.00
    5    0   13     -2.05      0.00
    6    0   13      5.67      0.00
    7    0   13     -1.18      0.00
    8    0   13      2.91      0.00
    9    0   13     -1.99      0.00
   10    0   13     -2.76      0.00
   11    0   13      1.70      0.00
   12    0   13     -2.02      0.00
  -11    1   13      1.45      0.00
  -10    1   13      0.88      0.00
   -9    1   13      1.83      0.00
   -8    1   13      3.68      0.00
   -7    1   13     -0.70      0.00
   -6    1   13     -5.71      0.00
   -5    1   13     -2.60      0.00
   -4    1   13     -3.69      0.00
   -3    1   13      1.67      0.00
   -2    1   13     -2.79      0.00
   -1    1   13     -1.06      0.00
    0    1   13     -2.04      0.00
    1    1   13     -0.12      0.00
    2    1   13     -0.56      0.00
    3    1   13     -2.97      0.00
    4    1   13      3.00      0.00
    5    1   13     -3.66      0.00
    6    1   13     -1.36      0.00
    7    1   13     -0.12      0.00
    8    1   13     -2.61      0.00
    9    1   13      1.09      0.00
   10    1   13     -1.53      0.00
   11    1   13      2.14      0.00
   12    1   13      0.46      0.00
   13    1   13     -2.73      0.00
  -11    2   13      2.45      0.00
  -10    2   13      5.77      0.00
   -9    2   13     -0.24      0.00
   -8    2   13     -0.73      0.00
   -7    2   13      1.92      0.00
   -6    2   13     -1.62      0.00
   -5    2   13      0.18      0.00
   -4    2   13     -4.66      0.00
   -3    2   13     -0.71      0.00
   -2    2   13      4.10      0.00
   -1    2   13     -4.38      0.00
    0    2   13      3.31      0.00
    1    2   13     -3.26      0.00
    2    2   13      3.50      0.00
    3    2   13     -4.68      0.00
    4    2   13     -0.77      0.00
    5    2   13      1.61      0.00
    6    2   13     -5.38      0.00
    7    2   13     -0.31      0.00
    8    2   13     -2.86      0.00
    9    2   13      3.62      0.00
   10    2   13      2.79      0.00
   11    2   13      0.76      0.00
   12    2   13      1.26      0.00
   13    2   13      0.61      0.00
  -10    3   13     -0.44      0.00
   -9    3   13      4.03      0.00
   -8    3   13     -3.61      0.00
   -7    3   13      2.04      0.00
   -6    3   13      2.65      0.00
   -5    3   13      2.68      0.00
   -4    3   13      6.48      0.00
   -3    3   13     -6.78      0.00
   -2    3   13      3.93      0.00
   -1    3   13      0.24      0.00
    0    3   13     -2.97      0.00
    1    3   13      3.55      0.00
    2    3   13     -5.78      0.00
    3    3   13      3.61      0.00
    4    3   13     -4.36      0.00
    5    3   13      2.54      0.00
    6    3   13     -1.34      0.00
    7    3   13     -1.23      0.00
    8    3   13     -0.28      0.00
    9    3   13     -3.22      0.00
   10    3   13      3.22      0.00
   11    3   13     -4.04      0.00
   12    3   13      1.74      0.00
   13    3   13      0.19      0.00
  -10    4   13     -1.00      0.00
   -9    4   13      0.20      0.00
   -8    4   13      1.63      0.00
   -7    4   13     -3.30      0.00
   -6    4   13      4.47      0.00
   -5    4   13     -4.11      0.00
   -4    4   13      4.38      0.00
   -3    4   13      3.59      0.00
   -2    4   13     -4.74      0.00
   -1    4   13      6.90      0.00
    0    4   13     -4.86      0.00
    1    4   13      1.81      0.00
    2    4   13      1.73      0.00
    3    4   13     -5.89      0.00
    4    4   13      2.66      0.00
    5    4   13     -3.10      0.00
    6    4   13      1.22      0.00
    7    4   13     -2.31      0.00
    8    4   13      0.16      0.00
    9    4   13     -3.14      0.00
   10    4   13     -1.91      0.00
   11    4   13      1.59      0.00
   12    4   13     -3.77      0.00
   13    4   13      2.05      0.00
  -10    5   13      0.33      0.00
   -9    5   13     -0.47      0.00
   -8    5   13     -0.03      0.00
   -7    5   13     -0.88      0.00
   -6    5   13     -1.38      0.00
   -5    5   13     -0.39      0.00
   -4    5   13     -7.90      0.00
   -3    5   13      6.52      0.00
   -2    5   13     -0.64      0.00
   -1    5   13      5.21      0.00
    0    5   13      4.78      0.00
    1    5   13     -7.29      0.00
    2    5   13      4.88      0.00
    3    5   13     -4.94      0.00
    4    5   13     -2.35      0.00
    5    5   13      1.02      0.00
    6    5   13     -2.35      0.00
    7    5   13      1.39      0.00
    8    5   13      1.57      0.00
    9    5   13      1.47      0.00
   10    5   13     -2.08      0.00
   11    5   13      2.01      0.00
   12    5   13      1.51      0.00
   13    5   13      1.51      0.00
  -10    6   13     -0.14      0.00
   -9    6   13      0.11      0.00
   -8    6   13      1.60      0.00
   -7    6   13      0.79      0.00
   -6    6   13     -1.60      0.00
   -5    6   13      0.92      0.00
   -4    6   13     -1.36      0.00
   -3    6   13      1.96      0.00
   -2    6   13      3.01      0.00
   -1    6   13     -6.34      0.00
    0    6   13      5.19      0.00
    1    6   13     -4.88      0.00
    2    6   13     -3.31      0.00
    3    6   13      5.61      0.00
    4    6   13     -7.89      0.00
    5    6   13      2.91      0.00
    6    6   13     -3.48      0.00
    7    6   13     -1.19      0.00
    8    6   13      2.38      0.00
    9    6   13      0.19      0.00
   10    6   13      0.07      0.00
   11    6   13     -2.47      0.00
   12    6   13      3.52      0.00
   13    6   13      3.48      0.00
   -9    7   13      1.64      0.00
   -8    7   13     -0.95      0.00
   -7    7   13     -2.29      0.00
   -6    7   13     -0.97      0.00
   -5    7   13     -1.81      0.00
   -4    7   13      0.58      0.00
   -3    7   13     -4.17      0.00
   -2    7   13      5.13      0.00
   -1    7   13     -5.55      0.00
    0    7   13     -0.58      0.00
    1    7   13      2.19      0.00
    2    7   13     -4.51      0.00
    3    7   13      7.76      0.00
    4    7   13      3.38      0.00
    5    7   13     -1.08      0.00
    6    7   13      6.30      0.00
    7    7   13     -3.00      0.00
    8    7   13      1.28      0.00
    9    7   13      0.55      0.00
   10    7   13      0.90      0.00
   11    7   13      4.37      0.00
   12    7   13     -1.62      0.00
   13    7   13     -1.42      0.00
   -9    8   13     -4.38      0.00
   -8    8   13      5.16      0.00
   -7    8   13      0.36      0.00
   -6    8   13     -0.37      0.00
   -5    8   13     -0.24      0.00
   -4    8   13     -0.96      0.00
   -3    8   13     -1.51      0.00
   -2    8   13     -4.84      0.00
   -1    8   13      7.81      0.00
    0    8   13     -4.74      0.00
    1    8   13      7.57      0.00
    2    8   13     -4.03      0.00
    3    8   13     -0.68      0.00
    4    8   13      9.07      0.00
    5    8   13     -0.02      0.00
    6    8   13      5.40      0.00
    7    8   13      1.11      0.00
    8    8   13     -2.06      0.00
    9    8   13      1.32      0.00
   10    8   13     -0.21      0.00
   11    8   13      2.74      0.00
   12    8   13      3.52      0.00
   13    8   13     -3.25      0.00
   -9    9   13      0.49      0.00
   -8    9   13      0.08      0.00
   -7    9   13      3.06      0.00
   -6    9   13     -2.08      0.00
   -5    9   13      0.20      0.00
   -4    9   13      0.45      0.00
   -3    9   13      6.92      0.00
   -2    9   13      0.62      0.00
   -1    9   13     -2.20      0.00
    0    9   13      2.41      0.00
    1    9   13     -4.18      0.00
    2    9   13      5.97      0.00
    3    9   13     -8.63      0.00
    4    9   13      2.05      0.00
    5    9   13      0.26      0.00
    6    9   13     -2.49      0.00
    7    9   13      1.69      0.00
    8    9   13     -4.17      0.00
    9    9   13     -0.03      0.00
   10    9   13      0.57      0.00
   11    9   13     -0.27      0.00
   12    9   13     -1.07      0.00
   13    9   13      2.00      0.00
   -8   10   13     -1.72      0.00
   -7   10   13      0.87      0.00
   -6   10   13     -0.12      0.00
   -5   10   13      1.95      0.00
   -4   10   13      1.50      0.00
   -3   10   13      0.32      0.00
   -2   10   13      8.92      0.00
   -1   10   13     -1.29      0.00
    0   10   13      1.88      0.00
    1   10   13     -3.95      0.00
    2   10   13     -0.39      0.00
    3   10   13      5.26      0.00
    4   10   13     -3.60      0.00
    5   10   13      2.72      0.00
    6   10   13     -4.02      0.00
    7   10   13      3.46      0.00
    8   10   13      2.18      0.00
    9   10   13     -0.92      0.00
   10   10   13      0.89      0.00
   11   10   13     -0.15      0.00
   12   10   13      1.09      0.00
   13   10   13     -2.05      0.00
   -8   11   13      4.17      0.00
   -7   11   13      0.55      0.00
   -6   11   13      2.28      0.00
   -5   11   13     -1.49      0.00
   -4   11   13      3.97      0.00
   -3   11   13     -1.04      0.00
   -2   11   13      0.25      0.00
   -1   11   13      5.20      0.00
    0   11   13     -1.53      0.00
    1   11   13      4.09      0.00
    2   11   13     -5.77      0.00
    3   11   13      2.43      0.00
    4   11   13     -0.41      0.00
    5   11   13      1.71      0.00
    6   11   13      0.31      0.00
    7   11   13     -2.91      0.00
    8   11   13      5.20      0.00
    9   11   13      0.59      0.00
   10   11   13      0.39      0.00
   11   11   13     -0.65      0.00
   12   11   13     -3.04      0.00
   13   11   13     -0.17      0.00
   -7   12   13     -0.69      0.00
   -6   12   13     -0.12      0.00
   -5   12   13     -1.59      0.00
   -4   12   13     -2.56      0.00
   -3   12   13      2.92      0.00
   -2   12   13     -0.98      0.00
   -1   12   13     -0.76      0.00
    0   12   13     -2.60      0.00
    1   12   13     -2.91      0.00
    2   12   13      1.91      0.00
    3   12   13     -4.62      0.00
    4   12   13      2.31      0.00
    5   12   13     -2.68      0.00
    6   12   13      4.38      0.00
    7   12   13     -3.41      0.00
    8   12   13     -2.32      0.00
    9   12   13      2.35      0.00
   10   12   13      0.39      0.00
   11   12   13      1.90      0.00
   12   12   13     -0.17      0.00
   13   12   13     -2.33      0.00
   -6   13   13     -1.46      0.00
   -5   13   13      2.21      0.00
   -4   13   13     -4.91      0.00
   -3   13   13     -1.62      0.00
   -2   13   13     -1.54      0.00
   -1   13   13      0.69      0.00
    0   13   13      0.05      0.00
    1   13   13     -2.79      0.00
    2   13   13     -2.40      0.00
    3   13   13      0.77      0.00
    4   13   13      1.65      0.00
    5   13   13      0.81      0.00
    6   13   13     -1.23      0.00
    7   13   13      4.00      0.00
    8   13   13     -1.67      0.00
    9   13   13     -0.28      0.00
   10   13   13      1.74      0.00
   11   13   13     -0.15      0.00
   12   13   13      4.19      0.00
   -6   14   13     -0.45      0.00
   -5   14   13     -3.84      0.00
   -4   14   13      1.10      0.00
   -3   14   13     -3.28      0.00
   -2   14   13      4.26      0.00
   -1   14   13     -3.33      0.00
    0   14   13      2.61      0.00
    1   14   13      0.28      0.00
    2   14   13     -1.99      0.00
    3   14   13     -4.00      0.00
    4   14   13     -3.34      0.00
    5   14   13      1.91      0.00
    6   14   13     -1.12      0.00
    7   14   13      2.57      0.00
    8   14   13      1.88      0.00
    9   14   13     -0.12      0.00
   10   14   13     -3.43      0.00
   11   14   13      1.23      0.00
   12   14   13     -0.99      0.00
   -5   15   13     -1.58      0.00
   -4   15   13      0.79      0.00
   -3   15   13      1.10      0.00
   -2   15   13     -1.33      0.00
   -1   15   13      1.54      0.00
    0   15   13     -6.36      0.00
    1   15   13      1.57      0.00
    2   15   13      0.05      0.00
    3   15   13      0.03      0.00
    4   15   13     -3.19      0.00
    5   15   13     -1.67      0.00
    6   15   13      1.20      0.00
    7   15   13     -1.21      0.00
    8   15   13      2.50      0.00
    9   15   13     -2.42      0.00
   10   15   13      0.60      0.00
   11   15   13     -4.24      0.00
   -4   16   13     -0.13      0.00
   -3   16   13      3.55      0.00
   -2   16   13      0.05      0.00
   -1   16   13     -0.58      0.00
    0   16   13     -1.09      0.00
    1   16   13     -1.58      0.00
    2   16   13      2.57      0.00
    3   16   13      0.03      0.00
    4   16   13      3.84      0.00
    5   16   13     -1.58      0.00
    6   16   13     -0.02      0.00
    7   16   13      1.41      0.00
    8   16   13      0.75      0.00
    9   16   13      0.48      0.00
   10   16   13     -0.52      0.00
   11   16   13      1.77      0.00
   -3   17   13      1.77      0.00
   -2   17   13      4.03      0.00
   -1   17   13      0.87      0.00
    0   17   13     -0.48      0.00
    1   17   13     -0.48      0.00
    2   17   13      3.35      0.00
    3   17   13      3.72      0.00
    4   17   13      0.48      0.00
    5   17   13      1.82      0.00
    6   17   13     -2.74      0.00
    7   17   13      0.27      0.00
    8   17   13      1.29      0.00
    9   17   13      2.43      0.00
   10   17   13      0.09      0.00
   -1   18   13     -1.25      0.00
    0   18   13     -0.85      0.00
    1   18   13     -0.39      0.00
    2   18   13     -0.29      0.00
    3   18   13      1.85      0.00
    4   18   13     -0.38      0.00
    5   18   13     -0.58      0.00
    6   18   13      1.94      0.00
    7   18   13      1.27      0.00
    8   18   13      0.12      0.00
    9   18   13     -1.19      0.00
    1   19   13     -2.16      0.00
    2   19   13     -1.98      0.00
    3   19   13     -3.13      0.00
    4   19   13     -1.77      0.00
    5   19   13     -2.31      0.00
    6   19   13      0.75      0.00
    7   19   13      4.38      0.00
   -3  -12   14      2.67      0.00
   -2  -12   14      2.68      0.00
   -1  -12   14      0.25      0.00
    0  -12   14      1.47      0.00
   -5  -11   14     -0.65      0.00
   -4  -11   14     -0.57      0.00
   -3  -11   14      2.73      0.00
   -2  -11   14      2.88      0.00
   -1  -11   14      5.10      0.00
    0  -11   14      5.19      0.00
    1  -11   14      2.45      0.00
    2  -11   14      0.74      0.00
    3  -11   14      2.02      0.00
   -6  -10   14      0.87      0.00
   -5  -10   14      0.18      0.00
   -4  -10   14      0.28      0.00
   -3  -10   14     -1.39      0.00
   -2  -10   14      0.75      0.00
   -1  -10   14      2.50      0.00
    0  -10   14      4.20      0.00
    1  -10   14     -0.13      0.00
    2  -10   14     -2.98      0.00
    3  -10   14     -1.70      0.00
    4  -10   14     -0.14      0.00
    5  -10   14      0.22      0.00
   -7   -9   14     -2.00      0.00
   -6   -9   14      1.31      0.00
   -5   -9   14     -5.29      0.00
   -4   -9   14     -2.48      0.00
   -3   -9   14     -0.23      0.00
   -2   -9   14     -2.76      0.00
   -1   -9   14      4.38      0.00
    0   -9   14      1.35      0.00
    1   -9   14      0.05      0.00
    2   -9   14     -2.74      0.00
    3   -9   14     -1.92      0.00
    4   -9   14      0.07      0.00
    5   -9   14     -2.24      0.00
    6   -9   14     -0.34      0.00
   -8   -8   14     -1.49      0.00
   -7   -8   14     -4.34      0.00
   -6   -8   14     -1.83      0.00
   -5   -8   14     -1.71      0.00
   -4   -8   14     -8.06      0.00
   -3   -8   14      0.40      0.00
   -2   -8   14     -0.78      0.00
   -1   -8   14     -2.49      0.00
    0   -8   14      3.37      0.00
    1   -8   14      0.54      0.00
    2   -8   14      2.27      0.00
    3   -8   14      3.14      0.00
    4   -8   14      4.43      0.00
    5   -8   14      3.40      0.00
    6   -8   14     -1.36      0.00
    7   -8   14     -1.91      0.00
   -9   -7   14      3.07      0.00
   -8   -7   14     -0.90      0.00
   -7   -7   14      2.81      0.00
   -6   -7   14     -1.63      0.00
   -5   -7   14      1.57      0.00
   -4   -7   14     -1.34      0.00
   -3   -7   14     -0.93      0.00
   -2   -7   14      5.85      0.00
   -1   -7   14     -2.79      0.00
    0   -7   14     -0.08      0.00
    1   -7   14     -1.89      0.00
    2   -7   14      1.15      0.00
    3   -7   14      1.02      0.00
    4   -7   14      0.14      0.00
    5   -7   14      1.43      0.00
    6   -7   14      1.39      0.00
    7   -7   14      2.55      0.00
    8   -7   14     -0.77      0.00
   -9   -6   14      0.97      0.00
   -8   -6   14      2.33      0.00
   -7   -6   14     -1.12      0.00
   -6   -6   14      1.24      0.00
   -5   -6   14     -0.47      0.00
   -4   -6   14      3.38      0.00
   -3   -6   14     -1.59      0.00
   -2   -6   14      3.28      0.00
   -1   -6   14      1.95      0.00
    0   -6   14     -3.59      0.00
    1   -6   14      1.73      0.00
    2   -6   14     -4.85      0.00
    3   -6   14      1.47      0.00
    4   -6   14     -2.04      0.00
    5   -6   14     -0.30      0.00
    6   -6   14      0.90      0.00
    7   -6   14     -0.46      0.00
    8   -6   14      2.46      0.00
    9   -6   14      0.35      0.00
   -9   -5   14     -0.88      0.00
   -8   -5   14      1.75      0.00
   -7   -5   14     -0.91      0.00
   -6   -5   14     -0.37      0.00
   -5   -5   14     -1.08      0.00
   -4   -5   14      3.02      0.00
   -3   -5   14      2.08      0.00
   -2   -5   14     -1.48      0.00
   -1   -5   14      3.98      0.00
    0   -5   14     -5.88      0.00
    1   -5   14      2.77      0.00
    2   -5   14      3.02      0.00
    3   -5   14     -2.65      0.00
    4   -5   14      0.96      0.00
    5   -5   14     -3.88      0.00
    6   -5   14     -0.37      0.00
    7   -5   14     -4.77      0.00
    8   -5   14     -3.42      0.00
    9   -5   14      2.39      0.00
  -10   -4   14      1.56      0.00
   -9   -4   14      2.92      0.00
   -8   -4   14     -1.58      0.00
   -7   -4   14      2.32      0.00
   -6   -4   14      0.51      0.00
   -5   -4   14      2.31      0.00
   -4   -4   14      0.37      0.00
   -3   -4   14      4.98      0.00
   -2   -4   14     -0.79      0.00
   -1   -4   14      0.76      0.00
    0   -4   14      2.02      0.00
    1   -4   14     -4.98      0.00
    2   -4   14     11.14      0.00
    3   -4   14     -2.54      0.00
    4   -4   14     -3.08      0.00
    5   -4   14     -0.41      0.00
    6   -4   14     -0.11      0.00
    7   -4   14      4.69      0.00
    8   -4   14     -3.94      0.00
    9   -4   14     -1.72      0.00
   10   -4   14      3.91      0.00
  -10   -3   14     -2.34      0.00
   -9   -3   14      0.01      0.00
   -8   -3   14      0.27      0.00
   -7   -3   14      2.12      0.00
   -6   -3   14      0.50      0.00
   -5   -3   14     -0.14      0.00
   -4   -3   14      0.24      0.00
   -3   -3   14     -0.85      0.00
   -2   -3   14     -1.00      0.00
   -1   -3   14     -6.52      0.00
    0   -3   14      1.72      0.00
    1   -3   14     -1.73      0.00
    2   -3   14      0.77      0.00
    3   -3   14      7.54      0.00
    4   -3   14     -4.58      0.00
    5   -3   14      5.07      0.00
    6   -3   14      1.54      0.00
    7   -3   14      1.39      0.00
    8   -3   14      0.19      0.00
    9   -3   14     -4.13      0.00
   10   -3   14      1.62      0.00
   11   -3   14      4.52      0.00
  -10   -2   14      0.83      0.00
   -9   -2   14     -1.60      0.00
   -8   -2   14      1.84      0.00
   -7   -2   14     -3.02      0.00
   -6   -2   14     -0.43      0.00
   -5   -2   14     -4.82      0.00
   -4   -2   14     -0.85      0.00
   -3   -2   14     -2.75      0.00
   -2   -2   14     -3.71      0.00
   -1   -2   14     -4.48      0.00
    0   -2   14     -6.21      0.00
    1   -2   14      0.90      0.00
    2   -2   14     -4.96      0.00
    3   -2   14      3.76      0.00
    4   -2   14     -0.63      0.00
    5   -2   14     -1.35      0.00
    6   -2   14      4.63      0.00
    7   -2   14     -2.68      0.00
    8   -2   14      2.18      0.00
    9   -2   14     -0.42      0.00
   10   -2   14     -2.57      0.00
   11   -2   14      0.77      0.00
  -10   -1   14      1.17      0.00
   -9   -1   14      1.16      0.00
   -8   -1   14      2.11      0.00
   -7   -1   14      1.47      0.00
   -6   -1   14     -2.81      0.00
   -5   -1   14      0.06      0.00
   -4   -1   14     -3.00      0.00
   -3   -1   14     -1.92      0.00
   -2   -1   14     -5.30      0.00
   -1   -1   14     -1.68      0.00
    0   -1   14     -1.43      0.00
    1   -1   14      1.14      0.00
    2   -1   14     -0.24      0.00
    3   -1   14     -3.00      0.00
    4   -1   14      1.85      0.00
    5   -1   14     -4.41      0.00
    6   -1   14      3.56      0.00
    7   -1   14      0.81      0.00
    8   -1   14     -0.20      0.00
    9   -1   14      2.98      0.00
   10   -1   14     -0.52      0.00
   11   -1   14     -2.48      0.00
  -10    0   14      0.32      0.00
   -9    0   14     -2.51      0.00
   -8    0   14      0.41      0.00
   -7    0   14      6.76      0.00
   -6    0   14      5.12      0.00
   -5    0   14      3.13      0.00
   -4    0   14     -1.81      0.00
   -3    0   14     -1.09      0.00
   -2    0   14     -3.02      0.00
   -1    0   14      0.08      0.00
    0    0   14      2.87      0.00
    1    0   14     -0.10      0.00
    2    0   14      4.74      0.00
    3    0   14     -5.31      0.00
    4    0   14      0.79      0.00
    5    0   14     -0.32      0.00
    6    0   14     -3.15      0.00
    7    0   14      2.87      0.00
    8    0   14     -3.88      0.00
    9    0   14      1.98      0.00
   10    0   14      1.70      0.00
   11    0   14      0.07      0.00
   12    0   14      0.64      0.00
  -10    1   14     -0.56      0.00
   -9    1   14      1.40      0.00
   -8    1   14     -1.88      0.00
   -7    1   14     -0.21      0.00
   -6    1   14      1.60      0.00
   -5    1   14      2.37      0.00
   -4    1   14      3.90      0.00
   -3    1   14     -3.14      0.00
   -2    1   14      3.66      0.00
   -1    1   14     -3.07      0.00
    0    1   14      6.48      0.00
    1    1   14     -0.54      0.00
    2    1   14      1.42      0.00
    3    1   14      3.37      0.00
    4    1   14     -4.87      0.00
    5    1   14      5.24      0.00
    6    1   14     -2.43      0.00
    7    1   14      2.41      0.00
    8    1   14      2.82      0.00
    9    1   14     -1.35      0.00
   10    1   14      0.47      0.00
   11    1   14     -3.08      0.00
   12    1   14     -0.85      0.00
  -10    2   14     -4.50      0.00
   -9    2   14     -0.86      0.00
   -8    2   14     -2.31      0.00
   -7    2   14     -1.62      0.00
   -6    2   14      0.15      0.00
   -5    2   14     -2.66      0.00
   -4    2   14      5.85      0.00
   -3    2   14      2.39      0.00
   -2    2   14     -2.02      0.00
   -1    2   14      4.06      0.00
    0    2   14     -5.22      0.00
    1    2   14      7.33      0.00
    2    2   14     -4.39      0.00
    3    2   14      5.45      0.00
    4    2   14     -1.07      0.00
    5    2   14     -0.75      0.00
    6    2   14      4.59      0.00
    7    2   14     -2.69      0.00
    8    2   14      4.31      0.00
    9    2   14     -2.85      0.00
   10    2   14     -0.41      0.00
   11    2   14     -1.29      0.00
   12    2   14     -2.66      0.00
  -10    3   14      0.10      0.00
   -9    3   14     -3.96      0.00
   -8    3   14      3.53      0.00
   -7    3   14     -1.37      0.00
   -6    3   14      2.20      0.00
   -5    3   14     -0.50      0.00
   -4    3   14     -6.25      0.00
   -3    3   14      5.83      0.00
   -2    3   14     -2.82      0.00
   -1    3   14      2.77      0.00
    0    3   14      0.38      0.00
    1    3   14     -5.63      0.00
    2    3   14      3.24      0.00
    3    3   14     -3.75      0.00
    4    3   14      5.28      0.00
    5    3   14     -3.63      0.00
    6    3   14      1.24      0.00
    7    3   14     -1.11      0.00
    8    3   14      0.33      0.00
    9    3   14      2.05      0.00
   10    3   14     -3.61      0.00
   11    3   14      4.72      0.00
   12    3   14      0.25      0.00
   13    3   14      0.78      0.00
  -10    4   14      1.39      0.00
   -9    4   14      0.70      0.00
   -8    4   14      2.23      0.00
   -7    4   14      3.21      0.00
   -6    4   14     -4.87      0.00
   -5    4   14      2.49      0.00
   -4    4   14     -5.21      0.00
   -3    4   14     -3.15      0.00
   -2    4   14      1.60      0.00
   -1    4   14     -6.41      0.00
    0    4   14      6.79      0.00
    1    4   14     -1.13      0.00
    2    4   14     -0.22      0.00
    3    4   14      1.24      0.00
    4    4   14     -1.34      0.00
    5    4   14      3.42      0.00
    6    4   14      0.95      0.00
    7    4   14      2.12      0.00
    8    4   14     -2.20      0.00
    9    4   14      3.17      0.00
   10    4   14     -0.72      0.00
   11    4   14     -2.08      0.00
   12    4   14      3.15      0.00
   13    4   14     -2.32      0.00
   -9    5   14     -1.71      0.00
   -8    5   14     -4.87      0.00
   -7    5   14      1.16      0.00
   -6    5   14      0.99      0.00
   -5    5   14      1.80      0.00
   -4    5   14      5.58      0.00
   -3    5   14     -5.21      0.00
   -2    5   14      3.21      0.00
   -1    5   14     -5.01      0.00
    0    5   14     -1.19      0.00
    1    5   14      5.40      0.00
    2    5   14     -2.24      0.00
    3    5   14      3.07      0.00
    4    5   14     -1.05      0.00
    5    5   14     -0.32      0.00
    6    5   14      2.02      0.00
    7    5   14      2.58      0.00
    8    5   14     -2.38      0.00
    9    5   14     -0.83      0.00
   10    5   14      3.32      0.00
   11    5   14     -0.38      0.00
   12    5   14     -1.76      0.00
   13    5   14     -1.43      0.00
   -9    6   14      0.73      0.00
   -8    6   14     -1.45      0.00
   -7    6   14     -2.03      0.00
   -6    6   14     -0.47      0.00
   -5    6   14     -2.68      0.00
   -4    6   14      5.63      0.00
   -3    6   14     -1.67      0.00
   -2    6   14     -1.46      0.00
   -1    6   14      2.46      0.00
    0    6   14     -9.08      0.00
    1    6   14      5.86      0.00
    2    6   14     -1.83      0.00
    3    6   14     -1.41      0.00
    4    6   14      5.01      0.00
    5    6   14     -2.04      0.00
    6    6   14      0.85      0.00
    7    6   14      0.47      0.00
    8    6   14      2.64      0.00
    9    6   14     -0.33      0.00
   10    6   14      1.93      0.00
   11    6   14      2.43      0.00
   12    6   14     -0.61      0.00
   13    6   14     -3.12      0.00
   -9    7   14     -0.79      0.00
   -8    7   14      0.57      0.00
   -7    7   14     -0.47      0.00
   -6    7   14     -0.29      0.00
   -5    7   14     -0.20      0.00
   -4    7   14     -2.07      0.00
   -3    7   14      5.55      0.00
   -2    7   14     -8.68      0.00
   -1    7   14      4.13      0.00
    0    7   14     -4.27      0.00
    1    7   14     -0.37      0.00
    2    7   14      9.00      0.00
    3    7   14     -6.25      0.00
    4    7   14      0.25      0.00
    5    7   14     -1.37      0.00
    6    7   14     -2.10      0.00
    7    7   14      1.80      0.00
    8    7   14     -0.87      0.00
    9    7   14     -0.37      0.00
   10    7   14     -1.26      0.00
   11    7   14     -3.89      0.00
   12    7   14     -1.17      0.00
   13    7   14      1.71      0.00
   -9    8   14      4.89      0.00
   -8    8   14     -2.53      0.00
   -7    8   14     -0.35      0.00
   -6    8   14      2.32      0.00
   -5    8   14      2.29      0.00
   -4    8   14     -0.92      0.00
   -3    8   14     -1.68      0.00
   -2    8   14      4.14      0.00
   -1    8   14     -5.44      0.00
    0    8   14      9.35      0.00
    1    8   14     -9.07      0.00
    2    8   14      6.31      0.00
    3    8   14      2.43      0.00
    4    8   14     -5.42      0.00
    5    8   14      0.90      0.00
    6    8   14     -7.79      0.00
    7    8   14     -0.77      0.00
    8    8   14     -2.34      0.00
    9    8   14     -1.32      0.00
   10    8   14     -1.93      0.00
   11    8   14     -1.31      0.00
   12    8   14     -4.08      0.00
   13    8   14      0.85      0.00
   -8    9   14      2.38      0.00
   -7    9   14     -0.55      0.00
   -6    9   14     -2.09      0.00
   -5    9   14     -1.27      0.00
   -4    9   14      0.04      0.00
   -3    9   14     -3.84      0.00
   -2    9   14      0.23      0.00
   -1    9   14      0.58      0.00
    0    9   14     -1.04      0.00
    1    9   14      6.07      0.00
    2    9   14     -7.94      0.00
    3    9   14      3.82      0.00
    4    9   14     -3.91      0.00
    5    9   14      1.90      0.00
    6    9   14      1.50      0.00
    7    9   14     -4.65      0.00
    8    9   14      3.09      0.00
    9    9   14     -1.52      0.00
   10    9   14      1.61      0.00
   11    9   14     -2.23      0.00
   12    9   14      0.79      0.00
   13    9   14     -2.19      0.00
   -8   10   14     -0.19      0.00
   -7   10   14     -0.78      0.00
   -6   10   14      1.48      0.00
   -5   10   14      0.17      0.00
   -4   10   14      1.32      0.00
   -3   10   14      0.48      0.00
   -2   10   14     -5.89      0.00
   -1   10   14     -0.79      0.00
    0   10   14     -4.77      0.00
    1   10   14      3.59      0.00
    2   10   14      1.75      0.00
    3   10   14     -2.24      0.00
    4   10   14     -0.09      0.00
    5   10   14     -4.22      0.00
    6   10   14      6.44      0.00
    7   10   14      1.16      0.00
    8   10   14      0.22      0.00
    9   10   14      0.16      0.00
   10   10   14     -1.46      0.00
   11   10   14      1.43      0.00
   12   10   14     -2.03      0.00
   13   10   14      2.65      0.00
   -7   11   14     -0.38      0.00
   -6   11   14     -0.48      0.00
   -5   11   14     -0.11      0.00
   -4   11   14     -3.90      0.00
   -3   11   14     -2.26      0.00
   -2   11   14     -1.94      0.00
   -1   11   14     -1.98      0.00
    0   11   14      0.88      0.00
    1   11   14     -3.56      0.00
    2   11   14      3.54      0.00
    3   11   14     -0.63      0.00
    4   11   14      3.39      0.00
    5   11   14     -3.97      0.00
    6   11   14     -1.18      0.00
    7   11   14      3.94      0.00
    8   11   14     -2.92      0.00
    9   11   14      0.77      0.00
   10   11   14     -2.31      0.00
   11   11   14      0.32      0.00
   12   11   14      3.88      0.00
   13   11   14      0.09      0.00
   -7   12   14     -0.45      0.00
   -6   12   14     -2.72      0.00
   -5   12   14      0.43      0.00
   -4   12   14      0.67      0.00
   -3   12   14     -0.05      0.00
   -2   12   14      0.03      0.00
   -1   12   14     -0.49      0.00
    0   12   14      2.42      0.00
    1   12   14      1.65      0.00
    2   12   14      1.17      0.00
    3   12   14     -0.51      0.00
    4   12   14     -2.55      0.00
    5   12   14      5.29      0.00
    6   12   14     -4.29      0.00
    7   12   14      1.30      0.00
    8   12   14     -1.12      0.00
    9   12   14     -3.12      0.00
   10   12   14      1.30      0.00
   11   12   14     -2.72      0.00
   12   12   14     -1.60      0.00
   -6   13   14      3.89      0.00
   -5   13   14      0.68      0.00
   -4   13   14      6.49      0.00
   -3   13   14      0.62      0.00
   -2   13   14      2.46      0.00
   -1   13   14     -1.39      0.00
    0   13   14      0.69      0.00
    1   13   14      2.67      0.00
    2   13   14      2.17      0.00
    3   13   14      4.62      0.00
    4   13   14     -1.93      0.00
    5   13   14     -1.10      0.00
    6   13   14     -0.09      0.00
    7   13   14     -4.21      0.00
    8   13   14      1.01      0.00
    9   13   14     -1.40      0.00
   10   13   14      1.39      0.00
   11   13   14      1.48      0.00
   12   13   14     -3.46      0.00
   -5   14   14      0.98      0.00
   -4   14   14     -3.39      0.00
   -3   14   14      2.59      0.00
   -2   14   14     -4.58      0.00
   -1   14   14      5.08      0.00
    0   14   14     -1.16      0.00
    1   14   14      0.78      0.00
    2   14   14     -1.93      0.00
    3   14   14      0.73      0.00
    4   14   14      4.89      0.00
    5   14   14     -3.08      0.00
    6   14   14      1.03      0.00
    7   14   14     -3.00      0.00
    8   14   14     -0.64      0.00
    9   14   14     -0.03      0.00
   10   14   14      2.50      0.00
   11   14   14      2.62      0.00
   12   14   14      1.09      0.00
   -4   15   14      0.97      0.00
   -3   15   14      0.11      0.00
   -2   15   14      1.39      0.00
   -1   15   14     -3.38      0.00
    0   15   14      3.88      0.00
    1   15   14     -2.78      0.00
    2   15   14      0.29      0.00
    3   15   14     -2.38      0.00
    4   15   14      0.32      0.00
    5   15   14      3.60      0.00
    6   15   14      0.98      0.00
    7   15   14      2.77      0.00
    8   15   14     -3.85      0.00
    9   15   14      0.71      0.00
   10   15   14     -3.13      0.00
   11   15   14      4.30      0.00
   -3   16   14     -2.25      0.00
   -2   16   14     -1.05      0.00
   -1   16   14     -1.22      0.00
    0   16   14      0.64      0.00
    1   16   14      1.23      0.00
    2   16   14     -1.78      0.00
    3   16   14      1.04      0.00
    4   16   14     -1.67      0.00
    5   16   14      1.62      0.00
    6   16   14      0.72      0.00
    7   16   14     -0.74      0.00
    8   16   14     -1.91      0.00
    9   16   14     -3.23      0.00
   10   16   14      1.31      0.00
   -2   17   14     -2.82      0.00
   -1   17   14     -1.72      0.00
    0   17   14     -0.08      0.00
    1   17   14      0.97      0.00
    2   17   14     -2.79      0.00
    3   17   14     -3.15      0.00
    4   17   14      0.62      0.00
    5   17   14     -0.48      0.00
    6   17   14      3.09      0.00
    7   17   14     -0.20      0.00
    8   17   14     -2.71      0.00
    9   17   14     -3.92      0.00
   10   17   14     -0.32      0.00
    0   18   14      0.21      0.00
    1   18   14      1.29      0.00
    2   18   14     -0.64      0.00
    3   18   14     -1.13      0.00
    4   18   14     -1.07      0.00
    5   18   14      0.11      0.00
    6   18   14     -1.57      0.00
    7   18   14     -0.19      0.00
    8   18   14     -0.07      0.00
    2   19   14      1.47      0.00
    3   19   14      0.00      0.00
    4   19   14      1.83      0.00
    5   19   14      2.77      0.00
    6   19   14      0.20      0.00
   -3  -11   15     -0.80      0.00
   -2  -11   15     -0.52      0.00
   -1  -11   15     -4.31      0.00
    0  -11   15     -3.87      0.00
    1  -11   15     -1.98      0.00
   -5  -10   15     -1.55      0.00
   -4  -10   15     -1.19      0.00
   -3  -10   15      0.75      0.00
   -2  -10   15     -1.41      0.00
   -1  -10   15     -1.70      0.00
    0  -10   15     -4.74      0.00
    1  -10   15     -0.94      0.00
    2  -10   15      1.67      0.00
    3  -10   15      2.29      0.00
   -6   -9   15     -3.03      0.00
   -5   -9   15      2.40      0.00
   -4   -9   15      4.49      0.00
   -3   -9   15      0.48      0.00
   -2   -9   15      2.51      0.00
   -1   -9   15     -2.04      0.00
    0   -9   15     -0.78      0.00
    1   -9   15     -2.13      0.00
    2   -9   15      3.20      0.00
    3   -9   15      0.71      0.00
    4   -9   15     -0.41      0.00
    5   -9   15     -0.38      0.00
   -7   -8   15      4.74      0.00
   -6   -8   15      2.85      0.00
   -5   -8   15      1.42      0.00
   -4   -8   15      7.54      0.00
   -3   -8   15      3.45      0.00
   -2   -8   15      1.40      0.00
   -1   -8   15      0.43      0.00
    0   -8   15     -3.37      0.00
    1   -8   15     -0.62      0.00
    2   -8   15     -2.56      0.00
    3   -8   15     -2.38      0.00
    4   -8   15     -4.93      0.00
    5   -8   15     -2.07      0.00
    6   -8   15      1.00      0.00
   -8   -7   15     -1.37      0.00
   -7   -7   15     -1.54      0.00
   -6   -7   15      1.99      0.00
   -5   -7   15     -2.16      0.00
   -4   -7   15     -0.03      0.00
   -3   -7   15      1.16      0.00
   -2   -7   15     -3.24      0.00
   -1   -7   15      1.97      0.00
    0   -7   15     -1.39      0.00
    1   -7   15      2.54      0.00
    2   -7   15     -0.56      0.00
    3   -7   15     -0.66      0.00
    4   -7   15     -3.59      0.00
    5   -7   15     -4.22      0.00
    6   -7   15     -1.88      0.00
    7   -7   15     -2.30      0.00
   -8   -6   15     -2.76      0.00
   -7   -6   15      0.60      0.00
   -6   -6   15     -2.00      0.00
   -5   -6   15      0.50      0.00
   -4   -6   15     -1.13      0.00
   -3   -6   15      1.20      0.00
   -2   -6   15     -5.08      0.00
   -1   -6   15     -1.59      0.00
    0   -6   15      3.57      0.00
    1   -6   15     -2.02      0.00
    2   -6   15      3.62      0.00
    3   -6   15     -2.05      0.00
    4   -6   15      3.33      0.00
    5   -6   15      0.28      0.00
    6   -6   15     -0.16      0.00
    7   -6   15      0.76      0.00
    8   -6   15     -3.18      0.00
   -9   -5   15      1.19      0.00
   -8   -5   15      1.14      0.00
   -7   -5   15      0.47      0.00
   -6   -5   15      0.00      0.00
   -5   -5   15      0.42      0.00
   -4   -5   15     -2.08      0.00
   -3   -5   15     -0.20      0.00
   -2   -5   15      0.44      0.00
   -1   -5   15     -4.32      0.00
    0   -5   15      5.66      0.00
    1   -5   15     -0.43      0.00
    2   -5   15     -1.47      0.00
    3   -5   15      1.70      0.00
    4   -5   15      1.06      0.00
    5   -5   15      3.11      0.00
    6   -5   15     -1.83      0.00
    7   -5   15      1.53      0.00
    8   -5   15      5.31      0.00
    9   -5   15      0.86      0.00
   -9   -4   15     -3.32      0.00
   -8   -4   15     -0.12      0.00
   -7   -4   15     -1.71      0.00
   -6   -4   15      3.03      0.00
   -5   -4   15      0.65      0.00
   -4   -4   15     -0.14      0.00
   -3   -4   15     -4.42      0.00
   -2   -4   15      2.17      0.00
   -1   -4   15     -1.54      0.00
    0   -4   15     -0.43      0.00
    1   -4   15      4.11      0.00
    2   -4   15     -7.93      0.00
    3   -4   15      0.49      0.00
    4   -4   15     -1.45      0.00
    5   -4   15      1.15      0.00
    6   -4   15      0.36      0.00
    7   -4   15     -0.54      0.00
    8   -4   15      5.45      0.00
    9   -4   15      2.85      0.00
   -9   -3   15      0.66      0.00
   -8   -3   15     -2.60      0.00
   -7   -3   15     -1.59      0.00
   -6   -3   15     -1.73      0.00
   -5   -3   15      0.22      0.00
   -4   -3   15      1.07      0.00
   -3   -3   15     -0.93      0.00
   -2   -3   15      0.75      0.00
   -1   -3   15      3.98      0.00
    0   -3   15     -3.23      0.00
    1   -3   15      1.78      0.00
    2   -3   15     -3.53      0.00
    3   -3   15     -6.76      0.00
    4   -3   15      2.14      0.00
    5   -3   15     -0.92      0.00
    6   -3   15      1.92      0.00
    7   -3   15     -2.67      0.00
    8   -3   15     -2.76      0.00
    9   -3   15      2.40      0.00
   10   -3   15      0.30      0.00
   -9   -2   15      0.81      0.00
   -8   -2   15     -0.10      0.00
   -7   -2   15     -0.59      0.00
   -6   -2   15     -1.50      0.00
   -5   -2   15      0.83      0.00
   -4   -2   15     -1.48      0.00
   -3   -2   15      3.70      0.00
   -2   -2   15      1.20      0.00
   -1   -2   15      7.53      0.00
    0   -2   15      2.98      0.00
    1   -2   15     -0.65      0.00
    2   -2   15      3.97      0.00
    3   -2   15     -3.55      0.00
    4   -2   15      2.47      0.00
    5   -2   15     -2.75      0.00
    6   -2   15     -5.00      0.00
    7   -2   15     -2.24      0.00
    8   -2   15     -3.65      0.00
    9   -2   15      0.44      0.00
   10   -2   15      3.45      0.00
   -9   -1   15      1.99      0.00
   -8   -1   15     -1.02      0.00
   -7   -1   15     -3.36      0.00
   -6   -1   15     -0.34      0.00
   -5   -1   15      4.15      0.00
   -4   -1   15      4.70      0.00
   -3   -1   15      1.67      0.00
   -2   -1   15      4.52      0.00
   -1   -1   15      1.65      0.00
    0   -1   15      6.08      0.00
    1   -1   15     -2.99      0.00
    2   -1   15      2.32      0.00
    3   -1   15      2.51      0.00
    4   -1   15     -0.06      0.00
    5   -1   15      4.17      0.00
    6   -1   15     -5.60      0.00
    7   -1   15      1.01      0.00
    8   -1   15      0.25      0.00
    9   -1   15     -2.55      0.00
   10   -1   15     -2.42      0.00
   11   -1   15      1.39      0.00
   -9    0   15      1.85      0.00
   -8    0   15      0.92      0.00
   -7    0   15     -2.46      0.00
   -6    0   15     -2.99      0.00
   -5    0   15     -2.71      0.00
   -4    0   15      3.59      0.00
   -3    0   15     -0.84      0.00
   -2    0   15      3.96      0.00
   -1    0   15     -0.41      0.00
    0    0   15     -1.31      0.00
    1    0   15      0.14      0.00
    2    0   15     -6.52      0.00
    3    0   15      5.62      0.00
    4    0   15     -2.35      0.00
    5    0   15      4.00      0.00
    6    0   15      4.45      0.00
    7    0   15     -3.35      0.00
    8    0   15      2.60      0.00
    9    0   15     -1.60      0.00
   10    0   15     -0.25      0.00
   11    0   15     -1.23      0.00
   -9    1   15     -1.53      0.00
   -8    1   15      1.78      0.00
   -7    1   15      0.12      0.00
   -6    1   15      0.45      0.00
   -5    1   15     -2.11      0.00
   -4    1   15     -4.88      0.00
   -3    1   15      2.18      0.00
   -2    1   15     -3.48      0.00
   -1    1   15      5.36      0.00
    0    1   15     -6.77      0.00
    1    1   15     -1.09      0.00
    2    1   15     -4.85      0.00
    3    1   15     -3.56      0.00
    4    1   15      4.37      0.00
    5    1   15     -6.35      0.00
    6    1   15      4.90      0.00
    7    1   15     -1.08      0.00
    8    1   15     -3.14      0.00
    9    1   15     -0.88      0.00
   10    1   15     -1.24      0.00
   11    1   15      3.15      0.00
   12    1   15     -0.38      0.00
   -9    2   15     -0.50      0.00
   -8    2   15      2.59      0.00
   -7    2   15     -1.45      0.00
   -6    2   15     -2.78      0.00
   -5    2   15      1.35      0.00
   -4    2   15     -1.40      0.00
   -3    2   15      0.34      0.00
   -2    2   15      0.59      0.00
   -1    2   15     -3.86      0.00
    0    2   15      5.45      0.00
    1    2   15     -5.16      0.00
    2    2   15      3.40      0.00
    3    2   15     -6.62      0.00
    4    2   15      2.49      0.00
    5    2   15      0.01      0.00
    6    2   15     -3.44      0.00
    7    2   15      2.80      0.00
    8    2   15     -4.70      0.00
    9    2   15      1.20      0.00
   10    2   15     -0.91      0.00
   11    2   15      1.73      0.00
   12    2   15      3.07      0.00
   -9    3   15      0.75      0.00
   -8    3   15     -4.88      0.00
   -7    3   15      3.99      0.00
   -6    3   15     -2.45      0.00
   -5    3   15      0.84      0.00
   -4    3   15      3.01      0.00
   -3    3   15     -3.17      0.00
   -2    3   15      2.05      0.00
   -1    3   15     -3.79      0.00
    0    3   15     -1.53      0.00
    1    3   15      3.20      0.00
    2    3   15     -0.19      0.00
    3    3   15      3.51      0.00
    4    3   15     -4.11      0.00
    5    3   15      2.52      0.00
    6    3   15     -2.33      0.00
    7    3   15      3.65      0.00
    8    3   15      0.07      0.00
    9    3   15      2.06      0.00
   10    3   15      6.21      0.00
   11    3   15     -2.17      0.00
   12    3   15      0.21      0.00
   -9    4   15      2.32      0.00
   -8    4   15     -1.07      0.00
   -7    4   15     -3.52      0.00
   -6    4   15      3.01      0.00
   -5    4   15     -1.10      0.00
   -4    4   15      5.69      0.00
   -3    4   15     -0.51      0.00
   -2    4   15     -1.68      0.00
   -1    4   15      2.44      0.00
    0    4   15     -5.53      0.00
    1    4   15      0.43      0.00
    2    4   15     -1.24      0.00
    3    4   15      2.90      0.00
    4    4   15      0.47      0.00
    5    4   15     -1.54      0.00
    6    4   15     -3.83      0.00
    7    4   15     -0.83      0.00
    8    4   15      4.81      0.00
    9    4   15     -5.22      0.00
   10    4   15      0.33      0.00
   11    4   15     -0.67      0.00
   12    4   15     -1.96      0.00
   -9    5   15      0.82      0.00
   -8    5   15      4.40      0.00
   -7    5   15     -1.68      0.00
   -6    5   15      0.52      0.00
   -5    5   15     -3.54      0.00
   -4    5   15     -4.84      0.00
   -3    5   15      3.77      0.00
   -2    5   15     -3.31      0.00
   -1    5   15      6.81      0.00
    0    5   15      0.80      0.00
    1    5   15     -1.53      0.00
    2    5   15      1.07      0.00
    3    5   15     -3.31      0.00
    4    5   15      1.48      0.00
    5    5   15      0.06      0.00
    6    5   15      1.94      0.00
    7    5   15     -5.79      0.00
    8    5   15      0.72      0.00
    9    5   15     -0.81      0.00
   10    5   15     -3.85      0.00
   11    5   15      0.49      0.00
   12    5   15      0.41      0.00
   13    5   15      2.57      0.00
   -9    6   15     -2.17      0.00
   -8    6   15      0.92      0.00
   -7    6   15      3.29      0.00
   -6    6   15      2.37      0.00
   -5    6   15      3.91      0.00
   -4    6   15     -5.97      0.00
   -3    6   15      0.53      0.00
   -2    6   15      0.25      0.00
   -1    6   15      0.32      0.00
    0    6   15     10.34      0.00
    1    6   15     -7.37      0.00
    2    6   15      2.53      0.00
    3    6   15     -1.42      0.00
    4    6   15     -1.43      0.00
    5    6   15      0.24      0.00
    6    6   15     -0.13      0.00
    7    6   15      1.80      0.00
    8    6   15     -4.01      0.00
    9    6   15      1.42      0.00
   10    6   15     -2.80      0.00
   11    6   15     -0.72      0.00
   12    6   15     -1.21      0.00
   13    6   15      1.70      0.00
   -8    7   15     -0.17      0.00
   -7    7   15      0.65      0.00
   -6    7   15     -1.51      0.00
   -5    7   15      1.18      0.00
   -4    7   15      5.07      0.00
   -3    7   15     -1.74      0.00
   -2    7   15      6.79      0.00
   -1    7   15     -5.72      0.00
    0    7   15      5.71      0.00
    1    7   15      2.63      0.00
    2    7   15     -9.64      0.00
    3    7   15      4.13      0.00
    4    7   15     -2.86      0.00
    5    7   15      3.38      0.00
    6    7   15     -1.26      0.00
    7    7   15     -1.65      0.00
    8    7   15      0.31      0.00
    9    7   15     -1.35      0.00
   10    7   15     -0.58      0.00
   11    7   15     -0.89      0.00
   12    7   15      2.50      0.00
   13    7   15     -1.61      0.00
   -8    8   15     -1.82      0.00
   -7    8   15     -0.30      0.00
   -6    8   15      0.84      0.00
   -5    8   15      0.27      0.00
   -4    8   15     -0.29      0.00
   -3    8   15      1.26      0.00
   -2    8   15     -0.51      0.00
   -1    8   15      5.75      0.00
    0    8   15     -8.45      0.00
    1    8   15      7.19      0.00
    2    8   15     -4.93      0.00
    3    8   15     -0.55      0.00
    4    8   15      2.17      0.00
    5    8   15     -1.34      0.00
    6    8   15      8.83      0.00
    7    8   15      1.53      0.00
    8    8   15      3.10      0.00
    9    8   15      1.01      0.00
   10    8   15      4.20      0.00
   11    8   15      2.95      0.00
   12    8   15      5.08      0.00
   13    8   15      3.35      0.00
   -8    9   15     -1.78      0.00
   -7    9   15     -1.78      0.00
   -6    9   15      2.37      0.00
   -5    9   15     -0.64      0.00
   -4    9   15      1.20      0.00
   -3    9   15      0.50      0.00
   -2    9   15     -0.55      0.00
   -1    9   15      1.22      0.00
    0    9   15      1.05      0.00
    1    9   15     -4.84      0.00
    2    9   15      3.67      0.00
    3    9   15     -2.01      0.00
    4    9   15      6.57      0.00
    5    9   15     -2.14      0.00
    6    9   15     -1.73      0.00
    7    9   15      2.75      0.00
    8    9   15     -0.62      0.00
    9    9   15      4.37      0.00
   10    9   15     -1.77      0.00
   11    9   15      3.53      0.00
   12    9   15     -0.90      0.00
   13    9   15      0.85      0.00
   -7   10   15      0.00      0.00
   -6   10   15     -3.68      0.00
   -5   10   15     -0.94      0.00
   -4   10   15     -2.57      0.00
   -3   10   15      3.59      0.00
   -2   10   15      2.16      0.00
   -1   10   15     -0.33      0.00
    0   10   15      3.33      0.00
    1   10   15     -2.42      0.00
    2   10   15     -0.32      0.00
    3   10   15     -4.84      0.00
    4   10   15      1.16      0.00
    5   10   15      4.09      0.00
    6   10   15     -4.78      0.00
    7   10   15     -3.48      0.00
    8   10   15     -3.16      0.00
    9   10   15      0.23      0.00
   10   10   15      2.62      0.00
   11   10   15     -3.42      0.00
   12   10   15      0.38      0.00
   -7   11   15      1.23      0.00
   -6   11   15      2.24      0.00
   -5   11   15      1.87      0.00
   -4   11   15      0.47      0.00
   -3   11   15     -0.89      0.00
   -2   11   15      3.15      0.00
   -1   11   15      0.69      0.00
    0   11   15      0.20      0.00
    1   11   15     -0.50      0.00
    2   11   15     -1.87      0.00
    3   11   15      3.91      0.00
    4   11   15     -6.18      0.00
    5   11   15      3.47      0.00
    6   11   15      0.67      0.00
    7   11   15      0.83      0.00
    8   11   15      2.52      0.00
    9   11   15     -2.11      0.00
   10   11   15      2.33      0.00
   11   11   15      1.48      0.00
   12   11   15     -1.43      0.00
   -6   12   15      2.21      0.00
   -5   12   15     -1.41      0.00
   -4   12   15      1.03      0.00
   -3   12   15     -0.05      0.00
   -2   12   15      2.24      0.00
   -1   12   15      1.72      0.00
    0   12   15     -2.45      0.00
    1   12   15      0.14      0.00
    2   12   15     -4.49      0.00
    3   12   15      1.78      0.00
    4   12   15      3.50      0.00
    5   12   15     -3.70      0.00
    6   12   15      3.65      0.00
    7   12   15     -3.38      0.00
    8   12   15      1.29      0.00
    9   12   15      1.98      0.00
   10   12   15     -3.43      0.00
   11   12   15      2.31      0.00
   12   12   15      2.11      0.00
   -5   13   15      1.77      0.00
   -4   13   15     -3.71      0.00
   -3   13   15      0.58      0.00
   -2   13   15     -3.25      0.00
   -1   13   15      0.23      0.00
    0   13   15     -2.17      0.00
    1   13   15     -1.97      0.00
    2   13   15      0.34      0.00
    3   13   15     -6.77      0.00
    4   13   15      0.74      0.00
    5   13   15      1.48      0.00
    6   13   15      0.68      0.00
    7   13   15      1.06      0.00
    8   13   15     -2.71      0.00
    9   13   15      2.80      0.00
   10   13   15     -0.75      0.00
   11   13   15     -2.62      0.00
   12   13   15      1.72      0.00
   -5   14   15     -0.48      0.00
   -4   14   15      1.80      0.00
   -3   14   15     -4.62      0.00
   -2   14   15      2.01      0.00
   -1   14   15     -3.36      0.00
    0   14   15      2.43      0.00
    1   14   15     -0.73      0.00
    2   14   15      2.78      0.00
    3   14   15      2.81      0.00
    4   14   15     -3.71      0.00
    5   14   15     -0.47      0.00
    6   14   15     -1.90      0.00
    7   14   15      4.22      0.00
    8   14   15      2.20      0.00
    9   14   15      3.00      0.00
   10   14   15      0.56      0.00
   11   14   15     -5.15      0.00
   -4   15   15     -1.06      0.00
   -3   15   15      1.50      0.00
   -2   15   15      1.29      0.00
   -1   15   15      4.93      0.00
    0   15   15     -1.61      0.00
    1   15   15      2.00      0.00
    2   15   15      0.59      0.00
    3   15   15      2.69      0.00
    4   15   15      1.64      0.00
    5   15   15     -2.26      0.00
    6   15   15     -1.70      0.00
    7   15   15     -3.42      0.00
    8   15   15      3.44      0.00
    9   15   15      0.33      0.00
   10   15   15      4.40      0.00
   11   15   15     -2.58      0.00
   -3   16   15      0.33      0.00
   -2   16   15     -0.29      0.00
   -1   16   15      1.36      0.00
    0   16   15     -0.76      0.00
    1   16   15     -1.17      0.00
    2   16   15      0.07      0.00
    3   16   15      0.27      0.00
    4   16   15      0.14      0.00
    5   16   15      0.93      0.00
    6   16   15      0.17      0.00
    7   16   15     -0.29      0.00
    8   16   15      0.77      0.00
    9   16   15      4.09      0.00
   10   16   15     -0.36      0.00
   -1   17   15     -0.01      0.00
    0   17   15      0.62      0.00
    1   17   15     -0.46      0.00
    2   17   15      1.47      0.00
    3   17   15      0.70      0.00
    4   17   15      1.08      0.00
    5   17   15      0.47      0.00
    6   17   15     -1.56      0.00
    7   17   15     -1.13      0.00
    8   17   15      1.29      0.00
    9   17   15      3.97      0.00
    0   18   15     -0.38      0.00
    1   18   15     -0.98      0.00
    2   18   15      2.84      0.00
    3   18   15      1.71      0.00
    4   18   15      0.21      0.00
    5   18   15     -1.82      0.00
    6   18   15     -0.76      0.00
    7   18   15     -2.21      0.00
    8   18   15     -1.25      0.00
    4   19   15     -2.65      0.00
    5   19   15     -3.48      0.00
   -3  -10   16     -0.10      0.00
   -2  -10   16     -0.95      0.00
   -1  -10   16     -1.96      0.00
    0  -10   16      2.97      0.00
    1  -10   16      1.24      0.00
   -5   -9   16      1.24      0.00
   -4   -9   16     -3.31      0.00
   -3   -9   16     -0.53      0.00
   -2   -9   16     -0.26      0.00
   -1   -9   16      2.76      0.00
    0   -9   16      0.68      0.00
    1   -9   16      1.59      0.00
    2   -9   16     -2.47      0.00
    3   -9   16     -0.07      0.00
   -6   -8   16     -1.55      0.00
   -5   -8   16      0.94      0.00
   -4   -8   16     -4.28      0.00
   -3   -8   16     -6.28      0.00
   -2   -8   16     -1.95      0.00
   -1   -8   16      1.20      0.00
    0   -8   16      4.09      0.00
    1   -8   16      0.62      0.00
    2   -8   16      0.69      0.00
    3   -8   16      0.64      0.00
    4   -8   16      6.07      0.00
    5   -8   16      3.71      0.00
   -7   -7   16     -0.36      0.00
   -6   -7   16     -2.17      0.00
   -5   -7   16     -0.67      0.00
   -4   -7   16     -1.77      0.00
   -3   -7   16     -1.63      0.00
   -2   -7   16      0.69      0.00
   -1   -7   16     -2.68      0.00
    0   -7   16      1.83      0.00
    1   -7   16      0.37      0.00
    2   -7   16      1.88      0.00
    3   -7   16      0.70      0.00
    4   -7   16      4.88      0.00
    5   -7   16      5.62      0.00
    6   -7   16      2.06      0.00
   -7   -6   16      0.62      0.00
   -6   -6   16      0.94      0.00
   -5   -6   16      0.38      0.00
   -4   -6   16     -0.14      0.00
   -3   -6   16     -1.18      0.00
   -2   -6   16      4.47      0.00
   -1   -6   16      4.16      0.00
    0   -6   16     -2.00      0.00
    1   -6   16      1.63      0.00
    2   -6   16     -2.08      0.00
    3   -6   16      1.78      0.00
    4   -6   16     -4.61      0.00
    5   -6   16      0.28      0.00
    6   -6   16      0.91      0.00
    7   -6   16      0.70      0.00
   -8   -5   16     -1.00      0.00
   -7   -5   16     -0.40      0.00
   -6   -5   16     -2.34      0.00
   -5   -5   16      0.86      0.00
   -4   -5   16      3.63      0.00
   -3   -5   16     -1.58      0.00
   -2   -5   16     -1.80      0.00
   -1   -5   16      2.65      0.00
    0   -5   16     -3.88      0.00
    1   -5   16     -2.28      0.00
    2   -5   16     -1.15      0.00
    3   -5   16     -0.12      0.00
    4   -5   16      0.33      0.00
    5   -5   16     -2.33      0.00
    6   -5   16      1.06      0.00
    7   -5   16     -0.94      0.00
    8   -5   16     -2.99      0.00
   -8   -4   16     -0.46      0.00
   -7   -4   16     -0.66      0.00
   -6   -4   16     -1.59      0.00
   -5   -4   16     -1.66      0.00
   -4   -4   16     -0.32      0.00
   -3   -4   16      3.11      0.00
   -2   -4   16     -1.73      0.00
   -1   -4   16      1.81      0.00
    0   -4   16     -1.88      0.00
    1   -4   16     -4.25      0.00
    2   -4   16      4.63      0.00
    3   -4   16      0.50      0.00
    4   -4   16      2.70      0.00
    5   -4   16     -4.49      0.00
    6   -4   16     -1.51      0.00
    7   -4   16      0.05      0.00
    8   -4   16     -2.40      0.00
    9   -4   16     -3.67      0.00
   -8   -3   16      3.72      0.00
   -7   -3   16      2.65      0.00
   -6   -3   16      2.75      0.00
   -5   -3   16      0.44      0.00
   -4   -3   16     -2.15      0.00
   -3   -3   16      0.49      0.00
   -2   -3   16     -1.09      0.00
   -1   -3   16     -1.86      0.00
    0   -3   16      5.40      0.00
    1   -3   16     -0.72      0.00
    2   -3   16      4.94      0.00
    3   -3   16      4.11      0.00
    4   -3   16     -0.35      0.00
    5   -3   16      1.63      0.00
    6   -3   16     -1.64      0.00
    7   -3   16      3.39      0.00
    8   -3   16      0.99      0.00
    9   -3   16     -3.18      0.00
   -9   -2   16     -0.15      0.00
   -8   -2   16      0.17      0.00
   -7   -2   16      4.09      0.00
   -6   -2   16      0.48      0.00
   -5   -2   16     -1.33      0.00
   -4   -2   16      2.40      0.00
   -3   -2   16     -2.05      0.00
   -2   -2   16      0.99      0.00
   -1   -2   16     -7.75      0.00
    0   -2   16     -1.51      0.00
    1   -2   16      1.00      0.00
    2   -2   16     -1.97      0.00
    3   -2   16      3.48      0.00
    4   -2   16     -2.63      0.00
    5   -2   16      6.40      0.00
    6   -2   16      3.14      0.00
    7   -2   16      0.25      0.00
    8   -2   16      0.87      0.00
    9   -2   16      1.89      0.00
   10   -2   16     -0.43      0.00
   -9   -1   16     -3.36      0.00
   -8   -1   16     -1.00      0.00
   -7   -1   16      0.81      0.00
   -6   -1   16      2.96      0.00
   -5   -1   16     -2.49      0.00
   -4   -1   16     -4.02      0.00
   -3   -1   16     -0.26      0.00
   -2   -1   16     -3.39      0.00
   -1   -1   16     -1.21      0.00
    0   -1   16     -8.76      0.00
    1   -1   16      1.15      0.00
    2   -1   16     -4.09      0.00
    3   -1   16      1.44      0.00
    4   -1   16     -0.19      0.00
    5   -1   16     -5.95      0.00
    6   -1   16      4.61      0.00
    7   -1   16      0.23      0.00
    8   -1   16      3.20      0.00
    9   -1   16      2.29      0.00
   10   -1   16      3.76      0.00
   -9    0   16     -1.14      0.00
   -8    0   16     -2.68      0.00
   -7    0   16     -0.88      0.00
   -6    0   16      1.19      0.00
   -5    0   16      2.69      0.00
   -4    0   16     -2.22      0.00
   -3    0   16     -0.53      0.00
   -2    0   16     -4.51      0.00
   -1    0   16     -1.13      0.00
    0    0   16     -0.66      0.00
    1    0   16      1.19      0.00
    2    0   16      7.11      0.00
    3    0   16     -5.13      0.00
    4    0   16      2.93      0.00
    5    0   16     -5.70      0.00
    6    0   16     -4.33      0.00
    7    0   16      3.39      0.00
    8    0   16      1.57      0.00
    9    0   16      1.95      0.00
   10    0   16     -0.73      0.00
   11    0   16      1.26      0.00
   -9    1   16      1.16      0.00
   -8    1   16     -0.32      0.00
   -7    1   16      2.51      0.00
   -6    1   16     -0.25      0.00
   -5    1   16     -0.21      0.00
   -4    1   16     -0.34      0.00
   -3    1   16     -2.39      0.00
   -2    1   16      3.16      0.00
   -1    1   16     -3.42      0.00
    0    1   16      4.55      0.00
    1    1   16     -0.90      0.00
    2    1   16      6.65      0.00
    3    1   16      1.80      0.00
    4    1   16     -4.06      0.00
    5    1   16      5.90      0.00
    6    1   16     -4.12      0.00
    7    1   16     -0.89      0.00
    8    1   16     -0.09      0.00
    9    1   16      2.45      0.00
   10    1   16      0.88      0.00
   11    1   16     -2.01      0.00
   -9    2   16      4.22      0.00
   -8    2   16     -0.88      0.00
   -7    2   16      1.15      0.00
   -6    2   16      1.87      0.00
   -5    2   16      0.14      0.00
   -4    2   16     -0.34      0.00
   -3    2   16     -2.50      0.00
   -2    2   16     -0.08      0.00
   -1    2   16      2.96      0.00
    0    2   16     -1.98      0.00
    1    2   16      2.66      0.00
    2    2   16     -2.90      0.00
    3    2   16      7.59      0.00
    4    2   16     -0.91      0.00
    5    2   16      3.55      0.00
    6    2   16      1.72      0.00
    7    2   16     -3.27      0.00
    8    2   16      0.97      0.00
    9    2   16     -2.92      0.00
   10    2   16      1.50      0.00
   11    2   16     -1.48      0.00
   -9    3   16     -1.26      0.00
   -8    3   16      4.27      0.00
   -7    3   16     -5.11      0.00
   -6    3   16      2.86      0.00
   -5    3   16     -1.03      0.00
   -4    3   16      2.92      0.00
   -3    3   16      3.53      0.00
   -2    3   16     -1.08      0.00
   -1    3   16      2.42      0.00
    0    3   16      0.88      0.00
    1    3   16      0.13      0.00
    2    3   16     -0.89      0.00
    3    3   16     -1.66      0.00
    4    3   16      1.84      0.00
    5    3   16     -1.07      0.00
    6    3   16      4.11      0.00
    7    3   16     -5.74      0.00
    8    3   16      1.71      0.00
    9    3   16     -1.48      0.00
   10    3   16     -4.16      0.00
   11    3   16      0.46      0.00
   12    3   16     -1.53      0.00
   -9    4   16     -2.89      0.00
   -8    4   16      1.24      0.00
   -7    4   16      4.33      0.00
   -6    4   16     -0.64      0.00
   -5    4   16      2.36      0.00
   -4    4   16     -5.99      0.00
   -3    4   16      0.43      0.00
   -2    4   16      0.11      0.00
   -1    4   16      0.41      0.00
    0    4   16      2.67      0.00
    1    4   16     -0.81      0.00
    2    4   16      0.91      0.00
    3    4   16     -3.22      0.00
    4    4   16      0.18      0.00
    5    4   16     -3.24      0.00
    6    4   16      4.34      0.00
    7    4   16      1.81      0.00
    8    4   16     -4.63      0.00
    9    4   16      6.34      0.00
   10    4   16     -2.31      0.00
   11    4   16      1.53      0.00
   12    4   16      0.87      0.00
   -8    5   16     -1.89      0.00
   -7    5   16      1.05      0.00
   -6    5   16     -2.60      0.00
   -5    5   16      2.66      0.00
   -4    5   16      2.33      0.00
   -3    5   16     -2.25      0.00
   -2    5   16      2.64      0.00
   -1    5   16     -4.82      0.00
    0    5   16      1.33      0.00
    1    5   16      0.63      0.00
    2    5   16      0.67      0.00
    3    5   16      1.35      0.00
    4    5   16     -1.03      0.00
    5    5   16      1.00      0.00
    6    5   16     -4.79      0.00
    7    5   16      4.22      0.00
    8    5   16     -2.21      0.00
    9    5   16     -0.33      0.00
   10    5   16      3.39      0.00
   11    5   16     -0.29      0.00
   12    5   16      2.65      0.00
   -8    6   16     -2.08      0.00
   -7    6   16     -1.33      0.00
   -6    6   16     -0.51      0.00
   -5    6   16     -3.90      0.00
   -4    6   16      2.02      0.00
   -3    6   16      0.64      0.00
   -2    6   16      3.95      0.00
   -1    6   16     -0.28      0.00
    0    6   16     -9.31      0.00
    1    6   16      3.70      0.00
    2    6   16     -2.04      0.00
    3    6   16      2.62      0.00
    4    6   16     -0.91      0.00
    5    6   16      1.51      0.00
    6    6   16      0.85      0.00
    7    6   16     -2.83      0.00
    8    6   16      1.98      0.00
    9    6   16     -0.25      0.00
   10    6   16      5.50      0.00
   11    6   16      1.34      0.00
   12    6   16      1.10      0.00
   -8    7   16      2.28      0.00
   -7    7   16     -0.48      0.00
   -6    7   16      0.22      0.00
   -5    7   16     -1.84      0.00
   -4    7   16     -2.58      0.00
   -3    7   16     -3.39      0.00
   -2    7   16     -5.74      0.00
   -1    7   16      4.11      0.00
    0    7   16     -4.97      0.00
    1    7   16     -3.52      0.00
    2    7   16      4.69      0.00
    3    7   16     -2.39      0.00
    4    7   16      4.48      0.00
    5    7   16     -4.14      0.00
    6    7   16      1.59      0.00
    7    7   16      2.03      0.00
    8    7   16      2.25      0.00
    9    7   16      1.57      0.00
   10    7   16      0.30      0.00
   11    7   16      1.82      0.00
   12    7   16     -3.47      0.00
   -7    8   16      1.64      0.00
   -6    8   16     -1.30      0.00
   -5    8   16     -0.88      0.00
   -4    8   16      1.52      0.00
   -3    8   16      1.78      0.00
   -2    8   16     -2.86      0.00
   -1    8   16     -4.32      0.00
    0    8   16      3.72      0.00
    1    8   16     -4.28      0.00
    2    8   16      4.91      0.00
    3    8   16     -0.82      0.00
    4    8   16     -0.39      0.00
    5    8   16      2.69      0.00
    6    8   16     -4.51      0.00
    7    8   16     -0.53      0.00
    8    8   16     -2.44      0.00
    9    8   16     -0.84      0.00
   10    8   16     -4.33      0.00
   11    8   16     -3.10      0.00
   12    8   16     -3.10      0.00
   -7    9   16      4.24      0.00
   -6    9   16      0.42      0.00
   -5    9   16      1.19      0.00
   -4    9   16     -5.74      0.00
   -3    9   16     -1.86      0.00
   -2    9   16      0.78      0.00
   -1    9   16     -1.78      0.00
    0    9   16     -1.08      0.00
    1    9   16     -0.01      0.00
    2    9   16      1.47      0.00
    3    9   16      4.32      0.00
    4    9   16     -6.85      0.00
    5    9   16      0.54      0.00
    6    9   16     -0.75      0.00
    7    9   16     -0.09      0.00
    8    9   16     -1.49      0.00
    9    9   16     -5.04      0.00
   10    9   16      1.27      0.00
   11    9   16     -1.90      0.00
   12    9   16      1.07      0.00
   -7   10   16     -1.26      0.00
   -6   10   16      0.44      0.00
   -5   10   16     -0.80      0.00
   -4   10   16      5.56      0.00
   -3   10   16     -4.40      0.00
   -2   10   16     -1.61      0.00
   -1   10   16     -1.28      0.00
    0   10   16      0.42      0.00
    1   10   16      5.10      0.00
    2   10   16     -3.74      0.00
    3   10   16      5.37      0.00
    4   10   16     -1.94      0.00
    5   10   16     -4.51      0.00
    6   10   16     -1.16      0.00
    7   10   16     -1.25      0.00
    8   10   16      4.53      0.00
    9   10   16      0.28      0.00
   10   10   16     -3.51      0.00
   11   10   16      1.27      0.00
   12   10   16     -1.09      0.00
   -6   11   16     -1.06      0.00
   -5   11   16     -0.15      0.00
   -4   11   16      2.71      0.00
   -3   11   16      3.73      0.00
   -2   11   16     -2.95      0.00
   -1   11   16      0.67      0.00
    0   11   16     -0.53      0.00
    1   11   16      3.09      0.00
    2   11   16      2.91      0.00
    3   11   16     -5.35      0.00
    4   11   16      7.21      0.00
    5   11   16     -2.16      0.00
    6   11   16      3.58      0.00
    7   11   16     -1.52      0.00
    8   11   16     -1.65      0.00
    9   11   16      2.81      0.00
   10   11   16     -1.04      0.00
   11   11   16     -2.32      0.00
   12   11   16      0.22      0.00
   -5   12   16     -2.25      0.00
   -4   12   16     -4.36      0.00
   -3   12   16     -0.44      0.00
   -2   12   16     -1.66      0.00
   -1   12   16      0.33      0.00
    0   12   16      1.78      0.00
    1   12   16     -2.11      0.00
    2   12   16      4.73      0.00
    3   12   16     -0.03      0.00
    4   12   16     -2.57      0.00
    5   12   16      2.44      0.00
    6   12   16     -1.87      0.00
    7   12   16      6.74      0.00
    8   12   16     -0.41      0.00
    9   12   16     -1.84      0.00
   10   12   16      3.27      0.00
   11   12   16     -0.57      0.00
   12   12   16     -0.86      0.00
   -5   13   16     -2.87      0.00
   -4   13   16      2.67      0.00
   -3   13   16      2.33      0.00
   -2   13   16      3.36      0.00
   -1   13   16     -3.05      0.00
    0   13   16      0.05      0.00
    1   13   16      1.45      0.00
    2   13   16     -1.06      0.00
    3   13   16      3.40      0.00
    4   13   16      0.23      0.00
    5   13   16      0.90      0.00
    6   13   16     -2.23      0.00
    7   13   16     -0.99      0.00
    8   13   16      2.52      0.00
    9   13   16     -2.45      0.00
   10   13   16     -0.29      0.00
   11   13   16      2.99      0.00
   -4   14   16     -1.57      0.00
   -3   14   16      1.08      0.00
   -2   14   16     -2.29      0.00
   -1   14   16      1.26      0.00
    0   14   16     -1.03      0.00
    1   14   16      1.94      0.00
    2   14   16     -0.95      0.00
    3   14   16     -0.94      0.00
    4   14   16      1.88      0.00
    5   14   16      2.69      0.00
    6   14   16      1.93      0.00
    7   14   16     -3.96      0.00
    8   14   16     -1.12      0.00
    9   14   16     -3.48      0.00
   10   14   16     -3.04      0.00
   11   14   16      3.53      0.00
   -3   15   16     -1.64      0.00
   -2   15   16     -1.10      0.00
   -1   15   16     -2.46      0.00
    0   15   16      1.70      0.00
    1   15   16      0.11      0.00
    2   15   16     -2.47      0.00
    3   15   16     -4.39      0.00
    4   15   16     -3.34      0.00
    5   15   16     -2.78      0.00
    6   15   16      1.57      0.00
    7   15   16      3.16      0.00
    8   15   16     -1.60      0.00
    9   15   16     -0.62      0.00
   10   15   16     -5.08      0.00
   -2   16   16      2.35      0.00
   -1   16   16     -2.19      0.00
    0   16   16     -2.43      0.00
    1   16   16     -1.67      0.00
    2   16   16      1.31      0.00
    3   16   16     -3.61      0.00
    4   16   16     -1.85      0.00
    5   16   16     -2.52      0.00
    6   16   16     -1.52      0.00
    7   16   16      1.87      0.00
    8   16   16      1.73      0.00
    9   16   16     -2.93      0.00
    0   17   16      0.02      0.00
    1   17   16      0.09      0.00
    2   17   16     -0.97      0.00
    3   17   16      3.55      0.00
    4   17   16      0.58      0.00
    5   17   16      2.16      0.00
    6   17   16     -0.11      0.00
    7   17   16      1.16      0.00
    8   17   16     -0.47      0.00
    2   18   16     -2.27      0.00
    3   18   16     -1.58      0.00
    4   18   16      1.85      0.00
    5   18   16      2.24      0.00
    6   18   16      1.18      0.00
    7   18   16      0.64      0.00
   -2   -9   17     -0.88      0.00
   -1   -9   17     -2.72      0.00
    0   -9   17     -0.87      0.00
    1   -9   17     -0.35      0.00
   -4   -8   17      1.69      0.00
   -3   -8   17      5.42      0.00
   -2   -8   17      2.74      0.00
   -1   -8   17     -0.58      0.00
    0   -8   17     -5.23      0.00
    1   -8   17     -2.46      0.00
    2   -8   17      1.00      0.00
    3   -8   17      1.28      0.00
   -5   -7   17      0.69      0.00
   -4   -7   17      1.10      0.00
   -3   -7   17      1.80      0.00
   -2   -7   17      1.22      0.00
   -1   -7   17      1.32      0.00
    0   -7   17     -1.42      0.00
    1   -7   17     -2.41      0.00
    2   -7   17     -3.52      0.00
    3   -7   17     -0.37      0.00
    4   -7   17     -3.00      0.00
    5   -7   17     -4.96      0.00
   -6   -6   17      1.90      0.00
   -5   -6   17     -1.93      0.00
   -4   -6   17      1.14      0.00
   -3   -6   17      3.48      0.00
   -2   -6   17      0.15      0.00
   -1   -6   17     -5.29      0.00
    0   -6   17     -0.10      0.00
    1   -6   17     -0.90      0.00
    2   -6   17      0.74      0.00
    3   -6   17     -3.55      0.00
    4   -6   17      1.54      0.00
    5   -6   17     -1.56      0.00
    6   -6   17     -0.96      0.00
   -7   -5   17     -0.54      0.00
   -6   -5   17      1.53      0.00
   -5   -5   17      0.34      0.00
   -4   -5   17     -3.24      0.00
   -3   -5   17      1.24      0.00
   -2   -5   17      1.05      0.00
   -1   -5   17      0.70      0.00
    0   -5   17      0.86      0.00
    1   -5   17      2.54      0.00
    2   -5   17      0.90      0.00
    3   -5   17     -0.57      0.00
    4   -5   17     -0.50      0.00
    5   -5   17      4.07      0.00
    6   -5   17      0.95      0.00
    7   -5   17     -0.08      0.00
   -7   -4   17      1.38      0.00
   -6   -4   17      0.22      0.00
   -5   -4   17      1.87      0.00
   -4   -4   17     -1.13      0.00
   -3   -4   17     -2.30      0.00
   -2   -4   17      0.97      0.00
   -1   -4   17     -2.01      0.00
    0   -4   17      2.65      0.00
    1   -4   17      4.34      0.00
    2   -4   17      0.31      0.00
    3   -4   17      1.60      0.00
    4   -4   17     -1.90      0.00
    5   -4   17      1.98      0.00
    6   -4   17     -0.71      0.00
    7   -4   17     -0.44      0.00
    8   -4   17      2.87      0.00
   -7   -3   17     -1.40      0.00
   -6   -3   17      1.37      0.00
   -5   -3   17     -1.09      0.00
   -4   -3   17     -0.69      0.00
   -3   -3   17     -1.21      0.00
   -2   -3   17      2.88      0.00
   -1   -3   17      0.51      0.00
    0   -3   17     -4.77      0.00
    1   -3   17      0.70      0.00
    2   -3   17     -3.07      0.00
    3   -3   17     -2.96      0.00
    4   -3   17     -3.46      0.00
    5   -3   17     -3.87      0.00
    6   -3   17      3.53      0.00
    7   -3   17      2.42      0.00
    8   -3   17      2.36      0.00
    9   -3   17      0.66      0.00
   -8   -2   17     -0.67      0.00
   -7   -2   17     -4.97      0.00
   -6   -2   17     -2.33      0.00
   -5   -2   17      1.06      0.00
   -4   -2   17     -1.22      0.00
   -3   -2   17      0.13      0.00
   -2   -2   17     -1.19      0.00
   -1   -2   17      6.09      0.00
    0   -2   17      0.78      0.00
    1   -2   17     -0.12      0.00
    2   -2   17     -1.53      0.00
    3   -2   17     -6.45      0.00
    4   -2   17      2.48      0.00
    5   -2   17     -2.67      0.00
    6   -2   17      0.09      0.00
    7   -2   17     -1.68      0.00
    8   -2   17     -1.27      0.00
    9   -2   17     -2.75      0.00
   -8   -1   17      2.46      0.00
   -7   -1   17      0.86      0.00
   -6   -1   17     -4.07      0.00
   -5   -1   17      0.36      0.00
   -4   -1   17      3.59      0.00
   -3   -1   17      1.08      0.00
   -2   -1   17      1.89      0.00
   -1   -1   17      1.13      0.00
    0   -1   17      5.09      0.00
    1   -1   17     -1.63      0.00
    2   -1   17      5.83      0.00
    3   -1   17     -1.07      0.00
    4   -1   17      1.18      0.00
    5   -1   17      4.25      0.00
    6   -1   17     -6.15      0.00
    7   -1   17     -3.89      0.00
    8   -1   17     -5.65      0.00
    9   -1   17      2.12      0.00
   10   -1   17     -2.48      0.00
   -8    0   17      2.23      0.00
   -7    0   17      0.37      0.00
   -6    0   17      0.75      0.00
   -5    0   17      0.07      0.00
   -4    0   17      0.71      0.00
   -3    0   17      1.19      0.00
   -2    0   17      2.68      0.00
   -1    0   17      1.55      0.00
    0    0   17      4.27      0.00
    1    0   17      0.57      0.00
    2    0   17     -4.16      0.00
    3    0   17      6.22      0.00
    4    0   17     -3.80      0.00
    5    0   17      2.30      0.00
    6    0   17      1.83      0.00
    7    0   17      0.79      0.00
    8    0   17     -1.85      0.00
    9    0   17     -4.02      0.00
   10    0   17     -0.61      0.00
   -8    1   17     -0.86      0.00
   -7    1   17     -1.52      0.00
   -6    1   17      2.01      0.00
   -5    1   17      1.25      0.00
   -4    1   17      3.94      0.00
   -3    1   17      1.21      0.00
   -2    1   17     -0.63      0.00
   -1    1   17      1.68      0.00
    0    1   17     -2.08      0.00
    1    1   17      3.24      0.00
    2    1   17     -6.45      0.00
    3    1   17     -3.63      0.00
    4    1   17      1.07      0.00
    5    1   17     -2.61      0.00
    6    1   17      5.53      0.00
    7    1   17      1.78      0.00
    8    1   17      2.99      0.00
    9    1   17     -4.14      0.00
   10    1   17     -0.20      0.00
   11    1   17      1.01      0.00
   -8    2   17      0.62      0.00
   -7    2   17     -0.49      0.00
   -6    2   17     -2.02      0.00
   -5    2   17     -1.84      0.00
   -4    2   17     -2.17      0.00
   -3    2   17      2.78      0.00
   -2    2   17      1.11      0.00
   -1    2   17     -0.42      0.00
    0    2   17     -1.95      0.00
    1    2   17     -3.33      0.00
    2    2   17      1.31      0.00
    3    2   17     -5.09      0.00
    4    2   17      1.76      0.00
    5    2   17     -5.53      0.00
    6    2   17     -1.07      0.00
    7    2   17      1.79      0.00
    8    2   17     -0.13      0.00
    9    2   17      4.17      0.00
   10    2   17     -2.49      0.00
   11    2   17      1.40      0.00
   -8    3   17     -5.47      0.00
   -7    3   17      2.06      0.00
   -6    3   17     -5.04      0.00
   -5    3   17      0.27      0.00
   -4    3   17     -3.71      0.00
   -3    3   17     -1.59      0.00
   -2    3   17      0.17      0.00
   -1    3   17     -1.24      0.00
    0    3   17      0.20      0.00
    1    3   17     -0.08      0.00
    2    3   17      1.21      0.00
    3    3   17     -1.90      0.00
    4    3   17      0.20      0.00
    5    3   17     -0.47      0.00
    6    3   17     -7.71      0.00
    7    3   17      4.33      0.00
    8    3   17     -2.13      0.00
    9    3   17      2.68      0.00
   10    3   17      4.11      0.00
   11    3   17      0.27      0.00
   -8    4   17     -1.03      0.00
   -7    4   17     -2.04      0.00
   -6    4   17      2.21      0.00
   -5    4   17     -1.99      0.00
   -4    4   17      5.05      0.00
   -3    4   17      0.33      0.00
   -2    4   17      0.08      0.00
   -1    4   17     -3.36      0.00
    0    4   17     -1.54      0.00
    1    4   17     -1.06      0.00
    2    4   17      0.62      0.00
    3    4   17      2.11      0.00
    4    4   17     -2.29      0.00
    5    4   17      6.33      0.00
    6    4   17     -1.72      0.00
    7    4   17     -0.15      0.00
    8    4   17      5.18      0.00
    9    4   17     -4.93      0.00
   10    4   17      3.87      0.00
   11    4   17     -2.36      0.00
   -8    5   17      1.24      0.00
   -7    5   17     -2.66      0.00
   -6    5   17      0.49      0.00
   -5    5   17     -2.01      0.00
   -4    5   17      0.10      0.00
   -3    5   17     -1.51      0.00
   -2    5   17     -0.80      0.00
   -1    5   17      2.46      0.00
    0    5   17     -1.25      0.00
    1    5   17      1.57      0.00
    2    5   17     -1.68      0.00
    3    5   17      3.42      0.00
    4    5   17      0.95      0.00
    5    5   17     -1.21      0.00
    6    5   17      4.32      0.00
    7    5   17     -1.48      0.00
    8    5   17      3.16      0.00
    9    5   17     -2.01      0.00
   10    5   17     -5.88      0.00
   11    5   17     -1.11      0.00
   12    5   17     -4.91      0.00
   -7    6   17     -0.51      0.00
   -6    6   17     -0.85      0.00
   -5    6   17      1.50      0.00
   -4    6   17      0.52      0.00
   -3    6   17      2.32      0.00
   -2    6   17     -5.31      0.00
   -1    6   17      0.99      0.00
    0    6   17      3.88      0.00
    1    6   17      0.41      0.00
    2    6   17      2.85      0.00
    3    6   17     -4.64      0.00
    4    6   17      0.95      0.00
    5    6   17     -2.28      0.00
    6    6   17     -0.40      0.00
    7    6   17      0.23      0.00
    8    6   17      0.94      0.00
    9    6   17      1.28      0.00
   10    6   17     -2.79      0.00
   11    6   17      1.24      0.00
   12    6   17      0.48      0.00
   -7    7   17      0.92      0.00
   -6    7   17      1.05      0.00
   -5    7   17      1.16      0.00
   -4    7   17     -1.75      0.00
   -3    7   17      5.42      0.00
   -2    7   17      3.26      0.00
   -1    7   17     -3.43      0.00
    0    7   17      3.74      0.00
    1    7   17      0.53      0.00
    2    7   17     -0.57      0.00
    3    7   17      1.23      0.00
    4    7   17     -4.14      0.00
    5    7   17      1.88      0.00
    6    7   17     -1.04      0.00
    7    7   17      0.04      0.00
    8    7   17     -3.14      0.00
    9    7   17      0.89      0.00
   10    7   17     -0.82      0.00
   11    7   17     -1.83      0.00
   12    7   17      1.68      0.00
   -7    8   17     -4.50      0.00
   -6    8   17     -1.82      0.00
   -5    8   17      0.95      0.00
   -4    8   17      0.83      0.00
   -3    8   17     -3.50      0.00
   -2    8   17      4.63      0.00
   -1    8   17      2.52      0.00
    0    8   17      2.85      0.00
    1    8   17      3.38      0.00
    2    8   17     -6.08      0.00
    3    8   17      1.16      0.00
    4    8   17      0.63      0.00
    5    8   17     -1.72      0.00
    6    8   17     -0.41      0.00
    7    8   17     -1.64      0.00
    8    8   17      0.14      0.00
    9    8   17     -2.01      0.00
   10    8   17      0.59      0.00
   11    8   17     -0.69      0.00
   12    8   17      1.11      0.00
   -6    9   17      0.01      0.00
   -5    9   17     -0.22      0.00
   -4    9   17      4.85      0.00
   -3    9   17      2.95      0.00
   -2    9   17      0.81      0.00
   -1    9   17      2.14      0.00
    0    9   17     -3.18      0.00
    1    9   17      1.93      0.00
    2    9   17     -0.83      0.00
    3    9   17     -3.27      0.00
    4    9   17      5.02      0.00
    5    9   17      1.62      0.00
    6    9   17      3.71      0.00
    7    9   17     -2.29      0.00
    8    9   17      1.13      0.00
    9    9   17      4.15      0.00
   10    9   17      2.30      0.00
   11    9   17      3.36      0.00
   12    9   17      0.98      0.00
   -6   10   17      0.93      0.00
   -5   10   17      1.14      0.00
   -4   10   17     -5.08      0.00
   -3   10   17      3.07      0.00
   -2   10   17      1.06      0.00
   -1   10   17      2.83      0.00
    0   10   17     -0.84      0.00
    1   10   17     -4.70      0.00
    2   10   17      5.52      0.00
    3   10   17     -3.67      0.00
    4   10   17      1.58      0.00
    5   10   17      2.81      0.00
    6   10   17      3.25      0.00
    7   10   17      5.99      0.00
    8   10   17     -2.94      0.00
    9   10   17      0.04      0.00
   10   10   17      2.29      0.00
   11   10   17      0.59      0.00
   -5   11   17      3.08      0.00
   -4   11   17     -1.26      0.00
   -3   11   17     -3.50      0.00
   -2   11   17      0.18      0.00
   -1   11   17     -0.29      0.00
    0   11   17      3.82      0.00
    1   11   17     -2.18      0.00
    2   11   17     -5.72      0.00
    3   11   17      1.70      0.00
    4   11   17     -6.37      0.00
    5   11   17      1.54      0.00
    6   11   17     -4.75      0.00
    7   11   17      1.13      0.00
    8   11   17      2.12      0.00
    9   11   17     -1.84      0.00
   10   11   17     -0.56      0.00
   11   11   17      0.88      0.00
   -5   12   17      3.10      0.00
   -4   12   17      2.34      0.00
   -3   12   17     -2.57      0.00
   -2   12   17      2.49      0.00
   -1   12   17     -0.68      0.00
    0   12   17     -1.86      0.00
    1   12   17     -2.67      0.00
    2   12   17     -3.65      0.00
    3   12   17      1.54      0.00
    4   12   17      1.05      0.00
    5   12   17     -2.39      0.00
    6   12   17      1.53      0.00
    7   12   17     -5.80      0.00
    8   12   17      0.20      0.00
    9   12   17      1.74      0.00
   10   12   17     -1.87      0.00
   11   12   17      0.12      0.00
   -4   13   17      1.31      0.00
   -3   13   17     -0.49      0.00
   -2   13   17     -1.97      0.00
   -1   13   17      2.61      0.00
    0   13   17     -1.35      0.00
    1   13   17      0.06      0.00
    2   13   17     -0.70      0.00
    3   13   17     -0.24      0.00
    4   13   17      0.66      0.00
    5   13   17     -2.13      0.00
    6   13   17      2.11      0.00
    7   13   17     -0.85      0.00
    8   13   17     -3.76      0.00
    9   13   17     -1.07      0.00
   10   13   17      0.25      0.00
   11   13   17     -2.73      0.00
   -3   14   17      1.13      0.00
   -2   14   17     -0.29      0.00
   -1   14   17     -1.48      0.00
    0   14   17      0.07      0.00
    1   14   17     -0.08      0.00
    2   14   17      2.17      0.00
    3   14   17     -1.90      0.00
    4   14   17      0.28      0.00
    5   14   17     -2.61      0.00
    6   14   17     -3.39      0.00
    7   14   17      2.09      0.00
    8   14   17     -1.61      0.00
    9   14   17      2.63      0.00
   10   14   17      3.77      0.00
   -2   15   17      0.96      0.00
   -1   15   17      3.94      0.00
    0   15   17      1.67      0.00
    1   15   17     -2.87      0.00
    2   15   17      0.64      0.00
    3   15   17      6.13      0.00
    4   15   17      2.11      0.00
    5   15   17      3.90      0.00
    6   15   17     -1.58      0.00
    7   15   17     -1.30      0.00
    8   15   17      1.86      0.00
    9   15   17      1.54      0.00
   -1   16   17      1.60      0.00
    0   16   17      3.03      0.00
    1   16   17      2.45      0.00
    2   16   17     -3.39      0.00
    3   16   17      2.69      0.00
    4   16   17      2.92      0.00
    5   16   17      2.68      0.00
    6   16   17      5.13      0.00
    7   16   17     -0.98      0.00
    8   16   17     -2.16      0.00
    9   16   17      0.51      0.00
    1   17   17      0.12      0.00
    2   17   17      2.26      0.00
    3   17   17     -3.84      0.00
    4   17   17     -0.34      0.00
    5   17   17     -1.43      0.00
    6   17   17      1.99      0.00
    7   17   17      1.42      0.00
    4   18   17     -1.29      0.00
   -1   -8   18      0.42      0.00
    0   -8   18      5.25      0.00
   -3   -7   18     -2.92      0.00
   -2   -7   18     -2.08      0.00
   -1   -7   18      0.55      0.00
    0   -7   18      0.02      0.00
    1   -7   18      2.16      0.00
    2   -7   18      3.19      0.00
    3   -7   18      0.44      0.00
   -5   -6   18      0.49      0.00
   -4   -6   18     -1.14      0.00
   -3   -6   18     -1.89      0.00
   -2   -6   18     -4.42      0.00
   -1   -6   18      1.69      0.00
    0   -6   18      1.62      0.00
    1   -6   18      1.06      0.00
    2   -6   18      0.40      0.00
    3   -6   18      4.25      0.00
    4   -6   18      1.13      0.00
    5   -6   18      1.13      0.00
   -5   -5   18     -1.47      0.00
   -4   -5   18      3.50      0.00
   -3   -5   18     -0.78      0.00
   -2   -5   18     -0.21      0.00
   -1   -5   18     -3.08      0.00
    0   -5   18      2.88      0.00
    1   -5   18     -1.28      0.00
    2   -5   18      0.07      0.00
    3   -5   18     -0.49      0.00
    4   -5   18      1.78      0.00
    5   -5   18     -0.81      0.00
    6   -5   18     -0.57      0.00
   -6   -4   18     -1.29      0.00
   -5   -4   18      0.72      0.00
   -4   -4   18      3.83      0.00
   -3   -4   18      0.84      0.00
   -2   -4   18     -0.75      0.00
   -1   -4   18      3.60      0.00
    0   -4   18     -2.51      0.00
    1   -4   18     -3.37      0.00
    2   -4   18     -4.26      0.00
    3   -4   18     -0.52      0.00
    4   -4   18      2.52      0.00
    5   -4   18      1.18      0.00
    6   -4   18     -0.64      0.00
    7   -4   18     -1.45      0.00
   -6   -3   18     -2.54      0.00
   -5   -3   18     -0.41      0.00
   -4   -3   18      1.76      0.00
   -3   -3   18      3.84      0.00
   -2   -3   18     -3.76      0.00
   -1   -3   18     -0.42      0.00
    0   -3   18      1.97      0.00
    1   -3   18     -0.91      0.00
    2   -3   18      1.60      0.00
    3   -3   18      2.42      0.00
    4   -3   18      2.24      0.00
    5   -3   18      0.22      0.00
    6   -3   18     -2.12      0.00
    7   -3   18     -2.01      0.00
    8   -3   18     -2.13      0.00
   -7   -2   18      4.71      0.00
   -6   -2   18      3.26      0.00
   -5   -2   18     -3.48      0.00
   -4   -2   18     -1.55      0.00
   -3   -2   18      2.24      0.00
   -2   -2   18      1.26      0.00
   -1   -2   18     -4.78      0.00
    0   -2   18      2.10      0.00
    1   -2   18     -1.10      0.00
    2   -2   18      0.64      0.00
    3   -2   18      3.61      0.00
    4   -2   18     -1.05      0.00
    5   -2   18      2.28      0.00
    6   -2   18      0.84      0.00
    7   -2   18      3.30      0.00
    8   -2   18     -2.30      0.00
   -7   -1   18     -1.16      0.00
   -6   -1   18      1.23      0.00
   -5   -1   18      1.25      0.00
   -4   -1   18     -1.10      0.00
   -3   -1   18     -1.87      0.00
   -2   -1   18      0.13      0.00
   -1   -1   18     -2.68      0.00
    0   -1   18     -1.75      0.00
    1   -1   18      2.31      0.00
    2   -1   18     -6.87      0.00
    3   -1   18     -1.21      0.00
    4   -1   18      1.28      0.00
    5   -1   18      1.44      0.00
    6   -1   18      3.66      0.00
    7   -1   18      0.81      0.00
    8   -1   18      6.80      0.00
    9   -1   18     -0.81      0.00
   -7    0   18     -0.86      0.00
   -6    0   18     -1.26      0.00
   -5    0   18     -1.37      0.00
   -4    0   18     -0.07      0.00
   -3    0   18     -1.60      0.00
   -2    0   18     -2.92      0.00
   -1    0   18     -1.23      0.00
    0    0   18     -6.42      0.00
    1    0   18     -0.83      0.00
    2    0   18      3.47      0.00
    3    0   18     -2.56      0.00
    4    0   18      2.19      0.00
    5    0   18     -3.21      0.00
    6    0   18     -0.79      0.00
    7    0   18     -0.87      0.00
    8    0   18      3.49      0.00
    9    0   18      5.99      0.00
   -7    1   18      1.47      0.00
   -6    1   18     -1.19      0.00
   -5    1   18     -1.17      0.00
   -4    1   18     -4.78      0.00
   -3    1   18      0.58      0.00
   -2    1   18     -1.47      0.00
   -1    1   18     -0.72      0.00
    0    1   18      1.13      0.00
    1    1   18     -2.30      0.00
    2    1   18      2.79      0.00
    3    1   18      1.95      0.00
    4    1   18     -0.63      0.00
    5    1   18     -0.49      0.00
    6    1   18     -4.27      0.00
    7    1   18      0.71      0.00
    8    1   18     -3.09      0.00
    9    1   18      3.12      0.00
   10    1   18     -0.66      0.00
   -7    2   18      1.67      0.00
   -6    2   18      3.34      0.00
   -5    2   18      1.07      0.00
   -4    2   18      2.28      0.00
   -3    2   18     -2.33      0.00
   -2    2   18      0.09      0.00
   -1    2   18     -0.84      0.00
    0    2   18      2.35      0.00
    1    2   18      1.35      0.00
    2    2   18      1.55      0.00
    3    2   18      1.15      0.00
    4    2   18     -2.01      0.00
    5    2   18      7.66      0.00
    6    2   18      2.87      0.00
    7    2   18     -1.66      0.00
    8    2   18     -1.67      0.00
    9    2   18     -5.86      0.00
   10    2   18      2.97      0.00
   -7    3   18     -2.23      0.00
   -6    3   18      2.90      0.00
   -5    3   18      1.18      0.00
   -4    3   18      2.64      0.00
   -3    3   18     -0.43      0.00
   -2    3   18      1.32      0.00
   -1    3   18      0.36      0.00
    0    3   18      1.15      0.00
    1    3   18     -0.59      0.00
    2    3   18     -1.80      0.00
    3    3   18      5.96      0.00
    4    3   18     -0.68      0.00
    5    3   18     -0.08      0.00
    6    3   18      6.59      0.00
    7    3   18     -2.20      0.00
    8    3   18      1.42      0.00
    9    3   18     -3.83      0.00
   10    3   18     -4.60      0.00
   -7    4   18      2.11      0.00
   -6    4   18     -1.95      0.00
   -5    4   18      1.28      0.00
   -4    4   18     -1.31      0.00
   -3    4   18     -0.24      0.00
   -2    4   18     -2.78      0.00
   -1    4   18      3.17      0.00
    0    4   18     -1.11      0.00
    1    4   18      3.39      0.00
    2    4   18     -3.09      0.00
    3    4   18     -2.07      0.00
    4    4   18      4.77      0.00
    5    4   18     -5.55      0.00
    6    4   18      0.43      0.00
    7    4   18     -0.98      0.00
    8    4   18     -1.78      0.00
    9    4   18      6.57      0.00
   10    4   18     -2.86      0.00
   11    4   18      1.35      0.00
   -7    5   18      3.15      0.00
   -6    5   18      2.93      0.00
   -5    5   18      4.03      0.00
   -4    5   18     -1.76      0.00
   -3    5   18      3.28      0.00
   -2    5   18     -2.11      0.00
   -1    5   18      0.27      0.00
    0    5   18      2.64      0.00
    1    5   18     -3.27      0.00
    2    5   18      3.97      0.00
    3    5   18     -3.99      0.00
    4    5   18     -0.33      0.00
    5    5   18     -0.82      0.00
    6    5   18     -2.83      0.00
    7    5   18     -0.40      0.00
    8    5   18     -5.44      0.00
    9    5   18      0.85      0.00
   10    5   18      2.80      0.00
   11    5   18     -0.62      0.00
   -7    6   18     -0.45      0.00
   -6    6   18      1.10      0.00
   -5    6   18      2.23      0.00
   -4    6   18      1.01      0.00
   -3    6   18     -4.27      0.00
   -2    6   18      7.53      0.00
   -1    6   18     -2.02      0.00
    0    6   18      1.71      0.00
    1    6   18     -1.31      0.00
    2    6   18     -4.83      0.00
    3    6   18      3.10      0.00
    4    6   18     -2.51      0.00
    5    6   18      2.09      0.00
    6    6   18     -2.73      0.00
    7    6   18      1.97      0.00
    8    6   18     -3.27      0.00
    9    6   18     -2.28      0.00
   10    6   18      1.55      0.00
   11    6   18     -1.26      0.00
   -6    7   18     -0.59      0.00
   -5    7   18     -1.84      0.00
   -4    7   18      0.38      0.00
   -3    7   18     -6.10      0.00
   -2    7   18     -3.13      0.00
   -1    7   18      1.22      0.00
    0    7   18     -5.23      0.00
    1    7   18      2.29      0.00
    2    7   18     -0.61      0.00
    3    7   18     -2.18      0.00
    4    7   18      2.46      0.00
    5    7   18      2.20      0.00
    6    7   18      3.03      0.00
    7    7   18     -0.98      0.00
    8    7   18      4.92      0.00
    9    7   18     -0.74      0.00
   10    7   18      5.34      0.00
   11    7   18      2.14      0.00
   -6    8   18      1.99      0.00
   -5    8   18     -0.54      0.00
   -4    8   18     -0.04      0.00
   -3    8   18      3.00      0.00
   -2    8   18     -3.73      0.00
   -1    8   18      2.33      0.00
    0    8   18     -1.75      0.00
    1    8   18     -2.26      0.00
    2    8   18      3.88      0.00
    3    8   18     -0.30      0.00
    4    8   18     -0.02      0.00
    5    8   18     -1.27      0.00
    6    8   18      2.66      0.00
    7    8   18      2.17      0.00
    8    8   18     -0.03      0.00
    9    8   18      0.99      0.00
   10    8   18     -2.70      0.00
   11    8   18      0.93      0.00
   -6    9   18      0.51      0.00
   -5    9   18      0.10      0.00
   -4    9   18     -0.22      0.00
   -3    9   18      0.45      0.00
   -2    9   18      0.38      0.00
   -1    9   18     -2.05      0.00
    0    9   18      2.30      0.00
    1    9   18     -3.81      0.00
    2    9   18     -0.61      0.00
    3    9   18      1.68      0.00
    4    9   18     -1.97      0.00
    5    9   18     -1.81      0.00
    6    9   18     -4.09      0.00
    7    9   18      3.55      0.00
    8    9   18      0.17      0.00
    9    9   18     -1.57      0.00
   10    9   18     -3.36      0.00
   11    9   18     -2.66      0.00
   -5   10   18     -3.13      0.00
   -4   10   18     -1.87      0.00
   -3   10   18     -3.18      0.00
   -2   10   18     -1.71      0.00
   -1   10   18     -6.68      0.00
    0   10   18     -3.12      0.00
    1   10   18      3.11      0.00
    2   10   18      0.09      0.00
    3   10   18      3.22      0.00
    4   10   18     -2.59      0.00
    5   10   18     -2.08      0.00
    6   10   18     -3.70      0.00
    7   10   18     -5.88      0.00
    8   10   18      2.05      0.00
    9   10   18      0.04      0.00
   10   10   18      0.83      0.00
   11   10   18     -0.50      0.00
   -5   11   18     -4.79      0.00
   -4   11   18      1.41      0.00
   -3   11   18      0.61      0.00
   -2   11   18      0.59      0.00
   -1   11   18      0.57      0.00
    0   11   18     -1.51      0.00
    1   11   18      3.22      0.00
    2   11   18      1.65      0.00
    3   11   18     -1.89      0.00
    4   11   18      3.41      0.00
    5   11   18     -1.43      0.00
    6   11   18      1.15      0.00
    7   11   18     -2.75      0.00
    8   11   18     -3.74      0.00
    9   11   18     -0.66      0.00
   10   11   18      0.14      0.00
   11   11   18     -0.89      0.00
   -4   12   18     -2.89      0.00
   -3   12   18      3.18      0.00
   -2   12   18     -2.79      0.00
   -1   12   18      3.42      0.00
    0   12   18      0.14      0.00
    1   12   18      3.96      0.00
    2   12   18      2.83      0.00
    3   12   18     -2.12      0.00
    4   12   18      1.16      0.00
    5   12   18      3.05      0.00
    6   12   18      1.56      0.00
    7   12   18      4.33      0.00
    8   12   18      0.84      0.00
    9   12   18     -0.64      0.00
   10   12   18      1.10      0.00
   -3   13   18     -0.29      0.00
   -2   13   18      3.15      0.00
   -1   13   18     -1.09      0.00
    0   13   18      2.19      0.00
    1   13   18     -3.13      0.00
    2   13   18      5.36      0.00
    3   13   18      1.83      0.00
    4   13   18     -2.31      0.00
    5   13   18      1.46      0.00
    6   13   18     -0.80      0.00
    7   13   18      3.08      0.00
    8   13   18      3.88      0.00
    9   13   18      3.00      0.00
   10   13   18     -0.80      0.00
   -2   14   18      0.72      0.00
   -1   14   18     -2.32      0.00
    0   14   18     -0.20      0.00
    1   14   18      2.12      0.00
    2   14   18     -3.96      0.00
    3   14   18      0.77      0.00
    4   14   18     -0.87      0.00
    5   14   18      2.41      0.00
    6   14   18      3.44      0.00
    7   14   18     -2.17      0.00
    8   14   18      2.51      0.00
    9   14   18     -1.37      0.00
   -1   15   18     -4.19      0.00
    0   15   18     -3.41      0.00
    1   15   18      4.71      0.00
    2   15   18      3.98      0.00
    3   15   18     -4.26      0.00
    4   15   18      0.15      0.00
    5   15   18     -2.63      0.00
    6   15   18      0.88      0.00
    7   15   18      1.32      0.00
    8   15   18     -1.90      0.00
    9   15   18     -1.10      0.00
    0   16   18     -2.01      0.00
    1   16   18     -3.54      0.00
    2   16   18      2.29      0.00
    3   16   18     -0.56      0.00
    4   16   18     -4.93      0.00
    5   16   18     -3.10      0.00
    6   16   18     -6.98      0.00
    7   16   18     -1.64      0.00
    8   16   18      0.51      0.00
    2   17   18     -3.07      0.00
    3   17   18      0.39      0.00
    4   17   18     -0.89      0.00
    5   17   18      0.32      0.00
    6   17   18     -0.41      0.00
   -3   -6   19      0.03      0.00
   -2   -6   19      5.51      0.00
   -1   -6   19      1.15      0.00
    0   -6   19     -2.65      0.00
    1   -6   19     -0.76      0.00
    2   -6   19     -0.84      0.00
    3   -6   19     -2.67      0.00
   -4   -5   19     -2.19      0.00
   -3   -5   19      1.46      0.00
   -2   -5   19     -2.24      0.00
   -1   -5   19      2.44      0.00
    0   -5   19     -3.84      0.00
    1   -5   19     -0.03      0.00
    2   -5   19     -1.77      0.00
    3   -5   19     -0.60      0.00
    4   -5   19     -3.67      0.00
   -5   -4   19     -0.58      0.00
   -4   -4   19     -4.36      0.00
   -3   -4   19     -1.94      0.00
   -2   -4   19      0.97      0.00
   -1   -4   19     -3.02      0.00
    0   -4   19      2.30      0.00
    1   -4   19      0.10      0.00
    2   -4   19      4.89      0.00
    3   -4   19     -0.69      0.00
    4   -4   19      0.90      0.00
    5   -4   19     -0.65      0.00
    6   -4   19     -0.26      0.00
   -5   -3   19      4.80      0.00
   -4   -3   19     -1.99      0.00
   -3   -3   19     -6.88      0.00
   -2   -3   19      4.20      0.00
   -1   -3   19      1.14      0.00
    0   -3   19     -1.78      0.00
    1   -3   19      0.91      0.00
    2   -3   19      1.41      0.00
    3   -3   19      1.06      0.00
    4   -3   19     -1.75      0.00
    5   -3   19     -0.08      0.00
    6   -3   19     -2.57      0.00
    7   -3   19      0.65      0.00
   -6   -2   19     -3.54      0.00
   -5   -2   19      1.11      0.00
   -4   -2   19      2.21      0.00
   -3   -2   19     -2.48      0.00
   -2   -2   19     -2.28      0.00
   -1   -2   19      4.26      0.00
    0   -2   19     -3.60      0.00
    1   -2   19      2.52      0.00
    2   -2   19      2.19      0.00
    3   -2   19     -0.12      0.00
    4   -2   19     -4.67      0.00
    5   -2   19     -4.11      0.00
    6   -2   19      2.56      0.00
    7   -2   19     -1.05      0.00
   -6   -1   19      0.17      0.00
   -5   -1   19     -0.98      0.00
   -4   -1   19      2.27      0.00
   -3   -1   19      3.71      0.00
   -2   -1   19     -1.28      0.00
   -1   -1   19      3.91      0.00
    0   -1   19      1.97      0.00
    1   -1   19     -3.39      0.00
    2   -1   19      2.99      0.00
    3   -1   19      1.10      0.00
    4   -1   19      1.41      0.00
    5   -1   19     -0.55      0.00
    6   -1   19     -0.08      0.00
    7   -1   19     -0.23      0.00
    8   -1   19     -7.93      0.00
   -6    0   19      1.94      0.00
   -5    0   19      3.91      0.00
   -4    0   19     -0.30      0.00
   -3    0   19     -0.99      0.00
   -2    0   19      2.60      0.00
   -1    0   19     -0.17      0.00
    0    0   19      4.79      0.00
    1    0   19     -1.54      0.00
    2    0   19     -1.17      0.00
    3    0   19      1.50      0.00
    4    0   19      2.99      0.00
    5    0   19      3.37      0.00
    6    0   19     -2.76      0.00
    7    0   19     -1.95      0.00
    8    0   19     -2.52      0.00
    9    0   19     -3.58      0.00
   -6    1   19     -1.85      0.00
   -5    1   19     -0.42      0.00
   -4    1   19      3.24      0.00
   -3    1   19     -1.19      0.00
   -2    1   19      0.95      0.00
   -1    1   19      1.04      0.00
    0    1   19      1.67      0.00
    1    1   19      2.09      0.00
    2    1   19      1.25      0.00
    3    1   19      1.46      0.00
    4    1   19     -3.51      0.00
    5    1   19     -2.18      0.00
    6    1   19      1.75      0.00
    7    1   19      1.51      0.00
    8    1   19      2.46      0.00
    9    1   19     -3.65      0.00
   -6    2   19     -2.30      0.00
   -5    2   19     -0.07      0.00
   -4    2   19      1.15      0.00
   -3    2   19      3.30      0.00
   -2    2   19     -0.79      0.00
   -1    2   19      0.52      0.00
    0    2   19     -2.20      0.00
    1    2   19      2.30      0.00
    2    2   19     -6.42      0.00
    3    2   19     -1.31      0.00
    4    2   19      1.23      0.00
    5    2   19     -3.73      0.00
    6    2   19     -0.83      0.00
    7    2   19      1.02      0.00
    8    2   19      1.64      0.00
    9    2   19      5.13      0.00
   -6    3   19      0.71      0.00
   -5    3   19     -3.12      0.00
   -4    3   19     -5.04      0.00
   -3    3   19      0.63      0.00
   -2    3   19     -1.62      0.00
   -1    3   19      0.25      0.00
    0    3   19     -4.47      0.00
    1    3   19     -0.99      0.00
    2    3   19      4.03      0.00
    3    3   19     -6.41      0.00
    4    3   19      2.76      0.00
    5    3   19      1.46      0.00
    6    3   19     -4.00      0.00
    7    3   19     -2.92      0.00
    8    3   19     -3.85      0.00
    9    3   19      3.07      0.00
   10    3   19      6.24      0.00
   -6    4   19     -1.83      0.00
   -5    4   19     -1.90      0.00
   -4    4   19     -2.14      0.00
   -3    4   19      0.23      0.00
   -2    4   19      6.68      0.00
   -1    4   19     -2.74      0.00
    0    4   19      4.45      0.00
    1    4   19     -4.16      0.00
    2    4   19      4.28      0.00
    3    4   19      1.84      0.00
    4    4   19     -5.61      0.00
    5    4   19      1.97      0.00
    6    4   19     -1.45      0.00
    7    4   19      3.23      0.00
    8    4   19      1.08      0.00
    9    4   19     -5.45      0.00
   10    4   19      2.44      0.00
   -6    5   19     -3.35      0.00
   -5    5   19     -6.13      0.00
   -4    5   19      2.48      0.00
   -3    5   19     -3.68      0.00
   -2    5   19      2.58      0.00
   -1    5   19      0.24      0.00
    0    5   19     -3.40      0.00
    1    5   19      4.46      0.00
    2    5   19     -4.42      0.00
    3    5   19      2.49      0.00
    4    5   19     -1.49      0.00
    5    5   19      2.71      0.00
    6    5   19      3.36      0.00
    7    5   19      2.61      0.00
    8    5   19      6.69      0.00
    9    5   19     -0.52      0.00
   10    5   19     -1.93      0.00
   -6    6   19     -0.03      0.00
   -5    6   19     -2.36      0.00
   -4    6   19     -3.07      0.00
   -3    6   19      3.11      0.00
   -2    6   19     -8.51      0.00
   -1    6   19      2.91      0.00
    0    6   19     -4.35      0.00
    1    6   19     -0.77      0.00
    2    6   19      4.55      0.00
    3    6   19      0.41      0.00
    4    6   19      2.45      0.00
    5    6   19     -3.27      0.00
    6    6   19      4.11      0.00
    7    6   19     -3.68      0.00
    8    6   19      2.13      0.00
    9    6   19     -0.62      0.00
   10    6   19     -3.34      0.00
   -6    7   19      1.18      0.00
   -5    7   19      0.41      0.00
   -4    7   19      1.26      0.00
   -3    7   19      5.46      0.00
   -2    7   19      2.60      0.00
   -1    7   19     -2.94      0.00
    0    7   19      3.39      0.00
    1    7   19     -2.14      0.00
    2    7   19      0.43      0.00
    3    7   19      2.24      0.00
    4    7   19      0.77      0.00
    5    7   19     -1.78      0.00
    6    7   19     -3.98      0.00
    7    7   19      1.52      0.00
    8    7   19     -3.76      0.00
    9    7   19      4.23      0.00
   10    7   19     -4.01      0.00
   -5    8   19     -0.56      0.00
   -4    8   19     -4.31      0.00
   -3    8   19     -0.71      0.00
   -2    8   19      1.70      0.00
   -1    8   19     -2.79      0.00
    0    8   19      2.53      0.00
    1    8   19      1.64      0.00
    2    8   19     -0.22      0.00
    3    8   19     -1.16      0.00
    4    8   19     -0.11      0.00
    5    8   19      3.20      0.00
    6    8   19     -2.32      0.00
    7    8   19     -0.88      0.00
    8    8   19      0.49      0.00
    9    8   19     -0.03      0.00
   10    8   19      3.94      0.00
   -5    9   19      2.51      0.00
   -4    9   19      1.37      0.00
   -3    9   19     -3.02      0.00
   -2    9   19     -0.18      0.00
   -1    9   19      1.31      0.00
    0    9   19      0.35      0.00
    1    9   19      0.90      0.00
    2    9   19     -2.68      0.00
    3    9   19      0.59      0.00
    4    9   19      0.66      0.00
    5    9   19      0.99      0.00
    6    9   19      2.34      0.00
    7    9   19     -5.79      0.00
    8    9   19     -2.32      0.00
    9    9   19     -1.73      0.00
   10    9   19      1.41      0.00
   -4   10   19      6.34      0.00
   -3   10   19      3.85      0.00
   -2   10   19      0.48      0.00
   -1   10   19      3.31      0.00
    0   10   19     -0.04      0.00
    1   10   19      0.71      0.00
    2   10   19     -0.85      0.00
    3   10   19     -1.40      0.00
    4   10   19      2.26      0.00
    5   10   19      2.00      0.00
    6   10   19      4.30      0.00
    7   10   19      3.21      0.00
    8   10   19     -2.04      0.00
    9   10   19      1.50      0.00
   10   10   19     -0.05      0.00
   -4   11   19     -0.86      0.00
   -3   11   19      2.99      0.00
   -2   11   19     -0.86      0.00
   -1   11   19     -0.36      0.00
    0   11   19      3.49      0.00
    1   11   19      0.06      0.00
    2   11   19      3.73      0.00
    3   11   19      0.18      0.00
    4   11   19     -1.89      0.00
    5   11   19      0.15      0.00
    6   11   19      1.92      0.00
    7   11   19      5.13      0.00
    8   11   19      3.69      0.00
    9   11   19      0.43      0.00
   10   11   19     -1.55      0.00
   -3   12   19     -3.18      0.00
   -2   12   19      3.09      0.00
   -1   12   19     -2.77      0.00
    0   12   19      4.16      0.00
    1   12   19     -3.24      0.00
    2   12   19     -7.03      0.00
    3   12   19      0.91      0.00
    4   12   19      0.17      0.00
    5   12   19     -0.30      0.00
    6   12   19     -3.64      0.00
    7   12   19     -2.86      0.00
    8   12   19     -1.72      0.00
    9   12   19      0.61      0.00
   10   12   19      0.42      0.00
   -2   13   19     -0.68      0.00
   -1   13   19      1.96      0.00
    0   13   19     -7.16      0.00
    1   13   19      0.75      0.00
    2   13   19     -5.64      0.00
    3   13   19     -2.06      0.00
    4   13   19      1.64      0.00
    5   13   19     -1.66      0.00
    6   13   19      0.76      0.00
    7   13   19     -3.16      0.00
    8   13   19     -1.51      0.00
    9   13   19     -2.17      0.00
   -1   14   19      2.20      0.00
    0   14   19     -0.23      0.00
    1   14   19     -4.41      0.00
    2   14   19      3.61      0.00
    3   14   19      0.47      0.00
    4   14   19     -0.15      0.00
    5   14   19     -1.93      0.00
    6   14   19     -3.13      0.00
    7   14   19      1.36      0.00
    8   14   19     -2.86      0.00
    0   15   19      6.81      0.00
    1   15   19      0.10      0.00
    2   15   19     -6.33      0.00
    3   15   19      0.38      0.00
    4   15   19      0.70      0.00
    5   15   19      1.54      0.00
    6   15   19     -0.34      0.00
    7   15   19     -2.74      0.00
    8   15   19      0.88      0.00
    2   16   19     -1.02      0.00
    3   16   19     -1.58      0.00
    4   16   19      3.55      0.00
    5   16   19      0.95      0.00
    6   16   19      4.09      0.00
   -1   -5   20     -2.94      0.00
    0   -5   20      2.44      0.00
    1   -5   20      1.34      0.00
    2   -5   20      2.15      0.00
   -3   -4   20      2.05      0.00
   -2   -4   20     -2.36      0.00
   -1   -4   20      3.36      0.00
    0   -4   20      1.51      0.00
    1   -4   20      3.60      0.00
    2   -4   20     -3.78      0.00
    3   -4   20      1.38      0.00
    4   -4   20     -0.94      0.00
   -4   -3   20     -0.53      0.00
   -3   -3   20      6.03      0.00
   -2   -3   20     -1.24      0.00
   -1   -3   20     -0.38      0.00
    0   -3   20      1.95      0.00
    1   -3   20     -1.48      0.00
    2   -3   20     -2.82      0.00
    3   -3   20     -1.90      0.00
    4   -3   20      4.30      0.00
    5   -3   20     -0.56      0.00
   -4   -2   20     -4.22      0.00
   -3   -2   20      1.85      0.00
   -2   -2   20      3.56      0.00
   -1   -2   20     -6.08      0.00
    0   -2   20      0.00      0.00
    1   -2   20     -2.13      0.00
    2   -2   20     -1.53      0.00
    3   -2   20     -3.03      0.00
    4   -2   20      2.49      0.00
    5   -2   20      1.46      0.00
    6   -2   20     -4.01      0.00
   -5   -1   20      0.05      0.00
   -4   -1   20     -0.19      0.00
   -3   -1   20     -1.70      0.00
   -2   -1   20      0.96      0.00
   -1   -1   20     -2.73      0.00
    0   -1   20     -1.91      0.00
    1   -1   20      3.36      0.00
    2   -1   20     -1.85      0.00
    3   -1   20     -3.12      0.00
    4   -1   20     -5.43      0.00
    5   -1   20      1.91      0.00
    6   -1   20      1.52      0.00
    7   -1   20     -0.09      0.00
   -5    0   20     -3.50      0.00
   -4    0   20     -0.06      0.00
   -3    0   20      0.86      0.00
   -2    0   20     -1.67      0.00
   -1    0   20      0.85      0.00
    0    0   20     -2.84      0.00
    1    0   20      2.38      0.00
    2    0   20     -1.55      0.00
    3    0   20      1.13      0.00
    4    0   20      0.16      0.00
    5    0   20      0.77      0.00
    6    0   20      1.97      0.00
    7    0   20     -0.06      0.00
   -5    1   20      0.00      0.00
   -4    1   20     -4.95      0.00
   -3    1   20     -1.31      0.00
   -2    1   20      0.71      0.00
   -1    1   20     -0.18      0.00
    0    1   20     -2.77      0.00
    1    1   20     -0.87      0.00
    2    1   20      1.20      0.00
    3    1   20     -2.52      0.00
    4    1   20      3.31      0.00
    5    1   20     -1.95      0.00
    6    1   20     -1.40      0.00
    7    1   20     -3.03      0.00
    8    1   20     -1.16      0.00
   -5    2   20      2.44      0.00
   -4    2   20      0.23      0.00
   -3    2   20     -1.79      0.00
   -2    2   20     -0.24      0.00
   -1    2   20      0.99      0.00
    0    2   20      3.81      0.00
    1    2   20     -5.51      0.00
    2    2   20      5.52      0.00
    3    2   20     -1.10      0.00
    4    2   20     -3.46      0.00
    5    2   20     -0.09      0.00
    6    2   20      1.12      0.00
    7    2   20      3.62      0.00
    8    2   20     -1.04      0.00
   -5    3   20      3.04      0.00
   -4    3   20      7.56      0.00
   -3    3   20     -1.77      0.00
   -2    3   20     -0.17      0.00
   -1    3   20     -1.41      0.00
    0    3   20      4.46      0.00
    1    3   20      2.65      0.00
    2    3   20     -5.48      0.00
    3    3   20      6.80      0.00
    4    3   20     -0.91      0.00
    5    3   20      2.10      0.00
    6    3   20      1.08      0.00
    7    3   20      2.69      0.00
    8    3   20      4.37      0.00
    9    3   20     -0.25      0.00
   -5    4   20      0.84      0.00
   -4    4   20      1.76      0.00
   -3    4   20      1.84      0.00
   -2    4   20     -7.87      0.00
   -1    4   20      1.54      0.00
    0    4   20     -5.72      0.00
    1    4   20      4.32      0.00
    2    4   20     -3.23      0.00
    3    4   20     -0.24      0.00
    4    4   20      4.05      0.00
    5    4   20     -2.21      0.00
    6    4   20     -0.53      0.00
    7    4   20     -5.13      0.00
    8    4   20     -0.17      0.00
    9    4   20      5.03      0.00
   -5    5   20      6.50      0.00
   -4    5   20      0.44      0.00
   -3    5   20      5.28      0.00
   -2    5   20     -0.26      0.00
   -1    5   20     -2.54      0.00
    0    5   20      3.68      0.00
    1    5   20     -5.00      0.00
    2    5   20      2.15      0.00
    3    5   20     -2.31      0.00
    4    5   20      4.76      0.00
    5    5   20     -1.30      0.00
    6    5   20     -1.47      0.00
    7    5   20     -2.84      0.00
    8    5   20     -4.59      0.00
    9    5   20      1.33      0.00
   -5    6   20      2.68      0.00
   -4    6   20      5.16      0.00
   -3    6   20     -0.97      0.00
   -2    6   20      7.54      0.00
   -1    6   20      0.70      0.00
    0    6   20      4.92      0.00
    1    6   20      1.73      0.00
    2    6   20     -1.27      0.00
    3    6   20     -2.18      0.00
    4    6   20     -2.24      0.00
    5    6   20      2.81      0.00
    6    6   20     -3.95      0.00
    7    6   20      1.73      0.00
    8    6   20     -5.28      0.00
    9    6   20     -0.65      0.00
   -5    7   20      2.23      0.00
   -4    7   20     -2.33      0.00
   -3    7   20     -6.57      0.00
   -2    7   20     -2.76      0.00
   -1    7   20      1.31      0.00
    0    7   20     -1.94      0.00
    1    7   20      0.68      0.00
    2    7   20     -0.63      0.00
    3    7   20     -1.38      0.00
    4    7   20     -5.04      0.00
    5    7   20     -1.70      0.00
    6    7   20      1.71      0.00
    7    7   20     -0.44      0.00
    8    7   20      4.32      0.00
    9    7   20     -4.41      0.00
   10    7   20      3.64      0.00
   -4    8   20      4.05      0.00
   -3    8   20     -2.96      0.00
   -2    8   20     -0.94      0.00
   -1    8   20      1.82      0.00
    0    8   20     -2.44      0.00
    1    8   20      2.47      0.00
    2    8   20     -2.30      0.00
    3    8   20      1.29      0.00
    4    8   20      0.91      0.00
    5    8   20     -0.94      0.00
    6    8   20      2.58      0.00
    7    8   20      1.04      0.00
    8    8   20      0.59      0.00
    9    8   20      1.21      0.00
   10    8   20     -3.51      0.00
   -4    9   20     -2.48      0.00
   -3    9   20      6.10      0.00
   -2    9   20      2.07      0.00
   -1    9   20      6.92      0.00
    0    9   20      1.26      0.00
    1    9   20     -1.39      0.00
    2    9   20      3.45      0.00
    3    9   20     -2.55      0.00
    4    9   20      0.42      0.00
    5    9   20     -1.91      0.00
    6    9   20     -2.02      0.00
    7    9   20      4.74      0.00
    8    9   20      0.31      0.00
    9    9   20     -0.86      0.00
   -3   10   20     -4.54      0.00
   -2   10   20     -0.22      0.00
   -1   10   20     -2.71      0.00
    0   10   20     -0.21      0.00
    1   10   20     -6.18      0.00
    2   10   20      1.26      0.00
    3   10   20      2.72      0.00
    4   10   20     -0.54      0.00
    5   10   20     -2.36      0.00
    6   10   20     -4.95      0.00
    7   10   20     -1.18      0.00
    8   10   20      5.86      0.00
    9   10   20      1.57      0.00
   -3   11   20     -6.03      0.00
   -2   11   20     -2.40      0.00
   -1   11   20     -2.34      0.00
    0   11   20     -4.56      0.00
    1   11   20      1.97      0.00
    2   11   20     -2.95      0.00
    3   11   20      0.58      0.00
    4   11   20     -1.54      0.00
    5   11   20      1.04      0.00
    6   11   20     -1.81      0.00
    7   11   20     -3.92      0.00
    8   11   20     -1.71      0.00
    9   11   20      0.68      0.00
   -2   12   20     -3.40      0.00
   -1   12   20      4.43      0.00
    0   12   20     -0.42      0.00
    1   12   20      0.20      0.00
    2   12   20      2.92      0.00
    3   12   20     -2.86      0.00
    4   12   20     -0.03      0.00
    5   12   20     -1.86      0.00
    6   12   20      2.16      0.00
    7   12   20     -0.92      0.00
    8   12   20     -0.95      0.00
    9   12   20     -2.74      0.00
   -1   13   20     -3.05      0.00
    0   13   20      6.25      0.00
    1   13   20     -0.24      0.00
    2   13   20      3.77      0.00
    3   13   20      4.62      0.00
    4   13   20      1.95      0.00
    5   13   20      2.56      0.00
    6   13   20     -1.21      0.00
    7   13   20      2.25      0.00
    8   13   20      0.71      0.00
    0   14   20     -3.10      0.00
    1   14   20      5.71      0.00
    2   14   20      3.60      0.00
    3   14   20      0.41      0.00
    4   14   20     -1.45      0.00
    5   14   20      0.03      0.00
    6   14   20      3.37      0.00
    7   14   20      0.95      0.00
    2   15   20      3.50      0.00
    3   15   20      0.99      0.00
    4   15   20     -1.66      0.00
    5   15   20      0.22      0.00
    6   15   20     -0.38      0.00
   -1   -3   21      3.60      0.00
    0   -3   21     -0.28      0.00
    1   -3   21     -0.37      0.00
    2   -3   21      1.37      0.00
    3   -3   21      3.19      0.00
   -2   -2   21     -2.06      0.00
   -1   -2   21      4.40      0.00
    0   -2   21      0.83      0.00
    1   -2   21      0.48      0.00
    2   -2   21      1.28      0.00
    3   -2   21      4.64      0.00
    4   -2   21     -0.43      0.00
   -3   -1   21      0.17      0.00
   -2   -1   21     -2.04      0.00
   -1   -1   21     -1.19      0.00
    0   -1   21      1.89      0.00
    1   -1   21      0.11      0.00
    2   -1   21      3.23      0.00
    3   -1   21      1.49      0.00
    4   -1   21      2.18      0.00
    5   -1   21     -2.83      0.00
   -4    0   21      3.29      0.00
   -3    0   21      0.07      0.00
   -2    0   21     -1.13      0.00
   -1    0   21      0.11      0.00
    0    0   21      2.42      0.00
    1    0   21     -2.15      0.00
    2    0   21      0.52      0.00
    3    0   21     -1.78      0.00
    4    0   21      0.71      0.00
    5    0   21      0.88      0.00
    6    0   21      0.01      0.00
   -4    1   21      2.22      0.00
   -3    1   21      1.59      0.00
   -2    1   21      0.34      0.00
   -1    1   21     -1.06      0.00
    0    1   21      0.53      0.00
    1    1   21     -0.77      0.00
    2    1   21     -2.94      0.00
    3    1   21      4.86      0.00
    4    1   21      0.36      0.00
    5    1   21      3.67      0.00
    6    1   21     -3.64      0.00
    7    1   21      0.34      0.00
   -4    2   21     -2.37      0.00
   -3    2   21      3.14      0.00
   -2    2   21      4.30      0.00
   -1    2   21     -0.30      0.00
    0    2   21     -4.08      0.00
    1    2   21      5.68      0.00
    2    2   21     -1.85      0.00
    3    2   21      0.98      0.00
    4    2   21      0.61      0.00
    5    2   21     -1.56      0.00
    6    2   21      1.72      0.00
    7    2   21     -3.03      0.00
   -4    3   21     -5.59      0.00
   -3    3   21      0.94      0.00
   -2    3   21      0.32      0.00
   -1    3   21      1.92      0.00
    0    3   21     -3.12      0.00
    1    3   21     -4.09      0.00
    2    3   21      3.78      0.00
    3    3   21     -7.52      0.00
    4    3   21      0.56      0.00
    5    3   21     -0.71      0.00
    6    3   21      3.32      0.00
    7    3   21     -0.32      0.00
    8    3   21     -4.29      0.00
   -4    4   21     -3.80      0.00
   -3    4   21     -8.83      0.00
   -2    4   21      4.54      0.00
   -1    4   21     -0.73      0.00
    0    4   21      3.50      0.00
    1    4   21     -3.15      0.00
    2    4   21      2.92      0.00
    3    4   21     -0.21      0.00
    4    4   21     -2.26      0.00
    5    4   21      2.30      0.00
    6    4   21     -0.02      0.00
    7    4   21      3.00      0.00
    8    4   21     -1.08      0.00
   -4    5   21     -3.27      0.00
   -3    5   21     -2.62      0.00
   -2    5   21     -1.19      0.00
   -1    5   21      3.08      0.00
    0    5   21     -2.03      0.00
    1    5   21      5.87      0.00
    2    5   21      0.54      0.00
    3    5   21      4.23      0.00
    4    5   21     -6.74      0.00
    5    5   21     -1.80      0.00
    6    5   21     -1.29      0.00
    7    5   21      5.99      0.00
    8    5   21      5.16      0.00
   -4    6   21     -1.75      0.00
   -3    6   21      1.67      0.00
   -2    6   21     -3.69      0.00
   -1    6   21     -3.14      0.00
    0    6   21     -4.18      0.00
    1    6   21     -1.82      0.00
    2    6   21     -1.21      0.00
    3    6   21      1.64      0.00
    4    6   21      2.17      0.00
    5    6   21     -1.25      0.00
    6    6   21      3.06      0.00
    7    6   21     -1.83      0.00
    8    6   21      6.83      0.00
   -4    7   21      1.50      0.00
   -3    7   21      4.45      0.00
   -2    7   21      0.18      0.00
   -1    7   21      0.79      0.00
    0    7   21     -1.67      0.00
    1    7   21     -2.01      0.00
    2    7   21      0.74      0.00
    3    7   21     -1.84      0.00
    4    7   21      4.80      0.00
    5    7   21      3.10      0.00
    6    7   21      2.45      0.00
    7    7   21     -0.56      0.00
    8    7   21     -5.40      0.00
    9    7   21      2.85      0.00
   -3    8   21      3.35      0.00
   -2    8   21      1.00      0.00
   -1    8   21     -3.94      0.00
    0    8   21      2.96      0.00
    1    8   21     -2.71      0.00
    2    8   21      3.98      0.00
    3    8   21      0.45      0.00
    4    8   21      0.29      0.00
    5    8   21      0.93      0.00
    6    8   21     -1.33      0.00
    7    8   21      0.60      0.00
    8    8   21      0.96      0.00
    9    8   21     -0.33      0.00
   -3    9   21     -3.34      0.00
   -2    9   21      1.05      0.00
   -1    9   21     -8.79      0.00
    0    9   21     -2.13      0.00
    1    9   21      2.26      0.00
    2    9   21     -4.28      0.00
    3    9   21      3.45      0.00
    4    9   21     -0.39      0.00
    5    9   21      2.57      0.00
    6    9   21      0.54      0.00
    7    9   21     -3.89      0.00
    8    9   21     -1.54      0.00
   -2   10   21      0.69      0.00
   -1   10   21      2.16      0.00
    0   10   21     -3.14      0.00
    1   10   21      3.94      0.00
    2   10   21     -1.49      0.00
    3   10   21     -2.50      0.00
    4   10   21     -0.79      0.00
    5   10   21      0.59      0.00
    6   10   21      3.87      0.00
    7   10   21      0.64      0.00
    8   10   21     -7.61      0.00
   -2   11   21      2.64      0.00
   -1   11   21      0.43      0.00
    0   11   21      2.47      0.00
    1   11   21      0.57      0.00
    2   11   21      5.25      0.00
    3   11   21     -1.37      0.00
    4   11   21      1.10      0.00
    5   11   21     -1.62      0.00
    6   11   21      2.80      0.00
    7   11   21      3.20      0.00
    8   11   21      2.76      0.00
   -1   12   21     -1.94      0.00
    0   12   21     -0.49      0.00
    1   12   21      2.50      0.00
    2   12   21     -0.20      0.00
    3   12   21      1.99      0.00
    4   12   21     -1.04      0.00
    5   12   21      3.16      0.00
    6   12   21      0.23      0.00
    7   12   21      3.42      0.00
    0   13   21     -1.86      0.00
    1   13   21     -3.68      0.00
    2   13   21     -4.69      0.00
    3   13   21     -3.04      0.00
    4   13   21     -0.07      0.00
    5   13   21     -2.73      0.00
    6   13   21     -0.39      0.00
    7   13   21     -2.14      0.00
    2   14   21     -5.43      0.00
    3   14   21     -1.23      0.00
    4   14   21      0.00      0.00
    5   14   21     -0.14      0.00
    0   -1   22     -3.43      0.00
    1   -1   22     -1.65      0.00
    2   -1   22     -2.64      0.00
    3   -1   22     -1.55      0.00
   -1    0   22      0.22      0.00
    0    0   22      1.10      0.00
    1    0   22      2.46      0.00
    2    0   22     -0.08      0.00
    3    0   22     -1.35      0.00
    4    0   22     -2.47      0.00
   -2    1   22     -2.30      0.00
   -1    1   22      2.44      0.00
    0    1   22      1.55      0.00
    1    1   22      1.31      0.00
    2    1   22      2.23      0.00
    3    1   22     -2.13      0.00
    4    1   22      2.09      0.00
    5    1   22     -1.99      0.00
   -2    2   22     -4.56      0.00
   -1    2   22     -2.10      0.00
    0    2   22      2.19      0.00
    1    2   22     -2.39      0.00
    2    2   22      1.41      0.00
    3    2   22     -0.08      0.00
    4    2   22     -2.11      0.00
    5    2   22     -1.78      0.00
    6    2   22     -6.64      0.00
   -3    3   22      3.70      0.00
   -2    3   22     -0.72      0.00
   -1    3   22     -2.47      0.00
    0    3   22      2.06      0.00
    1    3   22      2.70      0.00
    2    3   22     -3.56      0.00
    3    3   22      4.37      0.00
    4    3   22     -1.75      0.00
    5    3   22      0.15      0.00
    6    3   22     -0.67      0.00
   -3    4   22      8.54      0.00
   -2    4   22     -1.06      0.00
   -1    4   22      0.78      0.00
    0    4   22     -1.41      0.00
    1    4   22      1.07      0.00
    2    4   22     -2.74      0.00
    3    4   22      1.29      0.00
    4    4   22      5.61      0.00
    5    4   22      1.39      0.00
    6    4   22     -0.61      0.00
    7    4   22     -3.81      0.00
   -3    5   22     -0.45      0.00
   -2    5   22      3.22      0.00
   -1    5   22     -1.05      0.00
    0    5   22      1.67      0.00
    1    5   22     -3.44      0.00
    2    5   22     -0.64      0.00
    3    5   22     -4.94      0.00
    4    5   22      4.72      0.00
    5    5   22      0.77      0.00
    6    5   22      2.25      0.00
    7    5   22     -6.23      0.00
   -2    6   22      0.35      0.00
   -1    6   22      2.45      0.00
    0    6   22      4.76      0.00
    1    6   22      2.07      0.00
    2    6   22      0.37      0.00
    3    6   22     -0.53      0.00
    4    6   22     -2.61      0.00
    5    6   22     -0.05      0.00
    6    6   22     -1.82      0.00
    7    6   22      4.67      0.00
   -2    7   22      0.52      0.00
   -1    7   22     -1.91      0.00
    0    7   22      1.91      0.00
    1    7   22      1.26      0.00
    2    7   22     -1.50      0.00
    3    7   22      2.75      0.00
    4    7   22     -2.58      0.00
    5    7   22     -2.46      0.00
    6    7   22     -5.86      0.00
    7    7   22     -2.65      0.00
   -2    8   22     -3.68      0.00
   -1    8   22      4.65      0.00
    0    8   22     -3.14      0.00
    1    8   22      2.45      0.00
    2    8   22     -2.46      0.00
    3    8   22     -1.53      0.00
    4    8   22     -0.30      0.00
    5    8   22     -0.79      0.00
    6    8   22      1.19      0.00
    7    8   22     -0.56      0.00
   -1    9   22      6.79      0.00
    0    9   22      5.70      0.00
    1    9   22      0.65      0.00
    2    9   22      3.97      0.00
    3    9   22     -2.90      0.00
    4    9   22      0.35      0.00
    5    9   22     -1.93      0.00
    6    9   22      0.52      0.00
    7    9   22      2.89      0.00
   -1   10   22     -0.43      0.00
    0   10   22      4.14      0.00
    1   10   22     -3.50      0.00
    2   10   22     -0.52      0.00
    3   10   22      1.63      0.00
    4   10   22      0.52      0.00
    5   10   22     -0.75      0.00
    6   10   22     -3.67      0.00
    7   10   22     -2.58      0.00
    0   11   22     -1.98      0.00
    1   11   22     -2.33      0.00
    2   11   22     -4.29      0.00
    3   11   22      2.21      0.00
    4   11   22      0.32      0.00
    5   11   22      1.82      0.00
    6   11   22     -2.73      0.00
    1   12   22      1.60      0.00
    2   12   22     -0.12      0.00
    3   12   22     -3.76      0.00
    4   12   22      0.07      0.00
    5   12   22     -1.11      0.00
    1    2   23     -0.88      0.00
    2    2   23     -2.20      0.00
    3    2   23      0.52      0.00
    0    3   23     -1.43      0.00
    1    3   23     -0.68      0.00
    2    3   23      3.25      0.00
    3    3   23     -2.90      0.00
    4    3   23     -1.21      0.00
    0    4   23     -0.94      0.00
    1    4   23     -1.23      0.00
    2    4   23      1.94      0.00
    3    4   23     -0.49      0.00
    4    4   23     -5.00      0.00
    5    4   23     -1.25      0.00
    0    5   23     -2.81      0.00
    1    5   23      0.83      0.00
    2    5   23      1.10      0.00
    3    5   23      4.50      0.00
    4    5   23     -1.21      0.00
    5    5   23     -0.17      0.00
    0    6   23     -2.59      0.00
    1    6   23     -0.49      0.00
    2    6   23      1.70      0.00
    3    6   23      0.08      0.00
    4    6   23      1.25      0.00
    5    6   23     -0.25      0.00
    0    7   23     -0.67      0.00
    1    7   23     -1.61      0.00
    2    7   23      0.32      0.00
    3    7   23     -2.43      0.00
    4    7   23     -0.69      0.00
    5    7   23      1.01      0.00
    0    8   23      0.31      0.00
    1    8   23     -3.17      0.00
    2    8   23      0.29      0.00
    3    8   23      0.75      0.00
    4    8   23      0.17      0.00
    5    8   23      1.46      0.00
    1    9   23     -0.94      0.00
    2    9   23     -2.09      0.00
    3    9   23      2.29      0.00
    4    9   23      1.67      0.00
    5    9   23      1.82      0.00
    2   10   23      0.18      0.00
    3   10   23     -0.18      0.00
    4   10   23     -0.31      0.00
   15    0    0     -2.52      0.00
  -15    1    0     -1.36      0.00
    0    1    0     27.38      0.00
   15    1    0      1.22      0.00
  -15    2    0     -2.58      0.00
   15    2    0     -0.11      0.00
  -14    3    0     -3.63      0.00
   15    3    0     -0.61      0.00
  -14    4    0      2.42      0.00
   15    4    0      4.28      0.00
  -14    5    0     -0.01      0.00
   15    5    0     -2.75      0.00
  -13    6    0      2.11      0.00
   15    6    0     -0.47      0.00
  -13    7    0      0.86      0.00
   15    7    0      3.92      0.00
  -12    8    0     -0.19      0.00
   15    8    0     -2.01      0.00
  -12    9    0     -2.14      0.00
   15    9    0     -1.17      0.00
  -11   10    0     -3.23      0.00
   15   10    0     -0.09      0.00
  -11   11    0      1.31      0.00
   14   11    0      4.60      0.00
  -10   12    0      1.85      0.00
   14   12    0     -2.87      0.00
   -9   13    0      0.61      0.00
   14   13    0     -1.18      0.00
   -9   14    0     -0.65      0.00
   -8   14    0     -2.42      0.00
   13   14    0      0.20      0.00
   -8   15    0     -1.18      0.00
   -7   15    0     -3.76      0.00
   13   15    0      1.53      0.00
   -7   16    0      0.35      0.00
   -6   16    0      0.39      0.00
   12   16    0      0.38      0.00
   -5   17    0      4.71      0.00
   11   17    0     -1.62      0.00
   -4   18    0      3.14      0.00
   -3   18    0     -2.64      0.00
    9   18    0     -2.04      0.00
   10   18    0     -2.08      0.00
   -3   19    0     -0.31      0.00
   -2   19    0     -3.66      0.00
   -1   19    0      0.15      0.00
    8   19    0     -0.28      0.00
    9   19    0     -0.72      0.00
    0   20    0      0.13      0.00
    1   20    0     -0.64      0.00
    2   20    0     -0.43      0.00
    3   20    0      0.49      0.00
    4   20    0      2.59      0.00
    5   20    0      1.57      0.00
    6   20    0     -0.10      0.00
    7   20    0      0.10      0.00
   -6  -20    1     -1.55      0.00
   -5  -20    1     -1.22      0.00
   -4  -20    1     -1.87      0.00
   -3  -20    1     -2.01      0.00
   -2  -20    1     -1.81      0.00
   -1  -20    1     -2.94      0.00
    0  -20    1     -2.44      0.00
   -9  -19    1      1.49      0.00
   -8  -19    1      0.63      0.00
   -7  -19    1     -3.68      0.00
    0  -19    1     -0.24      0.00
    1  -19    1      1.94      0.00
    2  -19    1      4.51      0.00
  -10  -18    1      0.65      0.00
   -9  -18    1      2.92      0.00
    3  -18    1      3.79      0.00
    4  -18    1     -2.19      0.00
  -11  -17    1     -0.35      0.00
  -10  -17    1     -1.10      0.00
    5  -17    1     -4.05      0.00
  -12  -16    1      0.70      0.00
  -11  -16    1      1.52      0.00
    6  -16    1      1.31      0.00
  -12  -15    1     -1.09      0.00
    7  -15    1      4.03      0.00
  -13  -14    1     -0.42      0.00
    8  -14    1      2.37      0.00
  -14  -13    1      2.97      0.00
  -13  -13    1     -1.59      0.00
    9  -13    1     -1.73      0.00
  -14  -12    1      2.59      0.00
   10  -12    1     -2.27      0.00
  -14  -11    1     -4.49      0.00
   11  -11    1     -1.95      0.00
  -15  -10    1     -0.36      0.00
   11  -10    1      3.47      0.00
  -15   -9    1      1.06      0.00
   12   -9    1      2.65      0.00
  -15   -8    1      0.88      0.00
   12   -8    1      0.42      0.00
  -15   -7    1     -3.08      0.00
   13   -7    1     -0.71      0.00
  -15   -6    1     -0.28      0.00
   13   -6    1     -0.50      0.00
  -15   -5    1     -1.37      0.00
   14   -5    1     -1.43      0.00
  -15   -4    1     -1.89      0.00
   14   -4    1      1.18      0.00
  -15   -3    1      1.07      0.00
   14   -3    1      2.21      0.00
  -15   -2    1     -3.87      0.00
   15   -2    1      3.27      0.00
  -15   -1    1     -0.54      0.00
   15   -1    1      2.13      0.00
  -15    0    1      2.41      0.00
    0    0    1   -256.75      0.00
   15    0    1      0.49      0.00
  -15    1    1     -0.11      0.00
    0    1    1    -22.98      0.00
   15    1    1      1.81      0.00
   15    2    1      1.08      0.00
  -14    3    1      2.48      0.00
  -14    4    1     -2.09      0.00
  -14    5    1     -0.69      0.00
  -13    6    1     -0.79      0.00
  -13    7    1     -0.24      0.00
   15    7    1     -0.25      0.00
  -12    8    1     -0.68      0.00
   15    8    1      0.57      0.00
  -12    9    1      2.88      0.00
   15    9    1      0.46      0.00
  -11   10    1      2.93      0.00
   15   10    1      1.82      0.00
  -11   11    1     -0.20      0.00
   15   11    1     -1.33      0.00
  -10   12    1     -0.73      0.00
   14   12    1     -0.79      0.00
   -9   13    1      0.62      0.00
   14   13    1      1.05      0.00
   -9   14    1     -1.91      0.00
   -8   14    1      2.72      0.00
   13   14    1      0.87      0.00
   14   14    1      1.56      0.00
   -8   15    1      1.48      0.00
   13   15    1     -1.70      0.00
   -7   16    1      0.16      0.00
   -6   16    1     -1.78      0.00
   12   16    1     -1.70      0.00
   -6   17    1      0.76      0.00
   -5   17    1     -2.99      0.00
   11   17    1      2.09      0.00
   12   17    1     -0.74      0.00
   -4   18    1     -3.29      0.00
   10   18    1      1.86      0.00
   11   18    1     -0.29      0.00
   -3   19    1     -0.20      0.00
   -2   19    1      2.70      0.00
    8   19    1      0.37      0.00
    9   19    1      1.46      0.00
   -1   20    1      2.49      0.00
    0   20    1      0.40      0.00
    1   20    1     -0.77      0.00
    2   20    1     -1.38      0.00
    3   20    1      0.50      0.00
    4   20    1     -0.95      0.00
    5   20    1     -3.47      0.00
    6   20    1     -0.17      0.00
    7   20    1      0.46      0.00
    8   20    1     -1.63      0.00
   -5  -20    2      0.28      0.00
   -4  -20    2      0.93      0.00
   -3  -20    2      2.43      0.00
   -2  -20    2      1.36      0.00
   -8  -19    2     -0.51      0.00
   -7  -19    2      2.83      0.00
   -6  -19    2     -1.54      0.00
   -5  -19    2      1.69      0.00
   -1  -19    2     -0.74      0.00
    0  -19    2      2.58      0.00
    1  -19    2     -0.04      0.00
    2  -19    2     -3.19      0.00
   -9  -18    2     -3.30      0.00
   -8  -18    2     -2.52      0.00
    2  -18    2     -1.40      0.00
    3  -18    2     -1.98      0.00
  -11  -17    2     -0.24      0.00
  -10  -17    2      1.97      0.00
    4  -17    2      0.92      0.00
    5  -17    2      1.95      0.00
  -11  -16    2     -1.00      0.00
    6  -16    2     -0.23      0.00
  -12  -15    2      1.68      0.00
    7  -15    2     -4.65      0.00
  -13  -14    2      1.54      0.00
    8  -14    2     -1.91      0.00
  -13  -13    2      1.92      0.00
    9  -13    2      1.17      0.00
  -14  -12    2     -1.95      0.00
   10  -12    2      2.59      0.00
  -14  -11    2      0.54      0.00
   11  -11    2      0.73      0.00
  -14  -10    2      3.29      0.00
   11  -10    2     -1.46      0.00
  -15   -9    2     -0.55      0.00
   12   -9    2     -3.15      0.00
  -15   -8    2     -0.49      0.00
   12   -8    2      0.05      0.00
  -15   -7    2      1.82      0.00
   13   -7    2     -0.24      0.00
  -15   -6    2      1.85      0.00
   13   -6    2      0.25      0.00
  -15   -5    2      2.48      0.00
   14   -5    2      0.93      0.00
  -15   -4    2     -0.47      0.00
   14   -4    2     -2.88      0.00
  -15   -3    2     -0.01      0.00
   14   -3    2      0.15      0.00
  -15   -2    2      3.86      0.00
   15   -2    2     -1.59      0.00
  -15   -1    2      0.53      0.00
   15   -1    2     -1.89      0.00
  -15    0    2     -0.77      0.00
   15    0    2     -0.54      0.00
  -15    1    2     -0.39      0.00
   15    1    2     -2.27      0.00
   15    2    2     -0.97      0.00
  -14    3    2     -1.92      0.00
  -14    4    2      1.57      0.00
  -14    5    2      1.40      0.00
  -13    6    2      0.60      0.00
  -13    7    2      1.30      0.00
  -12    8    2     -2.18      0.00
   15    8    2      1.64      0.00
  -12    9    2     -1.02      0.00
   15    9    2     -0.76      0.00
  -11   10    2     -4.59      0.00
   15   10    2     -2.06      0.00
  -11   11    2     -0.68      0.00
   15   11    2      1.12      0.00
  -10   12    2      0.72      0.00
   14   12    2      1.47      0.00
   -9   13    2     -0.77      0.00
   14   13    2     -1.45      0.00
   -9   14    2      1.94      0.00
   14   14    2     -0.25      0.00
   -8   15    2      0.50      0.00
   13   15    2      0.46      0.00
   -7   16    2     -1.98      0.00
   12   16    2      1.42      0.00
   13   16    2      0.21      0.00
   -6   17    2     -2.46      0.00
   -5   17    2      1.09      0.00
   11   17    2     -2.24      0.00
   12   17    2     -0.04      0.00
   -5   18    2     -1.79      0.00
   -4   18    2      1.18      0.00
   10   18    2     -2.66      0.00
   11   18    2     -0.89      0.00
   -3   19    2      0.72      0.00
   -2   19    2     -2.36      0.00
    9   19    2     -0.53      0.00
   10   19    2      1.93      0.00
   -1   20    2      1.16      0.00
    0   20    2      1.48      0.00
    1   20    2      0.66      0.00
    2   20    2      0.32      0.00
    6   20    2     -0.24      0.00
    7   20    2     -1.86      0.00
    8   20    2      1.50      0.00
   -7  -19    3     -1.97      0.00
   -6  -19    3      0.41      0.00
   -5  -19    3     -0.46      0.00
   -4  -19    3     -0.46      0.00
   -3  -19    3     -3.74      0.00
   -2  -19    3     -5.55      0.00
   -1  -19    3     -1.98      0.00
    0  -19    3     -3.79      0.00
    1  -19    3     -0.73      0.00
   -9  -18    3      3.14      0.00
   -8  -18    3      1.28      0.00
   -7  -18    3     -0.23      0.00
    1  -18    3      1.83      0.00
    2  -18    3      3.17      0.00
    3  -18    3      0.55      0.00
  -10  -17    3     -3.07      0.00
   -9  -17    3     -0.38      0.00
    4  -17    3     -2.51      0.00
    5  -17    3     -2.42      0.00
  -11  -16    3      1.43      0.00
  -10  -16    3      0.19      0.00
    5  -16    3     -3.22      0.00
    6  -16    3     -0.22      0.00
  -12  -15    3     -1.15      0.00
  -11  -15    3      2.68      0.00
    7  -15    3      3.68      0.00
  -12  -14    3     -0.12      0.00
    8  -14    3      1.66      0.00
  -13  -13    3      0.08      0.00
    9  -13    3     -1.52      0.00
  -13  -12    3      1.44      0.00
   10  -12    3     -0.18      0.00
  -14  -11    3     -0.23      0.00
   10  -11    3     -0.24      0.00
  -14  -10    3     -3.08      0.00
   11  -10    3     -0.55      0.00
  -14   -9    3      1.41      0.00
   12   -9    3      1.77      0.00
  -15   -8    3      0.04      0.00
   12   -8    3     -0.14      0.00
  -15   -7    3     -0.79      0.00
   13   -7    3      0.38      0.00
  -15   -6    3     -1.88      0.00
   13   -6    3      0.23      0.00
  -15   -5    3     -3.13      0.00
   14   -5    3     -0.23      0.00
  -15   -4    3      1.56      0.00
   14   -4    3      1.93      0.00
  -15   -3    3      0.91      0.00
   14   -3    3     -0.15      0.00
  -15   -2    3     -4.06      0.00
   15   -2    3     -0.81      0.00
  -15   -1    3     -0.33      0.00
   15   -1    3      2.84      0.00
  -15    0    3      1.24      0.00
   15    0    3      0.01      0.00
   15    1    3      1.51      0.00
  -14    2    3      2.15      0.00
   15    2    3      1.22      0.00
  -14    3    3      0.88      0.00
  -14    4    3     -0.99      0.00
  -13    6    3     -3.15      0.00
  -13    7    3      0.44      0.00
  -12    8    3      0.91      0.00
   15    8    3     -0.84      0.00
  -12    9    3     -0.46      0.00
   15    9    3     -1.05      0.00
  -11   10    3      5.45      0.00
   15   10    3      0.68      0.00
  -11   11    3     -0.50      0.00
   15   11    3      0.90      0.00
  -10   12    3     -0.91      0.00
   15   12    3     -1.10      0.00
   -9   13    3      1.08      0.00
   14   13    3      0.23      0.00
   -9   14    3     -1.15      0.00
   14   14    3     -0.72      0.00
   -8   15    3     -0.90      0.00
   13   15    3      0.89      0.00
   -7   16    3      0.90      0.00
   12   16    3     -0.11      0.00
   13   16    3     -1.32      0.00
   -6   17    3      2.89      0.00
   -5   17    3      2.17      0.00
   12   17    3     -0.77      0.00
   -5   18    3      4.00      0.00
   -4   18    3      1.93      0.00
   11   18    3      1.47      0.00
   -3   19    3     -1.17      0.00
   -2   19    3     -1.05      0.00
    9   19    3     -0.57      0.00
   10   19    3     -1.97      0.00
   -1   20    3     -1.72      0.00
    0   20    3     -0.76      0.00
    1   20    3      1.25      0.00
    7   20    3      1.38      0.00
    8   20    3      0.05      0.00
    9   20    3      1.74      0.00
   -6  -19    4     -0.09      0.00
   -5  -19    4     -0.86      0.00
   -4  -19    4     -0.11      0.00
   -3  -19    4      2.39      0.00
   -2  -19    4      4.76      0.00
   -1  -19    4      0.31      0.00
    0  -19    4      1.67      0.00
   -8  -18    4     -0.25      0.00
   -7  -18    4     -0.08      0.00
   -6  -18    4      0.38      0.00
    0  -18    4      0.06      0.00
    1  -18    4     -0.44      0.00
    2  -18    4     -5.00      0.00
   -9  -17    4      0.92      0.00
   -8  -17    4     -2.88      0.00
    3  -17    4     -4.51      0.00
    4  -17    4      2.81      0.00
  -11  -16    4     -2.30      0.00
  -10  -16    4      0.73      0.00
    5  -16    4      0.30      0.00
    6  -16    4      0.41      0.00
  -11  -15    4      0.35      0.00
    6  -15    4      1.00      0.00
    7  -15    4     -0.85      0.00
  -12  -14    4     -0.42      0.00
    7  -14    4      0.31      0.00
    8  -14    4     -1.47      0.00
  -13  -13    4     -0.14      0.00
  -12  -13    4     -0.36      0.00
    8  -13    4      2.46      0.00
    9  -13    4      0.43      0.00
  -13  -12    4     -0.42      0.00
    9  -12    4      2.56      0.00
  -13  -11    4      0.75      0.00
   10  -11    4      1.89      0.00
  -14  -10    4      1.55      0.00
   11  -10    4      0.94      0.00
  -14   -9    4     -1.73      0.00
   12   -9    4      1.05      0.00
  -14   -8    4      1.31      0.00
   12   -8    4     -2.59      0.00
   13   -7    4      0.27      0.00
  -15   -6    4      1.89      0.00
   13   -6    4     -0.72      0.00
  -15   -5    4      1.14      0.00
  -15   -4    4     -0.15      0.00
   14   -4    4     -1.40      0.00
  -15   -3    4      0.10      0.00
   14   -3    4      0.27      0.00
  -15   -2    4      1.58      0.00
  -15   -1    4     -0.54      0.00
   15   -1    4     -2.62      0.00
   15    0    4      0.44      0.00
  -14    1    4      1.67      0.00
   15    1    4     -1.01      0.00
  -14    2    4     -1.24      0.00
   15    2    4     -0.19      0.00
  -14    3    4     -1.09      0.00
  -14    4    4      0.77      0.00
  -13    5    4      1.70      0.00
  -13    6    4      1.41      0.00
  -13    7    4      0.41      0.00
  -12    8    4     -1.43      0.00
  -12    9    4      0.16      0.00
   15    9    4      2.59      0.00
  -11   10    4     -1.32      0.00
   15   10    4     -0.93      0.00
  -11   11    4     -0.95      0.00
   15   11    4     -2.70      0.00
  -10   12    4      1.76      0.00
   15   12    4      0.60      0.00
   -9   13    4     -1.11      0.00
   14   13    4      1.21      0.00
   -9   14    4     -0.56      0.00
   14   14    4      0.79      0.00
   -8   15    4      0.81      0.00
   13   15    4      1.61      0.00
   -7   16    4      2.30      0.00
   13   16    4      0.11      0.00
   -6   17    4     -2.09      0.00
   -5   17    4     -5.59      0.00
   12   17    4      0.90      0.00
   -5   18    4     -3.65      0.00
   -4   18    4     -4.17      0.00
   11   18    4     -4.18      0.00
   -3   19    4     -0.29      0.00
   -2   19    4      1.28      0.00
    9   19    4     -0.67      0.00
   10   19    4      2.15      0.00
   -2   20    4     -0.29      0.00
   -1   20    4      1.95      0.00
    0   20    4      3.47      0.00
    7   20    4     -0.43      0.00
    8   20    4      0.84      0.00
    9   20    4     -0.20      0.00
   -4  -19    5      0.67      0.00
   -3  -19    5      0.55      0.00
   -2  -19    5     -3.44      0.00
   -7  -18    5     -0.87      0.00
   -6  -18    5     -1.47      0.00
   -5  -18    5      0.73      0.00
   -4  -18    5      0.26      0.00
   -3  -18    5      0.48      0.00
   -2  -18    5     -1.45      0.00
   -1  -18    5     -5.33      0.00
    0  -18    5     -1.39      0.00
    1  -18    5     -1.38      0.00
    2  -18    5      3.04      0.00
   -9  -17    5     -0.46      0.00
   -8  -17    5      1.49      0.00
   -7  -17    5      0.44      0.00
    2  -17    5      2.19      0.00
    3  -17    5      6.15      0.00
    4  -17    5     -0.31      0.00
  -10  -16    5     -0.32      0.00
   -9  -16    5     -1.93      0.00
    4  -16    5      3.41      0.00
    5  -16    5     -0.82      0.00
  -11  -15    5     -1.20      0.00
  -10  -15    5      1.76      0.00
    6  -15    5      0.93      0.00
  -12  -14    5      2.45      0.00
  -11  -14    5     -1.09      0.00
    7  -14    5      0.81      0.00
  -12  -13    5     -0.25      0.00
    8  -13    5     -2.09      0.00
  -13  -12    5      0.20      0.00
    9  -12    5     -3.52      0.00
  -13  -11    5     -2.41      0.00
   10  -11    5     -1.20      0.00
  -14  -10    5     -1.32      0.00
  -13  -10    5     -0.78      0.00
   11  -10    5     -2.14      0.00
  -14   -9    5      2.86      0.00
   11   -9    5      0.83      0.00
  -14   -8    5     -0.25      0.00
   12   -8    5      2.65      0.00
  -14   -7    5      1.20      0.00
   12   -7    5      2.41      0.00
  -14   -6    5     -1.51      0.00
   13   -6    5      1.11      0.00
   13   -5    5     -0.86      0.00
   14   -4    5      2.29      0.00
   14   -3    5     -0.08      0.00
   15   -1    5      2.81      0.00
  -14    0    5      0.46      0.00
   15    0    5      0.31      0.00
  -14    1    5     -3.01      0.00
   15    1    5     -1.46      0.00
  -14    2    5      0.56      0.00
   15    2    5      0.43      0.00
  -14    3    5      0.58      0.00
  -14    4    5     -0.94      0.00
  -13    5    5      0.13      0.00
  -13    6    5     -0.96      0.00
  -13    7    5     -1.34      0.00
  -12    8    5      2.49      0.00
  -12    9    5     -1.70      0.00
   15    9    5     -2.47      0.00
  -11   10    5      0.52      0.00
   15   10    5      0.31      0.00
  -11   11    5      1.13      0.00
   15   11    5      3.17      0.00
  -10   12    5     -1.16      0.00
   15   12    5      0.78      0.00
   -9   13    5      2.01      0.00
   14   13    5     -1.19      0.00
   -9   14    5      0.82      0.00
   -8   14    5      2.45      0.00
   14   14    5      0.28      0.00
   -8   15    5     -1.53      0.00
   13   15    5     -1.84      0.00
   14   15    5     -0.32      0.00
   -7   16    5     -2.21      0.00
   13   16    5      0.83      0.00
   -6   17    5     -1.51      0.00
   12   17    5     -2.80      0.00
   -5   18    5      2.12      0.00
   -4   18    5      5.85      0.00
   11   18    5      2.81      0.00
   12   18    5     -0.64      0.00
   -3   19    5      1.84      0.00
   -2   19    5      0.69      0.00
   10   19    5     -2.11      0.00
   11   19    5      0.05      0.00
   -2   20    5     -0.43      0.00
   -1   20    5     -1.53      0.00
    0   20    5     -3.73      0.00
    7   20    5     -1.32      0.00
    8   20    5     -2.66      0.00
    9   20    5     -0.23      0.00
   -6  -18    6      1.09      0.00
   -5  -18    6     -0.83      0.00
   -4  -18    6      0.52      0.00
   -3  -18    6      0.73      0.00
   -2  -18    6     -0.84      0.00
   -1  -18    6      2.11      0.00
    0  -18    6      0.09      0.00
    1  -18    6      1.41      0.00
   -8  -17    6     -1.01      0.00
   -7  -17    6     -1.93      0.00
   -6  -17    6      0.25      0.00
    1  -17    6     -1.47      0.00
    2  -17    6     -1.68      0.00
    3  -17    6     -3.07      0.00
   -9  -16    6      2.50      0.00
   -8  -16    6      0.25      0.00
    4  -16    6     -1.69      0.00
    5  -16    6     -0.02      0.00
  -10  -15    6      0.15      0.00
    5  -15    6     -2.56      0.00
    6  -15    6     -1.76      0.00
  -11  -14    6     -1.19      0.00
    7  -14    6     -0.42      0.00
  -12  -13    6      1.58      0.00
  -11  -13    6     -2.29      0.00
    8  -13    6     -0.42      0.00
  -12  -12    6     -0.03      0.00
    9  -12    6      1.89      0.00
  -13  -11    6      1.75      0.00
   10  -11    6      1.75      0.00
  -13  -10    6      0.18      0.00
   10  -10    6     -0.16      0.00
  -13   -9    6     -1.44      0.00
   11   -9    6     -1.94      0.00
  -14   -8    6      0.36      0.00
   12   -8    6     -1.69      0.00
  -14   -7    6     -0.68      0.00
   12   -7    6     -4.42      0.00
  -14   -6    6      1.09      0.00
   13   -6    6      0.54      0.00
  -14   -5    6      1.33      0.00
   13   -5    6      0.14      0.00
  -14   -4    6      3.55      0.00
   14   -4    6     -2.43      0.00
  -14   -3    6      1.82      0.00
   14   -3    6      0.48      0.00
  -14   -2    6     -1.69      0.00
   14   -2    6     -3.29      0.00
  -14   -1    6     -0.91      0.00
   15   -1    6     -4.12      0.00
  -14    0    6     -0.08      0.00
   15    0    6      1.83      0.00
  -14    1    6      2.65      0.00
   15    1    6      2.55      0.00
  -14    2    6      1.89      0.00
   15    2    6     -3.48      0.00
  -14    3    6      0.15      0.00
   15    3    6     -0.43      0.00
  -13    4    6     -0.02      0.00
  -13    5    6      1.03      0.00
  -13    6    6      0.59      0.00
  -12    7    6      1.22      0.00
  -12    8    6     -1.08      0.00
  -12    9    6      0.23      0.00
   15    9    6      1.92      0.00
  -11   10    6      1.58      0.00
   15   10    6     -0.36      0.00
  -10   11    6     -0.47      0.00
   15   11    6     -4.23      0.00
  -10   12    6     -0.81      0.00
   15   12    6     -0.40      0.00
   -9   13    6      0.15      0.00
   14   13    6      1.14      0.00
   -9   14    6     -1.36      0.00
   -8   14    6     -2.83      0.00
   14   14    6     -0.17      0.00
   -8   15    6      0.76      0.00
   13   15    6      0.78      0.00
   14   15    6      0.95      0.00
   -7   16    6      2.11      0.00
   13   16    6      0.62      0.00
   -6   17    6      2.70      0.00
   -5   17    6     -3.86      0.00
   12   17    6      3.31      0.00
   -5   18    6     -0.12      0.00
   -4   18    6     -6.16      0.00
   11   18    6     -1.81      0.00
   12   18    6     -1.14      0.00
   -3   19    6     -1.34      0.00
   -2   19    6     -0.94      0.00
   10   19    6     -1.29      0.00
   11   19    6     -1.26      0.00
   -2   20    6      1.24      0.00
   -1   20    6      0.70      0.00
    0   20    6      2.92      0.00
    8   20    6      1.43      0.00
    9   20    6      1.60      0.00
   -4  -18    7     -0.13      0.00
   -3  -18    7     -0.81      0.00
   -2  -18    7      0.41      0.00
   -1  -18    7     -1.28      0.00
   -7  -17    7      1.87      0.00
   -6  -17    7      0.08      0.00
   -5  -17    7     -1.99      0.00
   -4  -17    7      1.56      0.00
   -3  -17    7      1.82      0.00
   -2  -17    7      0.20      0.00
   -1  -17    7     -1.83      0.00
    0  -17    7     -0.02      0.00
    1  -17    7      1.77      0.00
    2  -17    7      2.00      0.00
   -9  -16    7     -1.51      0.00
   -8  -16    7     -1.04      0.00
   -7  -16    7      0.18      0.00
    3  -16    7      2.68      0.00
    4  -16    7      1.27      0.00
  -10  -15    7     -0.30      0.00
   -9  -15    7     -1.39      0.00
    5  -15    7      0.34      0.00
  -11  -14    7      2.69      0.00
  -10  -14    7     -1.91      0.00
    6  -14    7      2.11      0.00
    7  -14    7      1.69      0.00
  -11  -13    7      0.05      0.00
    7  -13    7      2.42      0.00
    8  -13    7      0.65      0.00
  -12  -12    7     -0.09      0.00
    8  -12    7     -0.75      0.00
    9  -12    7      0.39      0.00
  -12  -11    7     -1.90      0.00
    9  -11    7     -3.41      0.00
  -13  -10    7     -0.56      0.00
   10  -10    7     -1.12      0.00
  -13   -9    7      1.55      0.00
   11   -9    7      0.08      0.00
  -13   -8    7      3.08      0.00
   11   -8    7     -1.15      0.00
  -14   -7    7      0.71      0.00
   12   -7    7      1.46      0.00
  -14   -6    7     -0.01      0.00
   13   -6    7      1.03      0.00
  -14   -5    7     -2.51      0.00
   13   -5    7     -0.31      0.00
  -14   -4    7     -3.59      0.00
   13   -4    7     -2.62      0.00
  -14   -3    7     -0.42      0.00
   14   -3    7      0.55      0.00
  -14   -2    7      0.75      0.00
   14   -2    7      0.84      0.00
  -14   -1    7      1.22      0.00
  -14    0    7      1.19      0.00
   15    0    7     -2.31      0.00
  -14    1    7     -3.92      0.00
   15    1    7      1.32      0.00
  -14    2    7     -2.26      0.00
   15    2    7      2.66      0.00
  -13    3    7     -0.72      0.00
   15    3    7     -1.78      0.00
  -13    4    7      0.23      0.00
   15    4    7      1.23      0.00
  -13    5    7     -0.98      0.00
  -13    6    7     -0.02      0.00
  -12    7    7     -0.36      0.00
  -12    8    7      1.14      0.00
   15    8    7     -0.58      0.00
  -11    9    7      2.27      0.00
   15    9    7     -0.42      0.00
  -11   10    7     -1.47      0.00
   15   10    7      0.50      0.00
  -10   11    7     -1.07      0.00
   15   11    7      2.67      0.00
  -10   12    7     -0.65      0.00
   15   12    7     -0.51      0.00
   -9   13    7     -0.62      0.00
   14   13    7     -0.58      0.00
   -8   14    7      3.89      0.00
   14   14    7     -0.77      0.00
   -8   15    7     -0.29      0.00
   -7   15    7     -1.27      0.00
   13   15    7     -0.10      0.00
   14   15    7     -0.76      0.00
   -7   16    7     -2.24      0.00
   -6   16    7     -2.56      0.00
   13   16    7     -1.70      0.00
   -6   17    7     -1.80      0.00
   -5   17    7      0.23      0.00
   12   17    7     -1.35      0.00
   -5   18    7     -0.19      0.00
   -4   18    7      4.98      0.00
   11   18    7      0.42      0.00
   12   18    7      0.29      0.00
   -3   19    7      0.01      0.00
   -2   19    7      0.03      0.00
   10   19    7     -0.57      0.00
   11   19    7      1.27      0.00
   -2   20    7     -0.94      0.00
   -1   20    7     -0.39      0.00
    0   20    7     -1.64      0.00
    8   20    7     -1.68      0.00
    9   20    7     -3.76      0.00
   -6  -17    8     -2.16      0.00
   -5  -17    8      0.04      0.00
   -4  -17    8     -0.17      0.00
   -3  -17    8     -1.11      0.00
   -2  -17    8     -1.72      0.00
   -1  -17    8      1.14      0.00
    0  -17    8      0.36      0.00
    1  -17    8     -1.08      0.00
   -8  -16    8      1.09      0.00
   -7  -16    8     -0.50      0.00
   -6  -16    8     -1.92      0.00
    1  -16    8      0.36      0.00
    2  -16    8     -0.34      0.00
    3  -16    8     -3.00      0.00
   -9  -15    8      1.93      0.00
   -8  -15    8      2.33      0.00
    4  -15    8     -2.33      0.00
    5  -15    8     -0.75      0.00
  -10  -14    8     -0.29      0.00
   -9  -14    8     -1.16      0.00
    5  -14    8     -3.41      0.00
    6  -14    8     -2.56      0.00
  -11  -13    8      0.18      0.00
  -10  -13    8     -2.42      0.00
    7  -13    8     -1.98      0.00
  -11  -12    8      2.36      0.00
    8  -12    8      0.14      0.00
  -12  -11    8      1.02      0.00
    9  -11    8      3.82      0.00
  -12  -10    8      1.04      0.00
   10  -10    8      3.03      0.00
  -13   -9    8     -0.28      0.00
   10   -9    8      0.06      0.00
   11   -9    8     -0.27      0.00
  -13   -8    8     -1.73      0.00
   11   -8    8      0.32      0.00
  -13   -7    8      0.35      0.00
   12   -7    8     -0.62      0.00
  -13   -6    8     -0.96      0.00
   12   -6    8     -1.40      0.00
  -14   -5    8      2.06      0.00
   13   -5    8      2.01      0.00
  -14   -4    8      1.05      0.00
   13   -4    8      1.17      0.00
  -14   -3    8      1.79      0.00
   14   -3    8      0.13      0.00
  -14   -2    8     -0.64      0.00
   14   -2    8      1.44      0.00
  -14   -1    8     -2.32      0.00
   14   -1    8      0.63      0.00
  -14    0    8      0.40      0.00
   15    0    8     -0.30      0.00
   15    1    8     -1.95      0.00
  -13    2    8      4.44      0.00
   15    2    8     -0.64      0.00
  -13    3    8      1.70      0.00
   15    3    8     -0.87      0.00
  -13    4    8     -1.43      0.00
   15    4    8     -0.94      0.00
  -13    5    8      0.78      0.00
   15    5    8      2.70      0.00
  -12    6    8      2.76      0.00
   15    6    8     -0.90      0.00
  -12    7    8     -1.02      0.00
   15    7    8      1.20      0.00
  -12    8    8     -1.19      0.00
   15    8    8      0.75      0.00
  -11    9    8     -1.96      0.00
   15    9    8      0.35      0.00
  -11   10    8      1.15      0.00
   15   10    8      0.49      0.00
  -10   11    8      3.31      0.00
   15   11    8     -1.81      0.00
  -10   12    8      1.11      0.00
   15   12    8     -0.02      0.00
   -9   13    8      0.74      0.00
   14   13    8      0.56      0.00
   -8   14    8     -3.89      0.00
   14   14    8      2.49      0.00
   -7   15    8     -0.91      0.00
   13   15    8      0.66      0.00
   14   15    8     -0.43      0.00
   -7   16    8      2.43      0.00
   -6   16    8      3.00      0.00
   13   16    8      1.53      0.00
   -6   17    8      0.88      0.00
   -5   17    8      0.23      0.00
   12   17    8      1.25      0.00
   -5   18    8     -0.44      0.00
   -4   18    8     -2.29      0.00
   11   18    8      0.25      0.00
   12   18    8      1.24      0.00
   -3   19    8     -1.13      0.00
   -2   19    8     -0.62      0.00
   10   19    8      1.73      0.00
   11   19    8     -2.66      0.00
   -2   20    8      0.89      0.00
   -1   20    8      0.73      0.00
    0   20    8      0.79      0.00
    8   20    8     -0.34      0.00
    9   20    8      2.29      0.00
   -3  -17    9      0.85      0.00
   -2  -17    9      2.08      0.00
   -1  -17    9     -0.55      0.00
   -6  -16    9      0.46      0.00
   -5  -16    9     -0.81      0.00
   -4  -16    9      1.28      0.00
   -3  -16    9      1.63      0.00
   -2  -16    9      0.31      0.00
   -1  -16    9      0.81      0.00
    0  -16    9     -4.84      0.00
    1  -16    9     -1.49      0.00
    2  -16    9     -0.41      0.00
   -8  -15    9     -2.27      0.00
   -7  -15    9     -1.25      0.00
    3  -15    9     -0.38      0.00
    4  -15    9      2.77      0.00
   -9  -14    9      1.11      0.00
   -8  -14    9     -1.50      0.00
    5  -14    9      1.73      0.00
  -10  -13    9     -0.14      0.00
   -9  -13    9     -0.09      0.00
    6  -13    9     -2.52      0.00
    7  -13    9      1.77      0.00
  -11  -12    9     -1.40      0.00
  -10  -12    9     -0.57      0.00
    7  -12    9     -4.39      0.00
    8  -12    9     -1.66      0.00
  -11  -11    9     -0.67      0.00
    8  -11    9     -1.29      0.00
    9  -11    9     -2.77      0.00
  -12  -10    9     -0.65      0.00
    9  -10    9     -0.41      0.00
  -12   -9    9      1.29      0.00
   10   -9    9      0.85      0.00
  -13   -8    9      1.68      0.00
  -12   -8    9      2.15      0.00
   11   -8    9      0.86      0.00
  -13   -7    9     -0.24      0.00
   11   -7    9     -0.27      0.00
  -13   -6    9      1.15      0.00
   12   -6    9     -0.40      0.00
  -13   -5    9     -0.64      0.00
   13   -5    9     -0.56      0.00
  -13   -4    9     -3.14      0.00
   13   -4    9     -1.88      0.00
  -13   -3    9     -2.65      0.00
   13   -3    9     -2.88      0.00
  -13   -2    9      1.57      0.00
   14   -2    9     -1.27      0.00
  -13   -1    9     -0.54      0.00
   14   -1    9      1.67      0.00
  -13    0    9      2.80      0.00
   14    0    9      2.44      0.00
  -13    1    9      0.84      0.00
   15    1    9      1.58      0.00
  -13    2    9     -3.50      0.00
   15    2    9      2.34      0.00
  -13    3    9      0.48      0.00
   15    3    9      0.31      0.00
  -13    4    9     -0.12      0.00
   15    4    9     -1.23      0.00
  -12    5    9      0.39      0.00
   15    5    9     -0.53      0.00
  -12    6    9     -0.96      0.00
   15    6    9      0.26      0.00
  -12    7    9      0.74      0.00
   15    7    9     -2.39      0.00
  -11    8    9      4.42      0.00
   15    8    9     -0.02      0.00
  -11    9    9      0.88      0.00
   15    9    9     -1.07      0.00
  -10   10    9      0.76      0.00
   15   10    9     -1.12      0.00
  -10   11    9     -4.90      0.00
   15   11    9      2.21      0.00
   -9   12    9     -3.79      0.00
   15   12    9     -0.91      0.00
   -9   13    9     -1.21      0.00
   14   13    9     -1.03      0.00
   -8   14    9      1.60      0.00
   14   14    9     -1.28      0.00
   -7   15    9      2.51      0.00
   13   15    9     -0.94      0.00
   14   15    9      0.82      0.00
   -6   16    9     -3.79      0.00
   13   16    9     -1.71      0.00
   -5   17    9      0.49      0.00
   12   17    9     -1.54      0.00
   -4   18    9      1.97      0.00
   11   18    9      2.28      0.00
   12   18    9     -0.77      0.00
   -3   19    9      1.73      0.00
   -2   19    9      1.01      0.00
   10   19    9     -0.58      0.00
   11   19    9      1.88      0.00
   -1   20    9     -0.80      0.00
    0   20    9     -0.81      0.00
    8   20    9      1.79      0.00
    9   20    9     -3.10      0.00
   -5  -16   10      0.87      0.00
   -4  -16   10      1.18      0.00
   -3  -16   10     -0.19      0.00
   -2  -16   10     -0.91      0.00
   -1  -16   10     -2.54      0.00
    0  -16   10      2.78      0.00
    1  -16   10      3.23      0.00
   -7  -15   10      1.62      0.00
   -6  -15   10      1.43      0.00
   -5  -15   10      0.43      0.00
    1  -15   10      4.11      0.00
    2  -15   10      2.10      0.00
    3  -15   10      0.28      0.00
   -8  -14   10      0.31      0.00
   -7  -14   10      1.75      0.00
    4  -14   10     -2.87      0.00
    5  -14   10     -1.90      0.00
   -9  -13   10     -0.86      0.00
    5  -13   10     -3.49      0.00
    6  -13   10      3.10      0.00
  -10  -12   10      0.56      0.00
    7  -12   10      5.12      0.00
  -11  -11   10      1.46      0.00
  -10  -11   10      2.66      0.00
    8  -11   10      1.67      0.00
  -11  -10   10      0.80      0.00
    9  -10   10     -0.12      0.00
  -12   -9   10     -0.53      0.00
  -11   -9   10     -1.58      0.00
   10   -9   10     -0.91      0.00
  -12   -8   10     -0.49      0.00
   10   -8   10      0.95      0.00
   11   -8   10     -1.78      0.00
  -12   -7   10     -1.78      0.00
   11   -7   10      0.89      0.00
  -13   -6   10     -1.53      0.00
   12   -6   10      0.88      0.00
  -13   -5   10      1.35      0.00
   12   -5   10      2.49      0.00
  -13   -4   10      1.80      0.00
   13   -4   10      2.27      0.00
  -13   -3   10      2.17      0.00
   13   -3   10      1.25      0.00
  -13   -2   10     -0.40      0.00
   14   -2   10      1.28      0.00
  -13   -1   10     -1.90      0.00
   14   -1   10     -2.79      0.00
  -13    0   10     -1.92      0.00
   14    0   10      0.69      0.00
  -13    1   10     -0.20      0.00
   14    1   10     -2.47      0.00
  -13    2   10     -0.33      0.00
   15    2   10     -2.50      0.00
  -13    3   10      0.98      0.00
   15    3   10      0.94      0.00
  -12    4   10      0.15      0.00
   15    4   10     -0.64      0.00
  -12    5   10     -1.49      0.00
   15    5   10      0.22      0.00
  -12    6   10     -0.05      0.00
   15    6   10      2.21      0.00
  -11    7   10     -0.80      0.00
   15    7   10      0.78      0.00
  -11    8   10     -3.39      0.00
   15    8   10      0.77      0.00
  -11    9   10     -1.56      0.00
   15    9   10      1.84      0.00
  -10   10   10      1.29      0.00
   15   10   10     -0.14      0.00
  -10   11   10      3.91      0.00
   15   11   10     -1.67      0.00
   -9   12   10      3.63      0.00
   14   12   10     -1.39      0.00
   -9   13   10      3.24      0.00
   -8   13   10     -0.07      0.00
   14   13   10     -1.37      0.00
   -8   14   10      0.39      0.00
   14   14   10      0.77      0.00
   -7   15   10     -1.31      0.00
   13   15   10      1.87      0.00
   -6   16   10      1.92      0.00
   13   16   10      1.31      0.00
   -5   17   10      0.24      0.00
   12   17   10      0.53      0.00
   -4   18   10     -2.10      0.00
   -3   18   10      0.38      0.00
   11   18   10     -3.08      0.00
   12   18   10      0.47      0.00
   -3   19   10     -1.73      0.00
   -2   19   10     -1.35      0.00
    9   19   10     -0.28      0.00
   10   19   10     -0.44      0.00
   11   19   10     -0.14      0.00
   -1   20   10      0.29      0.00
    0   20   10      0.27      0.00
    1   20   10      0.75      0.00
    7   20   10      2.44      0.00
    8   20   10     -1.29      0.00
    9   20   10      3.63      0.00
   -6  -15   11     -1.19      0.00
   -5  -15   11      0.54      0.00
   -4  -15   11      0.48      0.00
   -3  -15   11     -2.32      0.00
   -2  -15   11     -1.64      0.00
   -1  -15   11     -2.48      0.00
    0  -15   11     -0.25      0.00
    1  -15   11     -1.50      0.00
    2  -15   11     -2.71      0.00
   -7  -14   11     -1.68      0.00
   -6  -14   11     -1.81      0.00
   -5  -14   11     -3.48      0.00
    2  -14   11      1.08      0.00
    3  -14   11      1.07      0.00
    4  -14   11      3.01      0.00
   -8  -13   11      2.78      0.00
   -7  -13   11      2.26      0.00
    4  -13   11      3.34      0.00
    5  -13   11      4.26      0.00
   -9  -12   11      1.54      0.00
    6  -12   11      0.31      0.00
    7  -12   11     -4.42      0.00
  -10  -11   11     -1.57      0.00
    7  -11   11      1.00      0.00
    8  -11   11     -1.92      0.00
  -11  -10   11     -1.19      0.00
  -10  -10   11     -0.09      0.00
    8  -10   11      3.23      0.00
    9  -10   11      1.08      0.00
  -11   -9   11      0.60      0.00
    9   -9   11      0.67      0.00
  -11   -8   11     -0.51      0.00
   10   -8   11      0.13      0.00
  -12   -7   11      0.72      0.00
   11   -7   11     -1.16      0.00
  -12   -6   11     -0.36      0.00
   11   -6   11     -3.88      0.00
  -12   -5   11      3.00      0.00
   12   -5   11     -3.81      0.00
  -12   -4   11     -1.13      0.00
   12   -4   11     -1.42      0.00
  -13   -3   11     -1.65      0.00
   13   -3   11     -1.50      0.00
  -13   -2   11     -0.01      0.00
   13   -2   11      2.33      0.00
  -13   -1   11      2.50      0.00
   14   -1   11      1.08      0.00
  -13    0   11      1.05      0.00
   14    0   11     -1.23      0.00
  -12    1   11      3.41      0.00
   14    1   11      2.96      0.00
  -12    2   11      2.17      0.00
   14    2   11     -1.40      0.00
  -12    3   11     -0.02      0.00
   15    3   11     -0.62      0.00
  -12    4   11     -0.53      0.00
   15    4   11      1.27      0.00
  -12    5   11      1.82      0.00
   15    5   11     -0.66      0.00
  -11    6   11      0.37      0.00
   15    6   11     -1.29      0.00
  -11    7   11     -0.53      0.00
   15    7   11     -1.70      0.00
  -11    8   11      3.37      0.00
   15    8   11     -1.71      0.00
  -10    9   11      5.84      0.00
   15    9   11      0.72      0.00
  -10   10   11     -1.26      0.00
   15   10   11      0.57      0.00
   -9   11   11     -0.56      0.00
   14   11   11     -3.07      0.00
   15   11   11      1.19      0.00
   -9   12   11     -5.07      0.00
   14   12   11      2.79      0.00
   -8   13   11      0.91      0.00
   14   13   11      2.22      0.00
   -8   14   11     -2.25      0.00
   -7   14   11      2.56      0.00
   13   14   11      1.05      0.00
   14   14   11      0.10      0.00
   -7   15   11      0.86      0.00
   -6   15   11      4.07      0.00
   13   15   11     -1.89      0.00
   -6   16   11     -0.25      0.00
   12   16   11     -1.37      0.00
   13   16   11     -1.48      0.00
   -5   17   11     -1.47      0.00
   -4   17   11      0.29      0.00
   12   17   11      0.20      0.00
   -4   18   11      1.64      0.00
   -3   18   11      0.51      0.00
   11   18   11      2.46      0.00
   -3   19   11      1.26      0.00
   -2   19   11      0.06      0.00
   -1   19   11     -2.08      0.00
    9   19   11     -2.03      0.00
   10   19   11      1.72      0.00
   -1   20   11      0.46      0.00
    0   20   11      0.19      0.00
    1   20   11     -0.88      0.00
    2   20   11      1.58      0.00
    7   20   11     -3.11      0.00
    8   20   11      1.28      0.00
    9   20   11     -2.21      0.00
   -3  -15   12      1.82      0.00
   -2  -15   12      0.56      0.00
   -1  -15   12      1.67      0.00
   -6  -14   12      1.58      0.00
   -5  -14   12      3.76      0.00
   -4  -14   12     -0.72      0.00
   -3  -14   12     -4.28      0.00
   -2  -14   12      1.14      0.00
   -1  -14   12     -1.18      0.00
    0  -14   12      1.37      0.00
    1  -14   12      0.55      0.00
    2  -14   12     -2.29      0.00
    3  -14   12     -0.78      0.00
   -7  -13   12     -3.15      0.00
   -6  -13   12      0.24      0.00
    3  -13   12     -4.11      0.00
    4  -13   12     -2.59      0.00
   -8  -12   12     -0.67      0.00
    5  -12   12     -0.65      0.00
    6  -12   12      0.54      0.00
   -9  -11   12      1.57      0.00
    6  -11   12     -1.03      0.00
    7  -11   12     -0.89      0.00
  -10  -10   12     -1.74      0.00
   -9  -10   12      2.84      0.00
    7  -10   12     -2.67      0.00
    8  -10   12     -2.12      0.00
  -10   -9   12     -1.00      0.00
    8   -9   12     -2.43      0.00
    9   -9   12     -1.29      0.00
  -11   -8   12      1.28      0.00
    9   -8   12     -2.01      0.00
   10   -8   12     -0.82      0.00
  -11   -7   12     -0.65      0.00
   10   -7   12      0.26      0.00
  -12   -6   12     -1.78      0.00
  -11   -6   12      2.10      0.00
   11   -6   12      2.39      0.00
  -12   -5   12     -0.95      0.00
   11   -5   12     -0.38      0.00
   12   -5   12      3.62      0.00
  -12   -4   12      1.54      0.00
   12   -4   12     -0.59      0.00
  -12   -3   12     -0.01      0.00
   12   -3   12     -0.89      0.00
  -12   -2   12      3.98      0.00
   13   -2   12     -0.97      0.00
  -12   -1   12     -1.64      0.00
   13   -1   12     -1.28      0.00
  -12    0   12     -1.99      0.00
   14    0   12     -1.01      0.00
  -12    1   12     -1.28      0.00
   14    1   12     -0.39      0.00
  -12    2   12     -1.64      0.00
   14    2   12      2.03      0.00
  -12    3   12      0.88      0.00
   14    3   12     -3.50      0.00
  -12    4   12      0.33      0.00
   14    4   12      0.01      0.00
  -11    5   12     -0.61      0.00
   15    5   12      0.02      0.00
  -11    6   12      0.87      0.00
   15    6   12      1.16      0.00
  -11    7   12     -0.32      0.00
   15    7   12      2.27      0.00
  -10    8   12     -0.35      0.00
   15    8   12     -0.24      0.00
  -10    9   12     -5.18      0.00
   15    9   12     -0.95      0.00
  -10   10   12      0.28      0.00
   14   10   12     -3.18      0.00
   -9   11   12      1.72      0.00
   14   11   12      2.93      0.00
   -9   12   12      2.39      0.00
   -8   12   12     -1.15      0.00
   14   12   12     -2.04      0.00
   -8   13   12      1.17      0.00
   14   13   12     -2.72      0.00
   -7   14   12     -4.53      0.00
   13   14   12     -2.90      0.00
   14   14   12     -0.93      0.00
   -6   15   12     -2.88      0.00
   13   15   12      2.59      0.00
   -6   16   12      0.30      0.00
   -5   16   12     -0.56      0.00
   12   16   12      2.38      0.00
   13   16   12      1.29      0.00
   -5   17   12      0.71      0.00
   -4   17   12      0.26      0.00
   11   17   12     -5.25      0.00
   12   17   12     -1.80      0.00
   -4   18   12     -0.08      0.00
   -3   18   12     -0.11      0.00
   10   18   12     -0.31      0.00
   11   18   12     -1.97      0.00
   -2   19   12     -0.32      0.00
   -1   19   12      2.64      0.00
    9   19   12      2.84      0.00
   10   19   12     -0.32      0.00
    0   20   12      1.31      0.00
    1   20   12      1.99      0.00
    2   20   12     -0.27      0.00
    3   20   12      1.02      0.00
    5   20   12      1.68      0.00
    6   20   12      2.41      0.00
    7   20   12      1.65      0.00
    8   20   12     -1.42      0.00
    9   20   12      1.02      0.00
   -4  -14   13      0.10      0.00
   -3  -14   13      3.51      0.00
   -2  -14   13     -1.55      0.00
   -1  -14   13      0.93      0.00
    0  -14   13     -0.39      0.00
    1  -14   13     -1.35      0.00
   -6  -13   13     -0.65      0.00
   -5  -13   13     -2.74      0.00
   -4  -13   13     -3.97      0.00
   -3  -13   13      0.70      0.00
    0  -13   13      1.43      0.00
    1  -13   13      0.23      0.00
    2  -13   13      1.59      0.00
    3  -13   13      4.43      0.00
   -7  -12   13      1.77      0.00
   -6  -12   13      3.91      0.00
    4  -12   13      0.82      0.00
    5  -12   13      3.11      0.00
   -8  -11   13      2.59      0.00
   -7  -11   13      1.34      0.00
    5  -11   13     -6.57      0.00
    6  -11   13      0.12      0.00
   -9  -10   13     -2.28      0.00
   -8  -10   13     -2.76      0.00
    7  -10   13      1.71      0.00
  -10   -9   13     -0.79      0.00
   -9   -9   13      4.01      0.00
    8   -9   13      2.10      0.00
  -10   -8   13     -1.42      0.00
    9   -8   13      0.52      0.00
  -11   -7   13      0.17      0.00
  -10   -7   13     -1.16      0.00
   10   -7   13      1.82      0.00
  -11   -6   13     -1.52      0.00
   10   -6   13      1.84      0.00
  -11   -5   13      0.45      0.00
   11   -5   13      0.73      0.00
  -11   -4   13      1.02      0.00
   12   -4   13      1.31      0.00
  -12   -3   13      0.97      0.00
  -11   -3   13      0.45      0.00
   12   -3   13     -0.18      0.00
  -12   -2   13     -4.18      0.00
   12   -2   13      0.93      0.00
   13   -2   13     -0.12      0.00
  -12   -1   13      1.84      0.00
   13   -1   13      3.00      0.00
  -12    0   13      1.87      0.00
   13    0   13      0.66      0.00
  -12    1   13      0.29      0.00
   14    1   13     -1.55      0.00
  -12    2   13     -0.06      0.00
   14    2   13      0.38      0.00
  -11    3   13     -1.48      0.00
   14    3   13      2.19      0.00
  -11    4   13     -0.35      0.00
   14    4   13     -1.28      0.00
  -11    5   13      0.71      0.00
   14    5   13      1.13      0.00
  -11    6   13     -1.20      0.00
   14    6   13      3.07      0.00
  -10    7   13     -5.34      0.00
   14    7   13     -0.31      0.00
  -10    8   13     -0.47      0.00
   14    8   13     -3.61      0.00
  -10    9   13      3.50      0.00
   14    9   13      1.90      0.00
   -9   10   13      3.47      0.00
   14   10   13      2.99      0.00
   -9   11   13     -0.04      0.00
   14   11   13     -3.39      0.00
   -8   12   13     -0.79      0.00
   14   12   13      1.70      0.00
   -8   13   13     -0.17      0.00
   -7   13   13      1.27      0.00
   13   13   13      3.36      0.00
   14   13   13      1.65      0.00
   -7   14   13      4.63      0.00
   13   14   13      2.72      0.00
   -6   15   13      2.87      0.00
   12   15   13      0.50      0.00
   13   15   13     -1.19      0.00
   -5   16   13      0.98      0.00
   12   16   13     -2.80      0.00
   -4   17   13     -1.22      0.00
   11   17   13      3.17      0.00
   12   17   13      2.34      0.00
   -3   18   13      0.10      0.00
   -2   18   13     -0.27      0.00
   10   18   13      0.71      0.00
   11   18   13      0.78      0.00
   -2   19   13      0.27      0.00
   -1   19   13     -3.33      0.00
    0   19   13     -3.99      0.00
    8   19   13      2.33      0.00
    9   19   13     -2.69      0.00
   10   19   13     -1.25      0.00
    0   20   13     -1.85      0.00
    1   20   13     -1.84      0.00
    2   20   13     -0.45      0.00
    3   20   13     -0.26      0.00
    4   20   13      1.03      0.00
    5   20   13     -1.98      0.00
    6   20   13     -3.09      0.00
    7   20   13     -1.27      0.00
    8   20   13      0.98      0.00
   -4  -13   14      1.88      0.00
   -3  -13   14     -0.34      0.00
   -2  -13   14     -4.76      0.00
   -1  -13   14     -0.54      0.00
    0  -13   14     -1.49      0.00
    1  -13   14     -1.53      0.00
    2  -13   14     -1.49      0.00
   -6  -12   14     -2.59      0.00
   -5  -12   14     -2.43      0.00
   -4  -12   14      1.86      0.00
    1  -12   14      0.57      0.00
    2  -12   14      0.07      0.00
    3  -12   14     -1.22      0.00
    4  -12   14     -0.96      0.00
   -7  -11   14     -0.13      0.00
   -6  -11   14      0.23      0.00
    4  -11   14      1.66      0.00
    5  -11   14      5.55      0.00
   -8  -10   14      1.04      0.00
   -7  -10   14      2.73      0.00
    6  -10   14      5.38      0.00
    7  -10   14     -0.55      0.00
   -9   -9   14     -3.02      0.00
   -8   -9   14     -3.00      0.00
    7   -9   14      3.85      0.00
    8   -9   14      0.50      0.00
   -9   -8   14      0.83      0.00
    8   -8   14      1.88      0.00
  -10   -7   14      1.72      0.00
    9   -7   14      0.64      0.00
  -10   -6   14     -0.13      0.00
   10   -6   14     -0.58      0.00
  -11   -5   14      0.05      0.00
  -10   -5   14      1.74      0.00
   10   -5   14      0.32      0.00
   11   -5   14     -2.01      0.00
  -11   -4   14      0.68      0.00
   11   -4   14     -0.53      0.00
  -11   -3   14     -0.01      0.00
   12   -3   14     -0.46      0.00
  -11   -2   14      0.94      0.00
   12   -2   14      0.13      0.00
  -11   -1   14      1.57      0.00
   12   -1   14     -1.75      0.00
   13   -1   14     -1.82      0.00
  -11    0   14     -1.36      0.00
   13    0   14     -0.09      0.00
  -11    1   14     -2.72      0.00
   13    1   14      0.27      0.00
  -11    2   14      1.06      0.00
   13    2   14      1.04      0.00
  -11    3   14      1.16      0.00
   14    3   14     -0.33      0.00
  -11    4   14      0.00      0.00
   14    4   14     -0.25      0.00
  -11    5   14      0.21      0.00
  -10    5   14      0.81      0.00
   14    5   14      0.70      0.00
  -10    6   14      0.45      0.00
   14    6   14     -3.80      0.00
  -10    7   14      4.25      0.00
   14    7   14     -0.85      0.00
  -10    8   14      0.50      0.00
   14    8   14      5.12      0.00
   -9    9   14      1.41      0.00
   14    9   14     -1.61      0.00
   -9   10   14     -2.79      0.00
   14   10   14     -0.99      0.00
   -8   11   14     -1.36      0.00
   14   11   14      1.79      0.00
   -8   12   14     -1.13      0.00
   13   12   14      1.82      0.00
   14   12   14     -1.13      0.00
   -7   13   14     -1.09      0.00
   13   13   14     -2.55      0.00
   -6   14   14     -2.04      0.00
   13   14   14     -2.46      0.00
   -6   15   14     -3.40      0.00
   -5   15   14     -0.14      0.00
   12   15   14      0.43      0.00
   13   15   14     -0.96      0.00
   -5   16   14      0.70      0.00
   -4   16   14      1.30      0.00
   11   16   14     -2.31      0.00
   12   16   14      2.87      0.00
   -4   17   14     -0.35      0.00
   -3   17   14     -1.74      0.00
   11   17   14     -0.01      0.00
   -3   18   14      0.69      0.00
   -2   18   14     -0.47      0.00
   -1   18   14      1.94      0.00
    9   18   14      0.21      0.00
   10   18   14     -1.58      0.00
   -1   19   14      2.18      0.00
    0   19   14      4.12      0.00
    1   19   14      1.35      0.00
    7   19   14     -3.13      0.00
    8   19   14     -1.96      0.00
    9   19   14      1.02      0.00
    1   20   14      1.78      0.00
    2   20   14      1.80      0.00
    3   20   14      1.31      0.00
    4   20   14      0.66      0.00
    5   20   14      3.44      0.00
    6   20   14      4.48      0.00
    7   20   14      1.21      0.00
    8   20   14     -1.16      0.00
   -4  -12   15     -1.08      0.00
   -3  -12   15     -1.34      0.00
   -2  -12   15     -2.06      0.00
   -1  -12   15      0.53      0.00
    0  -12   15     -0.76      0.00
    1  -12   15     -0.45      0.00
    2  -12   15      2.18      0.00
   -6  -11   15      0.69      0.00
   -5  -11   15      1.18      0.00
   -4  -11   15      2.14      0.00
    2  -11   15     -0.74      0.00
    3  -11   15     -0.85      0.00
    4  -11   15      1.48      0.00
   -7  -10   15     -2.58      0.00
   -6  -10   15     -4.02      0.00
    4  -10   15     -1.14      0.00
    5  -10   15      0.80      0.00
    6  -10   15     -4.49      0.00
   -8   -9   15      2.44      0.00
   -7   -9   15      1.78      0.00
    6   -9   15      2.23      0.00
    7   -9   15     -1.67      0.00
   -9   -8   15     -0.22      0.00
   -8   -8   15      1.49      0.00
    7   -8   15      1.78      0.00
    8   -8   15     -0.79      0.00
   -9   -7   15     -2.87      0.00
    8   -7   15     -0.91      0.00
    9   -7   15     -1.87      0.00
  -10   -6   15      0.01      0.00
   -9   -6   15     -0.45      0.00
    9   -6   15     -0.40      0.00
  -10   -5   15     -1.69      0.00
   10   -5   15      0.86      0.00
  -10   -4   15      0.08      0.00
   10   -4   15     -3.71      0.00
   11   -4   15     -0.60      0.00
  -10   -3   15      0.78      0.00
   11   -3   15     -3.20      0.00
  -10   -2   15     -1.39      0.00
   11   -2   15      0.86      0.00
   12   -2   15     -2.48      0.00
  -11   -1   15     -1.37      0.00
  -10   -1   15      1.06      0.00
   12   -1   15      2.40      0.00
  -11    0   15      1.21      0.00
  -10    0   15     -1.29      0.00
   12    0   15      1.05      0.00
  -11    1   15      1.74      0.00
  -10    1   15      0.12      0.00
   13    1   15     -1.44      0.00
  -11    2   15     -1.96      0.00
  -10    2   15      2.87      0.00
   13    2   15     -1.04      0.00
  -10    3   15     -0.53      0.00
   13    3   15      0.52      0.00
  -10    4   15     -1.04      0.00
   13    4   15      0.42      0.00
  -10    5   15     -1.76      0.00
   14    5   15     -1.10      0.00
  -10    6   15     -0.27      0.00
   14    6   15      4.30      0.00
  -10    7   15     -2.77      0.00
   -9    7   15     -0.05      0.00
   14    7   15      0.12      0.00
   -9    8   15     -4.06      0.00
   14    8   15     -3.90      0.00
   -9    9   15     -1.13      0.00
   14    9   15      0.80      0.00
   -8   10   15     -0.40      0.00
   13   10   15     -2.69      0.00
   14   10   15      0.44      0.00
   -8   11   15      0.32      0.00
   13   11   15      1.06      0.00
   -7   12   15      0.39      0.00
   13   12   15     -1.65      0.00
   -7   13   15      1.05      0.00
   -6   13   15     -2.25      0.00
   13   13   15      2.22      0.00
   -6   14   15      2.50      0.00
   12   14   15     -1.75      0.00
   13   14   15      2.03      0.00
   -5   15   15      0.11      0.00
   12   15   15     -2.48      0.00
   -4   16   15      0.22      0.00
   11   16   15      2.63      0.00
   12   16   15     -2.55      0.00
   -3   17   15      0.26      0.00
   -2   17   15      0.36      0.00
   10   17   15      2.20      0.00
   11   17   15     -1.05      0.00
   -2   18   15      1.58      0.00
   -1   18   15     -1.49      0.00
    9   18   15      1.10      0.00
   10   18   15      2.91      0.00
    0   19   15     -3.28      0.00
    1   19   15     -0.99      0.00
    2   19   15     -1.97      0.00
    3   19   15      1.84      0.00
    6   19   15     -1.73      0.00
    7   19   15      2.75      0.00
    8   19   15      2.22      0.00
    9   19   15      0.11      0.00
    2   20   15     -1.98      0.00
    3   20   15     -2.24      0.00
    4   20   15      0.23      0.00
    5   20   15     -1.70      0.00
    6   20   15     -2.55      0.00
    7   20   15     -0.91      0.00
   -4  -11   16     -1.28      0.00
   -3  -11   16      0.05      0.00
   -2  -11   16     -0.66      0.00
   -1  -11   16      2.93      0.00
    0  -11   16      3.14      0.00
    1  -11   16      2.26      0.00
    2  -11   16      0.74      0.00
   -6  -10   16      3.85      0.00
   -5  -10   16      1.54      0.00
   -4  -10   16      1.23      0.00
    2  -10   16     -1.17      0.00
    3  -10   16     -2.23      0.00
    4  -10   16      1.39      0.00
   -7   -9   16     -1.92      0.00
   -6   -9   16      2.22      0.00
    4   -9   16     -1.23      0.00
    5   -9   16      0.10      0.00
    6   -9   16     -2.38      0.00
   -8   -8   16      0.82      0.00
   -7   -8   16     -3.27      0.00
    6   -8   16      1.57      0.00
    7   -8   16     -0.09      0.00
   -8   -7   16      1.48      0.00
    7   -7   16      1.10      0.00
    8   -7   16      0.95      0.00
   -9   -6   16     -0.69      0.00
   -8   -6   16      2.22      0.00
    8   -6   16      1.34      0.00
    9   -6   16      0.72      0.00
   -9   -5   16      0.22      0.00
    9   -5   16     -0.50      0.00
   -9   -4   16      1.76      0.00
   10   -4   16      0.09      0.00
  -10   -3   16      1.66      0.00
   -9   -3   16     -0.55      0.00
   10   -3   16     -1.87      0.00
   11   -3   16      2.52      0.00
  -10   -2   16      0.54      0.00
   11   -2   16     -1.15      0.00
  -10   -1   16     -1.97      0.00
   11   -1   16     -0.60      0.00
   12   -1   16     -3.32      0.00
  -10    0   16      1.79      0.00
   12    0   16      0.36      0.00
  -10    1   16      0.04      0.00
   12    1   16      0.29      0.00
  -10    2   16     -1.08      0.00
   12    2   16     -3.18      0.00
   13    2   16     -1.06      0.00
  -10    3   16     -0.30      0.00
   13    3   16      0.69      0.00
  -10    4   16      0.33      0.00
   13    4   16      0.06      0.00
  -10    5   16      2.36      0.00
   -9    5   16      1.20      0.00
   13    5   16     -4.13      0.00
   -9    6   16      1.18      0.00
   13    6   16      0.17      0.00
   -9    7   16      0.95      0.00
   13    7   16      0.67      0.00
   -9    8   16      1.62      0.00
   -8    8   16      3.30      0.00
   13    8   16     -4.45      0.00
   -8    9   16      0.64      0.00
   13    9   16     -0.75      0.00
   -8   10   16      0.95      0.00
   13   10   16      1.68      0.00
   -7   11   16     -0.46      0.00
   13   11   16      0.13      0.00
   -7   12   16      0.46      0.00
   -6   12   16     -2.17      0.00
   13   12   16      0.44      0.00
   -6   13   16     -0.20      0.00
   12   13   16     -1.66      0.00
   13   13   16     -2.21      0.00
   -5   14   16      2.19      0.00
   12   14   16      2.74      0.00
   -5   15   16     -2.04      0.00
   -4   15   16     -0.92      0.00
   11   15   16      0.33      0.00
   12   15   16      3.63      0.00
   -4   16   16      0.86      0.00
   -3   16   16      2.46      0.00
   10   16   16     -1.06      0.00
   11   16   16     -2.74      0.00
   -3   17   16     -0.95      0.00
   -2   17   16     -0.30      0.00
   -1   17   16      1.55      0.00
    9   17   16     -3.03      0.00
   10   17   16     -3.95      0.00
   -1   18   16      0.77      0.00
    0   18   16      1.82      0.00
    1   18   16      2.10      0.00
    8   18   16      1.16      0.00
    9   18   16     -0.92      0.00
    0   19   16      1.50      0.00
    1   19   16      0.69      0.00
    2   19   16      1.78      0.00
    3   19   16     -3.20      0.00
    4   19   16     -0.44      0.00
    5   19   16      1.24      0.00
    6   19   16      2.26      0.00
    7   19   16     -0.57      0.00
    8   19   16     -0.07      0.00
    3   20   16      1.72      0.00
    4   20   16     -0.64      0.00
    5   20   16      1.41      0.00
   -4  -10   17     -1.54      0.00
   -3  -10   17     -0.94      0.00
   -2  -10   17      1.21      0.00
   -1  -10   17      3.10      0.00
    0  -10   17     -0.31      0.00
    1  -10   17     -1.01      0.00
    2  -10   17     -1.16      0.00
    3  -10   17      0.53      0.00
   -5   -9   17     -3.25      0.00
   -4   -9   17      1.68      0.00
   -3   -9   17      1.16      0.00
    2   -9   17      3.34      0.00
    3   -9   17      1.31      0.00
    4   -9   17      1.27      0.00
   -6   -8   17      1.22      0.00
   -5   -8   17      0.11      0.00
    4   -8   17     -4.94      0.00
    5   -8   17     -3.35      0.00
    6   -8   17     -0.80      0.00
   -7   -7   17      0.70      0.00
   -6   -7   17      1.40      0.00
    6   -7   17     -3.52      0.00
    7   -7   17     -1.54      0.00
   -8   -6   17     -2.02      0.00
   -7   -6   17     -0.41      0.00
    7   -6   17     -1.88      0.00
    8   -6   17     -1.52      0.00
   -8   -5   17      0.97      0.00
    8   -5   17     -1.09      0.00
    9   -5   17      0.34      0.00
   -9   -4   17     -0.67      0.00
   -8   -4   17      0.25      0.00
    9   -4   17      4.41      0.00
   -9   -3   17      0.80      0.00
   -8   -3   17     -2.93      0.00
   10   -3   17      0.30      0.00
   -9   -2   17     -0.81      0.00
   10   -2   17     -0.40      0.00
   -9   -1   17      3.27      0.00
   11   -1   17     -0.66      0.00
   -9    0   17      1.11      0.00
   11    0   17     -1.90      0.00
   -9    1   17     -2.07      0.00
   12    1   17      2.00      0.00
   -9    2   17     -3.55      0.00
   12    2   17      0.24      0.00
   -9    3   17      0.65      0.00
   12    3   17      2.55      0.00
   -9    4   17      1.08      0.00
   12    4   17     -0.39      0.00
   13    4   17      1.97      0.00
   -9    5   17      1.14      0.00
   13    5   17      2.10      0.00
   -9    6   17     -1.54      0.00
   -8    6   17      0.99      0.00
   13    6   17     -0.78      0.00
   -8    7   17     -2.46      0.00
   13    7   17     -0.27      0.00
   -8    8   17     -2.02      0.00
   13    8   17      3.64      0.00
   -8    9   17     -0.10      0.00
   -7    9   17     -2.94      0.00
   13    9   17      1.33      0.00
   -7   10   17      0.90      0.00
   12   10   17      0.23      0.00
   13   10   17     -2.19      0.00
   -7   11   17     -0.47      0.00
   -6   11   17      1.19      0.00
   12   11   17      0.26      0.00
   13   11   17     -0.12      0.00
   -6   12   17      1.59      0.00
   12   12   17      1.32      0.00
   -6   13   17     -1.34      0.00
   -5   13   17      0.78      0.00
   12   13   17      0.50      0.00
   -5   14   17      0.11      0.00
   -4   14   17      2.53      0.00
   11   14   17     -0.01      0.00
   12   14   17     -2.34      0.00
   -4   15   17     -0.75      0.00
   -3   15   17     -0.82      0.00
   10   15   17      4.80      0.00
   11   15   17      1.35      0.00
   -3   16   17     -0.97      0.00
   -2   16   17     -1.68      0.00
   10   16   17      1.56      0.00
   11   16   17      2.64      0.00
   -2   17   17     -0.35      0.00
   -1   17   17     -2.70      0.00
    0   17   17     -1.70      0.00
    8   17   17      0.38      0.00
    9   17   17      0.15      0.00
   10   17   17      2.26      0.00
    0   18   17     -1.76      0.00
    1   18   17     -2.21      0.00
    2   18   17      0.94      0.00
    3   18   17      2.09      0.00
    5   18   17     -2.03      0.00
    6   18   17     -2.75      0.00
    7   18   17     -0.70      0.00
    8   18   17     -2.15      0.00
    9   18   17      0.31      0.00
    2   19   17     -0.83      0.00
    3   19   17      1.71      0.00
    4   19   17      0.56      0.00
    5   19   17     -1.58      0.00
    6   19   17     -2.78      0.00
    7   19   17     -1.69      0.00
   -3   -9   18     -0.73      0.00
   -2   -9   18     -0.58      0.00
   -1   -9   18      0.40      0.00
    0   -9   18      0.70      0.00
    1   -9   18     -0.63      0.00
    2   -9   18     -3.76      0.00
    3   -9   18     -1.15      0.00
   -5   -8   18      0.45      0.00
   -4   -8   18      0.37      0.00
   -3   -8   18     -3.56      0.00
   -2   -8   18     -2.29      0.00
    1   -8   18      4.73      0.00
    2   -8   18      0.55      0.00
    3   -8   18     -2.48      0.00
    4   -8   18      0.86      0.00
   -6   -7   18     -0.63      0.00
   -5   -7   18      0.09      0.00
   -4   -7   18     -1.48      0.00
    4   -7   18      1.66      0.00
    5   -7   18      3.34      0.00
    6   -7   18      3.62      0.00
   -7   -6   18     -0.25      0.00
   -6   -6   18     -4.05      0.00
    6   -6   18      0.23      0.00
    7   -6   18      2.35      0.00
   -7   -5   18      1.96      0.00
   -6   -5   18     -0.02      0.00
    7   -5   18     -0.44      0.00
    8   -5   18      0.72      0.00
   -8   -4   18     -0.54      0.00
   -7   -4   18     -2.69      0.00
    8   -4   18     -1.41      0.00
    9   -4   18     -0.86      0.00
   -8   -3   18      1.30      0.00
   -7   -3   18      0.87      0.00
    9   -3   18     -1.25      0.00
   -8   -2   18      1.58      0.00
    9   -2   18     -1.94      0.00
   10   -2   18      0.74      0.00
   -8   -1   18     -2.29      0.00
   10   -1   18      3.17      0.00
   -9    0   18     -1.01      0.00
   -8    0   18     -2.28      0.00
   10    0   18     -0.90      0.00
   11    0   18      0.85      0.00
   -9    1   18      1.05      0.00
   -8    1   18      1.19      0.00
   11    1   18      0.45      0.00
   -9    2   18      2.46      0.00
   -8    2   18      0.64      0.00
   11    2   18     -1.39      0.00
   -9    3   18      0.10      0.00
   -8    3   18      4.10      0.00
   11    3   18      0.91      0.00
   12    3   18     -2.80      0.00
   -8    4   18      1.07      0.00
   12    4   18      0.67      0.00
   -8    5   18     -0.48      0.00
   12    5   18      4.56      0.00
   -8    6   18     -1.13      0.00
   12    6   18      0.77      0.00
   -8    7   18      1.10      0.00
   -7    7   18      1.47      0.00
   12    7   18     -1.95      0.00
   -7    8   18      3.52      0.00
   12    8   18     -1.60      0.00
   -7    9   18      0.81      0.00
   12    9   18      0.47      0.00
   -7   10   18      0.83      0.00
   -6   10   18     -1.57      0.00
   12   10   18     -0.24      0.00
   -6   11   18     -1.41      0.00
   12   11   18     -1.90      0.00
   -6   12   18      1.32      0.00
   -5   12   18     -1.39      0.00
   11   12   18      1.02      0.00
   12   12   18     -0.33      0.00
   -5   13   18     -1.07      0.00
   -4   13   18     -4.21      0.00
   11   13   18      1.85      0.00
   12   13   18      0.36      0.00
   -4   14   18      0.92      0.00
   -3   14   18      0.39      0.00
   10   14   18     -1.24      0.00
   11   14   18     -2.34      0.00
   -3   15   18     -0.88      0.00
   -2   15   18     -1.88      0.00
   10   15   18     -3.87      0.00
   11   15   18     -1.66      0.00
   -2   16   18      2.01      0.00
   -1   16   18      1.46      0.00
    9   16   18      0.90      0.00
   10   16   18     -1.09      0.00
   -1   17   18      0.94      0.00
    0   17   18      0.59      0.00
    1   17   18     -1.21      0.00
    7   17   18     -2.42      0.00
    8   17   18      0.15      0.00
    9   17   18      1.34      0.00
    1   18   18      2.20      0.00
    2   18   18      1.27      0.00
    3   18   18      0.61      0.00
    4   18   18      1.94      0.00
    5   18   18      2.54      0.00
    6   18   18      2.67      0.00
    7   18   18      1.13      0.00
    8   18   18      1.33      0.00
    4   19   18     -0.19      0.00
    5   19   18      0.50      0.00
   -3   -8   19      2.67      0.00
   -2   -8   19      1.36      0.00
   -1   -8   19      0.74      0.00
    0   -8   19     -2.54      0.00
    1   -8   19     -4.10      0.00
    2   -8   19     -1.03      0.00
   -4   -7   19      0.49      0.00
   -3   -7   19      2.22      0.00
   -2   -7   19      3.79      0.00
   -1   -7   19     -0.26      0.00
    0   -7   19      0.22      0.00
    1   -7   19     -1.41      0.00
    2   -7   19     -1.39      0.00
    3   -7   19     -1.02      0.00
    4   -7   19     -0.92      0.00
   -5   -6   19      0.06      0.00
   -4   -6   19      0.16      0.00
    4   -6   19     -2.89      0.00
    5   -6   19     -1.91      0.00
    6   -6   19     -0.24      0.00
   -6   -5   19     -0.37      0.00
   -5   -5   19      1.01      0.00
    5   -5   19     -2.40      0.00
    6   -5   19      0.96      0.00
    7   -5   19      0.76      0.00
   -7   -4   19      1.09      0.00
   -6   -4   19      1.59      0.00
    7   -4   19      0.57      0.00
    8   -4   19     -0.37      0.00
   -7   -3   19     -0.01      0.00
   -6   -3   19      3.60      0.00
    8   -3   19      3.59      0.00
   -7   -2   19     -2.36      0.00
    8   -2   19      1.87      0.00
    9   -2   19      1.40      0.00
   -8   -1   19      1.21      0.00
   -7   -1   19     -0.33      0.00
    9   -1   19     -0.56      0.00
   10   -1   19     -0.12      0.00
   -8    0   19      1.76      0.00
   -7    0   19      1.68      0.00
   10    0   19      1.80      0.00
   -8    1   19     -1.65      0.00
   -7    1   19     -3.06      0.00
   10    1   19     -1.20      0.00
   -8    2   19      0.01      0.00
   -7    2   19      0.16      0.00
   10    2   19     -1.62      0.00
   11    2   19      2.33      0.00
   -8    3   19     -2.02      0.00
   -7    3   19      2.71      0.00
   11    3   19     -1.42      0.00
   -8    4   19     -1.94      0.00
   -7    4   19     -3.87      0.00
   11    4   19      0.84      0.00
   -8    5   19      1.06      0.00
   -7    5   19     -0.15      0.00
   11    5   19      0.32      0.00
   12    5   19     -2.88      0.00
   -7    6   19      0.05      0.00
   11    6   19      2.33      0.00
   12    6   19      0.04      0.00
   -7    7   19     -2.07      0.00
   11    7   19     -0.55      0.00
   12    7   19      2.80      0.00
   -7    8   19     -0.30      0.00
   -6    8   19     -1.78      0.00
   11    8   19     -3.46      0.00
   12    8   19     -1.00      0.00
   -6    9   19     -1.37      0.00
   11    9   19      2.06      0.00
   12    9   19      0.41      0.00
   -6   10   19      2.09      0.00
   -5   10   19      2.58      0.00
   11   10   19      2.14      0.00
   12   10   19      1.16      0.00
   -5   11   19      4.32      0.00
   11   11   19     -1.52      0.00
   12   11   19      0.33      0.00
   -5   12   19      1.35      0.00
   -4   12   19      4.08      0.00
   11   12   19     -1.45      0.00
   -4   13   19      0.86      0.00
   -3   13   19      0.42      0.00
   10   13   19      1.91      0.00
   11   13   19      0.14      0.00
   -3   14   19      0.41      0.00
   -2   14   19     -1.36      0.00
    9   14   19     -0.63      0.00
   10   14   19     -2.65      0.00
   -2   15   19     -1.14      0.00
   -1   15   19      1.93      0.00
    9   15   19     -0.13      0.00
   10   15   19      3.05      0.00
   -1   16   19     -0.46      0.00
    0   16   19      2.13      0.00
    1   16   19      2.34      0.00
    7   16   19      3.44      0.00
    8   16   19      1.18      0.00
    9   16   19      0.69      0.00
    0   17   19     -0.83      0.00
    1   17   19      0.40      0.00
    2   17   19      1.04      0.00
    3   17   19      1.58      0.00
    4   17   19      1.20      0.00
    5   17   19      1.80      0.00
    6   17   19      0.19      0.00
    7   17   19      2.55      0.00
    8   17   19      0.76      0.00
    2   18   19     -0.21      0.00
    3   18   19     -1.38      0.00
    4   18   19     -0.29      0.00
    5   18   19     -0.67      0.00
    6   18   19      0.43      0.00
   -2   -7   20     -3.90      0.00
   -1   -7   20      0.00      0.00
    0   -7   20      0.38      0.00
    1   -7   20      1.29      0.00
    2   -7   20      1.19      0.00
   -3   -6   20      0.84      0.00
   -2   -6   20     -2.36      0.00
   -1   -6   20     -2.28      0.00
    0   -6   20      1.19      0.00
    1   -6   20     -0.26      0.00
    2   -6   20      0.29      0.00
    3   -6   20     -0.45      0.00
    4   -6   20      2.11      0.00
   -5   -5   20     -0.63      0.00
   -4   -5   20      2.09      0.00
   -3   -5   20     -0.40      0.00
   -2   -5   20      1.99      0.00
    3   -5   20      1.12      0.00
    4   -5   20      2.28      0.00
    5   -5   20      3.14      0.00
   -5   -4   20     -0.57      0.00
   -4   -4   20      3.85      0.00
    5   -4   20      2.63      0.00
    6   -4   20      2.60      0.00
   -6   -3   20     -1.29      0.00
   -5   -3   20     -5.16      0.00
    6   -3   20      1.14      0.00
    7   -3   20      0.08      0.00
   -6   -2   20      2.36      0.00
   -5   -2   20     -0.32      0.00
    7   -2   20      1.16      0.00
    8   -2   20      0.04      0.00
   -7   -1   20     -0.01      0.00
   -6   -1   20     -1.60      0.00
    8   -1   20      3.67      0.00
    9   -1   20      0.77      0.00
   -7    0   20     -0.67      0.00
   -6    0   20     -0.61      0.00
    8    0   20      3.22      0.00
    9    0   20      4.14      0.00
   -7    1   20      1.77      0.00
   -6    1   20      2.07      0.00
    9    1   20      2.54      0.00
   10    1   20     -0.46      0.00
   -7    2   20     -1.44      0.00
   -6    2   20      1.26      0.00
    9    2   20     -4.08      0.00
   10    2   20      0.53      0.00
   -7    3   20     -0.71      0.00
   -6    3   20     -1.93      0.00
   10    3   20     -5.53      0.00
   -7    4   20      1.80      0.00
   -6    4   20      2.48      0.00
   10    4   20     -0.04      0.00
   11    4   20     -2.21      0.00
   -7    5   20     -1.53      0.00
   -6    5   20      1.00      0.00
   10    5   20      1.89      0.00
   11    5   20     -0.50      0.00
   -6    6   20     -0.62      0.00
   10    6   20      2.27      0.00
   11    6   20     -3.11      0.00
   -6    7   20     -0.98      0.00
   11    7   20      2.98      0.00
   -6    8   20      0.67      0.00
   -5    8   20     -3.48      0.00
   11    8   20      2.13      0.00
   -6    9   20      0.71      0.00
   -5    9   20     -2.69      0.00
   10    9   20     -2.87      0.00
   11    9   20     -3.30      0.00
   -5   10   20      0.52      0.00
   -4   10   20     -5.17      0.00
   10   10   20      1.13      0.00
   11   10   20     -0.47      0.00
   -5   11   20     -3.52      0.00
   -4   11   20     -0.81      0.00
   10   11   20      1.82      0.00
   11   11   20      2.17      0.00
   -4   12   20     -2.73      0.00
   -3   12   20      1.45      0.00
   10   12   20     -2.31      0.00
   11   12   20      1.06      0.00
   -3   13   20     -0.32      0.00
   -2   13   20     -0.24      0.00
    9   13   20      3.37      0.00
   10   13   20     -0.47      0.00
   -2   14   20      2.59      0.00
   -1   14   20     -2.36      0.00
    8   14   20      2.83      0.00
    9   14   20      0.02      0.00
   10   14   20      2.09      0.00
   -1   15   20     -0.25      0.00
    0   15   20     -5.17      0.00
    1   15   20     -3.27      0.00
    7   15   20      2.36      0.00
    8   15   20     -0.60      0.00
    9   15   20      0.44      0.00
    0   16   20     -1.29      0.00
    1   16   20     -1.19      0.00
    2   16   20     -0.86      0.00
    3   16   20      2.88      0.00
    4   16   20      0.25      0.00
    5   16   20      0.49      0.00
    6   16   20     -0.35      0.00
    7   16   20     -2.98      0.00
    8   16   20     -0.70      0.00
    2   17   20      0.83      0.00
    3   17   20     -1.92      0.00
    4   17   20     -1.94      0.00
    5   17   20     -3.53      0.00
    6   17   20     -1.38      0.00
    7   17   20     -1.75      0.00
   -2   -5   21     -1.15      0.00
   -1   -5   21      0.43      0.00
    0   -5   21     -2.30      0.00
    1   -5   21     -1.47      0.00
    2   -5   21     -1.56      0.00
    3   -5   21     -2.04      0.00
   -4   -4   21     -1.61      0.00
   -3   -4   21     -2.62      0.00
   -2   -4   21      0.02      0.00
   -1   -4   21     -3.19      0.00
    0   -4   21     -2.32      0.00
    1   -4   21     -4.06      0.00
    2   -4   21      1.17      0.00
    3   -4   21     -2.08      0.00
    4   -4   21     -0.28      0.00
    5   -4   21     -1.78      0.00
   -4   -3   21      2.62      0.00
   -3   -3   21     -3.36      0.00
   -2   -3   21      0.85      0.00
    4   -3   21     -1.78      0.00
    5   -3   21      1.78      0.00
    6   -3   21     -0.50      0.00
   -5   -2   21     -0.03      0.00
   -4   -2   21      2.82      0.00
   -3   -2   21     -0.22      0.00
    5   -2   21     -3.00      0.00
    6   -2   21      0.90      0.00
    7   -2   21      0.18      0.00
   -5   -1   21     -1.07      0.00
   -4   -1   21     -1.20      0.00
    6   -1   21      0.77      0.00
    7   -1   21      1.62      0.00
    8   -1   21     -1.30      0.00
   -6    0   21      0.81      0.00
   -5    0   21      4.11      0.00
    7    0   21      1.50      0.00
    8    0   21     -3.18      0.00
   -6    1   21     -0.53      0.00
   -5    1   21     -0.79      0.00
    8    1   21      1.87      0.00
    9    1   21     -1.03      0.00
   -6    2   21     -1.51      0.00
   -5    2   21     -4.14      0.00
    8    2   21      0.56      0.00
    9    2   21      0.99      0.00
   -6    3   21      3.30      0.00
   -5    3   21      1.42      0.00
    9    3   21     -2.60      0.00
   10    3   21      3.51      0.00
   -6    4   21     -0.91      0.00
   -5    4   21     -1.79      0.00
    9    4   21     -2.84      0.00
   10    4   21     -1.75      0.00
   -6    5   21     -0.58      0.00
   -5    5   21     -6.25      0.00
    9    5   21     -0.63      0.00
   10    5   21     -2.13      0.00
   -6    6   21      0.97      0.00
   -5    6   21     -0.60      0.00
    9    6   21      0.91      0.00
   10    6   21     -1.97      0.00
   -5    7   21     -0.83      0.00
   10    7   21     -1.39      0.00
   -5    8   21      3.91      0.00
   -4    8   21     -4.44      0.00
   10    8   21      3.02      0.00
   -5    9   21     -0.07      0.00
   -4    9   21      3.03      0.00
    9    9   21      1.65      0.00
   10    9   21      1.89      0.00
   -4   10   21      3.86      0.00
   -3   10   21      5.13      0.00
    9   10   21     -4.39      0.00
   10   10   21     -0.89      0.00
   -4   11   21      0.35      0.00
   -3   11   21      4.14      0.00
    9   11   21     -0.52      0.00
   10   11   21     -0.89      0.00
   -3   12   21     -0.16      0.00
   -2   12   21      3.32      0.00
    8   12   21      0.58      0.00
    9   12   21      0.94      0.00
   10   12   21      0.90      0.00
   -2   13   21      1.22      0.00
   -1   13   21      4.98      0.00
    8   13   21     -0.33      0.00
    9   13   21     -2.14      0.00
   -1   14   21      0.93      0.00
    0   14   21      2.67      0.00
    1   14   21     -3.44      0.00
    6   14   21     -2.68      0.00
    7   14   21     -1.28      0.00
    8   14   21     -0.98      0.00
    9   14   21      1.73      0.00
    0   15   21      1.42      0.00
    1   15   21      4.92      0.00
    2   15   21      0.49      0.00
    3   15   21     -3.06      0.00
    4   15   21      0.47      0.00
    5   15   21     -0.50      0.00
    6   15   21      1.40      0.00
    7   15   21     -1.12      0.00
    8   15   21     -0.34      0.00
    2   16   21      0.96      0.00
    3   16   21     -1.79      0.00
    4   16   21     -0.86      0.00
    5   16   21      0.06      0.00
    6   16   21     -1.66      0.00
    0   -4   22      1.44      0.00
    1   -4   22      3.40      0.00
    2   -4   22      0.03      0.00
   -2   -3   22     -0.93      0.00
   -1   -3   22     -1.93      0.00
    0   -3   22      1.86      0.00
    1   -3   22      2.47      0.00
    2   -3   22      0.22      0.00
    3   -3   22     -1.94      0.00
    4   -3   22      0.94      0.00
   -3   -2   22     -0.25      0.00
   -2   -2   22      2.76      0.00
   -1   -2   22     -0.63      0.00
    0   -2   22     -2.39      0.00
    1   -2   22     -1.99      0.00
    2   -2   22     -1.50      0.00
    3   -2   22     -1.99      0.00
    4   -2   22      1.04      0.00
    5   -2   22      1.95      0.00
   -4   -1   22      0.17      0.00
   -3   -1   22      1.57      0.00
   -2   -1   22      1.86      0.00
   -1   -1   22     -0.21      0.00
    4   -1   22     -2.08      0.00
    5   -1   22     -0.03      0.00
    6   -1   22     -1.95      0.00
   -4    0   22     -1.30      0.00
   -3    0   22     -0.17      0.00
   -2    0   22      1.18      0.00
    5    0   22      1.05      0.00
    6    0   22      3.32      0.00
    7    0   22     -0.99      0.00
   -4    1   22     -1.25      0.00
   -3    1   22     -3.58      0.00
    6    1   22      3.06      0.00
    7    1   22      1.03      0.00
    8    1   22     -1.17      0.00
   -5    2   22      0.37      0.00
   -4    2   22      1.87      0.00
   -3    2   22     -1.95      0.00
    7    2   22      0.24      0.00
    8    2   22     -0.38      0.00
   -5    3   22     -0.60      0.00
   -4    3   22      5.99      0.00
    7    3   22      0.76      0.00
    8    3   22      2.01      0.00
   -5    4   22      1.77      0.00
   -4    4   22      1.84      0.00
    8    4   22      1.12      0.00
    9    4   22      1.08      0.00
   -5    5   22      1.54      0.00
   -4    5   22      1.91      0.00
    8    5   22     -4.10      0.00
    9    5   22      0.60      0.00
   -4    6   22      1.62      0.00
   -3    6   22      1.25      0.00
    8    6   22     -6.45      0.00
    9    6   22     -2.18      0.00
   -4    7   22      0.52      0.00
   -3    7   22     -3.45      0.00
    8    7   22      2.64      0.00
    9    7   22     -2.12      0.00
   -4    8   22      0.96      0.00
   -3    8   22     -5.24      0.00
    8    8   22      0.23      0.00
    9    8   22      1.35      0.00
   -4    9   22     -2.39      0.00
   -3    9   22      1.31      0.00
   -2    9   22     -1.94      0.00
    8    9   22      3.49      0.00
    9    9   22     -1.80      0.00
   -3   10   22     -1.63      0.00
   -2   10   22     -0.10      0.00
    8   10   22      2.68      0.00
    9   10   22      3.75      0.00
   -2   11   22     -3.69      0.00
   -1   11   22     -1.42      0.00
    7   11   22     -1.03      0.00
    8   11   22     -1.07      0.00
    9   11   22      2.92      0.00
   -2   12   22     -2.82      0.00
   -1   12   22     -1.08      0.00
    0   12   22      2.05      0.00
    6   12   22      0.80      0.00
    7   12   22     -3.05      0.00
    8   12   22      0.56      0.00
    9   12   22     -1.08      0.00
   -1   13   22     -2.03      0.00
    0   13   22     -0.52      0.00
    1   13   22      2.42      0.00
    2   13   22      1.77      0.00
    3   13   22      1.42      0.00
    4   13   22     -0.52      0.00
    5   13   22      2.19      0.00
    6   13   22      0.19      0.00
    7   13   22     -0.08      0.00
    8   13   22     -2.27      0.00
    0   14   22     -2.92      0.00
    1   14   22     -1.66      0.00
    2   14   22      4.76      0.00
    3   14   22      4.48      0.00
    4   14   22      2.81      0.00
    5   14   22     -0.56      0.00
    6   14   22      0.97      0.00
    7   14   22      1.16      0.00
    2   15   22      0.05      0.00
    3   15   22      2.12      0.00
    4   15   22     -1.64      0.00
    5   15   22     -0.21      0.00
    6   15   22     -0.77      0.00
    0   -2   23      2.44      0.00
    1   -2   23      0.67      0.00
    2   -2   23      0.85      0.00
   -1   -1   23     -0.93      0.00
    0   -1   23     -0.14      0.00
    1   -1   23      0.02      0.00
    2   -1   23      1.84      0.00
    3   -1   23      2.30      0.00
    4   -1   23      0.59      0.00
   -2    0   23     -2.60      0.00
   -1    0   23     -2.12      0.00
    0    0   23     -1.72      0.00
    1    0   23      0.41      0.00
    2    0   23      0.86      0.00
    3    0   23      1.04      0.00
    4    0   23      1.04      0.00
    5    0   23     -1.13      0.00
   -3    1   23      1.69      0.00
   -2    1   23      1.98      0.00
   -1    1   23      0.27      0.00
    0    1   23      0.32      0.00
    1    1   23     -2.00      0.00
    2    1   23     -1.73      0.00
    3    1   23      0.20      0.00
    4    1   23     -0.82      0.00
    5    1   23      3.11      0.00
    6    1   23      0.40      0.00
   -3    2   23      0.04      0.00
   -2    2   23      4.69      0.00
   -1    2   23      3.78      0.00
    0    2   23     -1.24      0.00
    4    2   23      3.31      0.00
    5    2   23      0.74      0.00
    6    2   23      3.28      0.00
    7    2   23      0.66      0.00
   -3    3   23     -3.10      0.00
   -2    3   23      1.10      0.00
   -1    3   23      1.41      0.00
    5    3   23     -0.30      0.00
    6    3   23      0.72      0.00
    7    3   23      0.99      0.00
   -3    4   23     -5.94      0.00
   -2    4   23     -3.29      0.00
   -1    4   23     -1.72      0.00
    6    4   23      2.21      0.00
    7    4   23      3.34      0.00
    8    4   23     -1.92      0.00
   -3    5   23     -0.51      0.00
   -2    5   23     -2.82      0.00
   -1    5   23     -0.33      0.00
    6    5   23     -4.20      0.00
    7    5   23      2.64      0.00
    8    5   23      3.54      0.00
   -3    6   23     -0.31      0.00
   -2    6   23      2.78      0.00
   -1    6   23      0.20      0.00
    6    6   23      2.93      0.00
    7    6   23     -3.43      0.00
    8    6   23      4.77      0.00
   -3    7   23      3.66      0.00
   -2    7   23     -0.62      0.00
   -1    7   23      1.17      0.00
    6    7   23      5.24      0.00
    7    7   23      3.85      0.00
    8    7   23     -1.20      0.00
   -3    8   23      1.82      0.00
   -2    8   23      3.09      0.00
   -1    8   23     -3.52      0.00
    6    8   23     -0.04      0.00
    7    8   23      0.46      0.00
    8    8   23     -0.49      0.00
   -2    9   23      2.32      0.00
   -1    9   23     -2.20      0.00
    0    9   23     -4.87      0.00
    6    9   23     -0.36      0.00
    7    9   23     -0.83      0.00
    8    9   23     -2.80      0.00
   -2   10   23      1.61      0.00
   -1   10   23     -0.27      0.00
    0   10   23     -3.17      0.00
    1   10   23      1.45      0.00
    5   10   23      0.20      0.00
    6   10   23      1.07      0.00
    7   10   23      1.27      0.00
    8   10   23      0.26      0.00
   -1   11   23      0.84      0.00
    0   11   23     -0.40      0.00
    1   11   23      0.77      0.00
    2   11   23      3.84      0.00
    3   11   23     -0.42      0.00
    4   11   23     -1.59      0.00
    5   11   23     -2.85      0.00
    6   11   23      1.79      0.00
    7   11   23      0.24      0.00
    8   11   23      0.49      0.00
    0   12   23     -0.29      0.00
    1   12   23     -1.43      0.00
    2   12   23      0.11      0.00
    3   12   23      2.01      0.00
    4   12   23     -0.03      0.00
    5   12   23      0.35      0.00
    6   12   23     -0.32      0.00
    7   12   23      3.04      0.00
    1   13   23     -0.85      0.00
    2   13   23     -2.08      0.00
    3   13   23     -2.31      0.00
    4   13   23      1.48      0.00
    5   13   23      0.25      0.00
    6   13   23      0.30      0.00
    3   14   23     -1.51      0.00
    4   14   23     -2.22      0.00
    0    0    0      0.00      0.00
# SQUEEZE RESULTS (Version = 120716)
# Note: Data are Listed for all Voids in the P1 Unit Cell
# i.e. Centre of Gravity, Solvent Accessible Volume,
# Recovered number of Electrons in the Void and
# Details about the Squeezed Material
loop_
  _platon_squeeze_void_nr
  _platon_squeeze_void_average_x
  _platon_squeeze_void_average_y
  _platon_squeeze_void_average_z
  _platon_squeeze_void_volume
  _platon_squeeze_void_count_electrons
  _platon_squeeze_void_content
   1 -0.027  0.027  0.500       873       290 ' '
   2  0.151  0.308  0.881        49         6 ' '
   3  0.849  0.692  0.119        49         7 ' '
# Missing Reflections Below sin(th)/lambda = 0.25
loop_
  _platon_missing_refln_index_h
  _platon_missing_refln_index_k
  _platon_missing_refln_index_l
  _platon_missing_refln_theta
    0    1    0     1.313
    0    0    1     1.119
    0    1    1     1.481
_platon_squeeze_void_probe_radius                  1.20
_platon_squeeze_details
)
TITL AB1059_a.res in P-1
CELL   12.2903   16.6660   19.1380     72.79     80.54     74.89
SPGR P-1
# Solvent Accessible Volume =       970
# Electrons Found in S.A.V. =       302
# Note: Atoms in Void as Cxxx and Qxxx all others
C101 0.581 0.269 0.422 !      10.29 eA-3
Q102 0.238 0.589 0.271 !       3.78 eA-3
C103 0.637 0.180 0.472 !       3.58 eA-3
C104 0.470 0.423 0.466 !       3.28 eA-3
C105 0.437 0.580 0.317 !       3.18 eA-3
C106 0.358 0.823 0.470 !       3.15 eA-3
C107 0.067 0.814 0.456 !       2.94 eA-3
C108 0.172 0.805 0.359 !       2.82 eA-3
C109 0.137 0.812 0.421 !       2.76 eA-3
C110 0.958 0.160 0.469 !       2.53 eA-3
C111 0.045 0.177 0.427 !       2.52 eA-3
C112 0.126 0.770 0.488 !       2.50 eA-3
C113 0.162 0.662 0.454 !       2.44 eA-3
C114 0.031 0.087 0.489 !       2.41 eA-3
C115 0.874 0.327 0.494 !       2.35 eA-3
C116 0.388 0.552 0.457 !       2.31 eA-3
C117 0.893 0.225 0.438 !       2.26 eA-3
C118 0.141 0.032 0.469 !       2.22 eA-3
C119 0.965 0.228 0.423 !       2.21 eA-3
C120 0.638 0.085 0.497 !       2.17 eA-3
Q121 0.937 0.619 0.374 !       2.10 eA-3
C122 0.027 0.225 0.409 !       2.04 eA-3
C123 0.139 0.104 0.432 !       1.99 eA-3
C124 0.237 0.031 0.405 !       1.98 eA-3
C125 0.269 0.949 0.423 !       1.96 eA-3
C126 0.298 0.898 0.427 !       1.96 eA-3
C127 0.376 0.574 0.402 !       1.94 eA-3
Q128 0.811 0.232 0.214 !       1.86 eA-3
C129 0.234 0.705 0.332 !       1.67 eA-3
Q130 0.733 0.347 0.051 !       1.66 eA-3
C131 0.060 0.130 0.428 !       1.62 eA-3
C132 0.171 0.060 0.482 !       1.52 eA-3
C133 0.295 0.635 0.343 !       1.51 eA-3
Q134 0.419 0.250 0.078 !       1.49 eA-3
Q135 0.597 0.339 0.049 !       1.49 eA-3
Q136 0.332 0.281 0.102 !       1.48 eA-3
Q137 0.420 0.179 0.247 !       1.47 eA-3
Q138 0.371 0.332 0.113 !       1.45 eA-3
Q139 0.456 0.298 0.095 !       1.44 eA-3
Q140 0.845 0.359 0.047 !       1.44 eA-3
Q141 0.687 0.218 0.224 !       1.44 eA-3
Q142 0.468 0.207 0.282 !       1.43 eA-3
Q143 0.717 0.136 0.100 !       1.43 eA-3
C144 0.063 0.995 0.486 !       1.43 eA-3
C145 0.575 0.258 0.480 !       1.42 eA-3
Q146 0.689 0.312 0.027 !       1.42 eA-3
C147 0.141 0.739 0.439 !       1.41 eA-3
Q148 0.626 0.166 0.124 !       1.38 eA-3
Q149 0.467 0.436 0.213 !       1.38 eA-3
C150 0.247 0.632 0.434 !       1.35 eA-3
Q151 0.424 0.392 0.202 !       1.34 eA-3
C152 0.438 0.615 0.410 !       1.34 eA-3
Q153 0.722 0.273 0.242 !       1.31 eA-3
C154 0.258 1.003 0.441 !       1.31 eA-3
Q155 0.895 0.287 0.162 !       1.30 eA-3
C156 0.189 0.921 0.396 !       1.29 eA-3
C157 0.047 0.054 0.454 !       1.29 eA-3
C158 0.939 0.293 0.468 !       1.28 eA-3
Q159 0.559 0.390 0.203 !       1.28 eA-3
Q160 0.248 0.231 0.154 !       1.27 eA-3
C161 0.187 0.996 0.422 !       1.27 eA-3
Q162 0.797 0.138 0.324 !       1.26 eA-3
Q163 0.674 0.089 0.088 !       1.25 eA-3
Q164 0.027 0.026 0.088 !       1.24 eA-3
Q165 0.655 0.396 0.049 !       1.24 eA-3
Q166 0.505 0.128 0.252 !       1.23 eA-3
Q167 0.768 0.187 0.201 !       1.23 eA-3
Q168 0.909 0.068 0.470 !       1.23 eA-3
Q169 0.016 0.287 0.369 !       1.23 eA-3
Q170 0.923 0.998 0.362 !       1.23 eA-3
Q171 0.971 0.155 0.050 !       1.22 eA-3
C172 0.280 0.698 0.295 !       1.20 eA-3
C173 0.974 0.154 0.407 !       1.20 eA-3
Q174 0.314 0.449 0.189 !       1.19 eA-3
C175 0.220 0.706 0.391 !       1.19 eA-3
C176 0.483 0.738 0.373 !       1.17 eA-3
C177 0.247 0.667 0.280 !       1.17 eA-3
Q178 0.753 0.348 0.261 !       1.17 eA-3
C179 0.705 0.140 0.471 !       1.16 eA-3
Q180 0.251 0.386 0.129 !       1.16 eA-3
C181 0.797 0.343 0.473 !       1.15 eA-3
C182 0.170 0.145 0.395 !       1.15 eA-3
C183 0.878 0.120 0.501 !       1.14 eA-3
Q184 0.231 0.703 0.051 !       1.13 eA-3
C185 0.279 0.633 0.296 !       1.13 eA-3
Q186 0.016 0.767 0.460 !       1.11 eA-3
Q187 0.797 0.027 0.135 !       1.10 eA-3
C188 0.499 0.613 0.454 !       1.10 eA-3
Q189 0.580 0.118 0.110 !       1.09 eA-3
Q190 0.015 0.248 0.488 !       1.09 eA-3
Q191 0.953 0.096 0.427 !       1.08 eA-3
C192 0.438 0.589 0.455 !       1.08 eA-3
Q193 0.672 0.379 0.001 !       1.07 eA-3
C194 0.426 0.492 0.487 !       1.06 eA-3
Q195 0.034 0.044 0.139 !       1.05 eA-3
Q196 0.889 0.107 0.234 !       1.05 eA-3
Q197 0.753 0.262 0.172 !       1.05 eA-3
C198 0.739 0.343 0.498 !       1.05 eA-3
Q199 0.864 0.099 0.299 !       1.05 eA-3
)
;
_shelx_fab_checksum              90203
loop_
_space_group_symop_operation_xyz
'x, y, z'
'-x, -y, -z'
loop_
_atom_site_label
_atom_site_type_symbol
_atom_site_fract_x
_atom_site_fract_y
_atom_site_fract_z
_atom_site_U_iso_or_equiv
_atom_site_adp_type
_atom_site_occupancy
_atom_site_site_symmetry_order
_atom_site_calc_flag
_atom_site_refinement_flags_posn
_atom_site_refinement_flags_adp
Zr1 Zr 0.39524(4) 0.29250(3) 0.09346(3) 0.01567(12) Uani 1 1 d . .
Zr2 Zr 0.64771(4) 0.13441(3) 0.10371(3) 0.01608(12) Uani 1 1 d . .
Zr3 Zr 0.48342(4) 0.17029(3) 0.26534(3) 0.01726(12) Uani 1 1 d . .
Zr4 Zr 0.74426(4) 0.22936(3) 0.21723(3) 0.01754(12) Uani 1 1 d . .
Zr5 Zr 0.66570(4) 0.34829(3) 0.04443(3) 0.01496(12) Uani 1 1 d . .
Zr6 Zr 0.49204(4) 0.38784(3) 0.20508(3) 0.01612(12) Uani 1 1 d . .
P1 P 0.06355(12) 0.37554(9) 0.63159(8) 0.0249(3) Uani 1 1 d . .
O1 O 0.3873(3) 0.2088(2) 0.02536(19) 0.0204(7) Uani 1 1 d . .
O2 O 0.5511(3) 0.1102(2) 0.02710(18) 0.0200(7) Uani 1 1 d . .
O3 O 0.2567(3) 0.2320(2) 0.15437(19) 0.0213(8) Uani 1 1 d . .
O4 O 0.3102(3) 0.1556(2) 0.2663(2) 0.0235(8) Uani 1 1 d . .
O5 O 0.2532(3) 0.3979(2) 0.11589(19) 0.0198(7) Uani 1 1 d . .
O6 O 0.3137(3) 0.4602(2) 0.18576(18) 0.0199(7) Uani 1 1 d . .
O7 O 0.4827(3) 0.4024(2) 0.08427(18) 0.0169(7) Uani 1 1 d . .
H7O H 0.445956 0.460960 0.054961 0.020 Uiso 1 1 calc R U
O9 O 0.4322(3) 0.2887(2) 0.19518(18) 0.0170(7) Uani 1 1 d . .
O10 O 0.5668(3) 0.26048(19) 0.06004(18) 0.0162(7) Uani 1 1 d . .
O11 O 0.4747(3) 0.14812(19) 0.15758(18) 0.0164(7) Uani 1 1 d . .
H11O H 0.433669 0.103314 0.158276 0.020 Uiso 1 1 calc R U
O12 O 0.3902(3) 0.3720(2) 0.31158(18) 0.0219(8) Uani 1 1 d . .
O13 O 0.3767(3) 0.2332(2) 0.34777(19) 0.0240(8) Uani 1 1 d . .
O14 O 0.7652(3) 0.2865(2) -0.03979(18) 0.0192(7) Uani 1 1 d . .
O15 O 0.7540(3) 0.1481(2) -0.00364(19) 0.0213(7) Uani 1 1 d . .
O16 O 0.6496(3) 0.3410(2) 0.15557(18) 0.0168(7) Uani 1 1 d . .
O17 O 0.6445(3) 0.1474(2) 0.21118(18) 0.0176(7) Uani 1 1 d . .
O18 O 0.5819(3) 0.2548(2) 0.28387(18) 0.0189(7) Uani 1 1 d . .
H18O H 0.585160 0.253903 0.335970 0.023 Uiso 1 1 calc R U
O19 O 0.7649(3) 0.2141(2) 0.10451(18) 0.0179(7) Uani 1 1 d . .
H19O H 0.844521 0.195717 0.083483 0.022 Uiso 1 1 calc R U
O20 O 0.5514(3) 0.0847(2) 0.3730(2) 0.0329(9) Uani 1 1 d . .
O21 O 0.5044(3) 0.0236(2) 0.3002(2) 0.0297(9) Uani 1 1 d . .
O22 O 0.8918(3) 0.2848(2) 0.1590(2) 0.0226(8) Uani 1 1 d . .
O23 O 0.8393(3) 0.3598(2) 0.04687(19) 0.0207(7) Uani 1 1 d . .
O24 O 0.8910(3) 0.1103(2) 0.2281(2) 0.0252(8) Uani 1 1 d . .
O25 O 0.7970(3) 0.1395(2) 0.3274(2) 0.0296(9) Uani 1 1 d . .
O26 O 0.2343(3) 0.6817(2) 0.7239(2) 0.0251(8) Uani 1 1 d . .
O27 O 0.3995(3) 0.5826(2) 0.72658(18) 0.0216(8) Uani 1 1 d . .
O28 O 0.1938(3) -0.0283(2) 0.86720(19) 0.0225(8) Uani 1 1 d . .
O29 O 0.3578(3) 0.0050(2) 0.8475(2) 0.0240(8) Uani 1 1 d . .
C1 C 0.4212(5) 0.1166(4) -0.0531(3) 0.0335(14) Uani 1 1 d . .
H1A H 0.419305 0.055496 -0.033964 0.050 Uiso 1 1 calc R U
H1B H 0.476554 0.124045 -0.096328 0.050 Uiso 1 1 calc R U
H1C H 0.346127 0.150348 -0.066946 0.050 Uiso 1 1 calc R U
C2 C 0.4544(4) 0.1469(3) 0.0048(3) 0.0195(11) Uani 1 1 d . .
C3 C 0.1313(5) 0.1529(4) 0.2361(4) 0.0383(15) Uani 1 1 d . .
H3A H 0.113836 0.136169 0.289535 0.057 Uiso 1 1 calc R U
H3AB H 0.139065 0.103215 0.216734 0.057 Uiso 1 1 calc R U
H3AC H 0.069971 0.199705 0.213858 0.057 Uiso 1 1 calc R U
C4 C 0.2404(4) 0.1830(3) 0.2179(3) 0.0234(11) Uani 1 1 d . .
C5 C 0.1317(4) 0.5225(3) 0.1426(3) 0.0281(12) Uani 1 1 d . .
H5A H 0.127622 0.558961 0.175211 0.042 Uiso 1 1 calc R U
H5AB H 0.067838 0.494146 0.156606 0.042 Uiso 1 1 calc R U
H5AC H 0.128418 0.558160 0.091718 0.042 Uiso 1 1 calc R U
C6 C 0.2413(4) 0.4551(3) 0.1490(3) 0.0195(11) Uani 1 1 d . .
C7 C 0.8776(4) 0.1944(3) -0.1088(3) 0.0292(12) Uani 1 1 d . .
H7A H 0.888296 0.134641 -0.110694 0.044 Uiso 1 1 calc R U
H7AB H 0.949830 0.204334 -0.102064 0.044 Uiso 1 1 calc R U
H7AC H 0.850268 0.233702 -0.154903 0.044 Uiso 1 1 calc R U
C8 C 0.7931(4) 0.2102(3) -0.0463(3) 0.0200(11) Uani 1 1 d . .
C9 C 1.0261(5) 0.3486(4) 0.0702(3) 0.0345(14) Uani 1 1 d . .
H9A H 1.019077 0.404953 0.034048 0.052 Uiso 1 1 calc R U
H9AB H 1.074267 0.304007 0.047859 0.052 Uiso 1 1 calc R U
H9AC H 1.060026 0.349387 0.112764 0.052 Uiso 1 1 calc R U
C10 C 0.9109(4) 0.3294(3) 0.0944(3) 0.0217(11) Uani 1 1 d . .
C11 C 0.5966(7) -0.0701(5) 0.4056(4) 0.066(2) Uani 1 1 d . .
H11A H 0.557733 -0.075842 0.455169 0.100 Uiso 1 1 calc R U
H11B H 0.677642 -0.076091 0.407508 0.100 Uiso 1 1 calc R U
H11C H 0.586041 -0.115095 0.385692 0.100 Uiso 1 1 calc R U
C12 C 0.5488(5) 0.0163(4) 0.3573(3) 0.0333(13) Uani 1 1 d . .
C13 C 0.9376(5) 0.0052(4) 0.3439(3) 0.0410(15) Uani 1 1 d . .
H13A H 0.963308 0.016421 0.385240 0.062 Uiso 1 1 calc R U
H13B H 1.003248 -0.019214 0.313976 0.062 Uiso 1 1 calc R U
H13C H 0.888235 -0.035682 0.362722 0.062 Uiso 1 1 calc R U
C14 C 0.8730(4) 0.0883(3) 0.2976(3) 0.0249(12) Uani 1 1 d . .
C15 C 0.3523(4) 0.3092(3) 0.3545(3) 0.0237(11) Uani 1 1 d . .
C16 C 0.2733(4) 0.3260(3) 0.4192(3) 0.0240(11) Uani 1 1 d . .
C17 C 0.2225(5) 0.4083(3) 0.4237(3) 0.0315(13) Uani 1 1 d . .
H17 H 0.232890 0.455835 0.383106 0.038 Uiso 1 1 calc R U
C18 C 0.1560(5) 0.4230(3) 0.4867(3) 0.0312(13) Uani 1 1 d . .
H18 H 0.119257 0.480071 0.488691 0.037 Uiso 1 1 calc R U
C19 C 0.1435(5) 0.3530(3) 0.5472(3) 0.0270(12) Uani 1 1 d . .
C20 C 0.1888(5) 0.2707(4) 0.5404(3) 0.0344(14) Uani 1 1 d . .
H20 H 0.176418 0.222702 0.579986 0.041 Uiso 1 1 calc R U
C21 C 0.2521(5) 0.2572(4) 0.4768(3) 0.0353(14) Uani 1 1 d . .
H21 H 0.281379 0.200000 0.472467 0.042 Uiso 1 1 calc R U
C22 C 0.1367(5) 0.4510(3) 0.6476(3) 0.0253(12) Uani 1 1 d . .
C23 C 0.0738(5) 0.5090(4) 0.6865(3) 0.0339(14) Uani 1 1 d . .
H23 H -0.004959 0.512089 0.699081 0.041 Uiso 1 1 calc R U
C24 C 0.1242(5) 0.5620(4) 0.7071(3) 0.0355(14) Uani 1 1 d . .
H24 H 0.080942 0.600955 0.734174 0.043 Uiso 1 1 calc R U
C25 C 0.2405(5) 0.5578(3) 0.6876(3) 0.0252(12) Uani 1 1 d . .
C26 C 0.3013(5) 0.5031(4) 0.6473(3) 0.0343(14) Uani 1 1 d . .
H26 H 0.379938 0.500259 0.634165 0.041 Uiso 1 1 calc R U
C27 C 0.2483(5) 0.4509(3) 0.6251(3) 0.0303(13) Uani 1 1 d . .
H27 H 0.289921 0.415482 0.594484 0.036 Uiso 1 1 calc R U
C28 C 0.2965(4) 0.6128(3) 0.7132(3) 0.0236(11) Uani 1 1 d . .
C29 C 0.1209(5) 0.2749(3) 0.6995(3) 0.0252(12) Uani 1 1 d . .
C30 C 0.2267(5) 0.2553(4) 0.7229(3) 0.0355(14) Uani 1 1 d . .
H30 H 0.271640 0.297070 0.707321 0.043 Uiso 1 1 calc R U
C31 C 0.2687(5) 0.1755(4) 0.7689(3) 0.0365(14) Uani 1 1 d . .
H31 H 0.342211 0.162523 0.784575 0.044 Uiso 1 1 calc R U
C32 C 0.2034(4) 0.1143(3) 0.7920(3) 0.0208(11) Uani 1 1 d . .
C33 C 0.0967(5) 0.1333(3) 0.7707(3) 0.0276(12) Uani 1 1 d . .
H33 H 0.051585 0.091670 0.787684 0.033 Uiso 1 1 calc R U
C34 C 0.0542(4) 0.2131(3) 0.7243(3) 0.0280(12) Uani 1 1 d . .
H34 H -0.019791 0.225998 0.709308 0.034 Uiso 1 1 calc R U
C35 C 0.2533(4) 0.0268(3) 0.8385(3) 0.0236(11) Uani 1 1 d . .
C1A C 0.2411(5) 0.4787(4) -0.1041(3) 0.0385(15) Uani 1 1 d . .
H1AA H 0.270657 0.438790 -0.135053 0.058 Uiso 1 1 calc R U
H1AB H 0.241428 0.537714 -0.133711 0.058 Uiso 1 1 calc R U
H1AC H 0.163429 0.474698 -0.083999 0.058 Uiso 1 1 calc R U
C2A C 0.3131(4) 0.4558(3) -0.0432(3) 0.0192(10) Uani 1 1 d . .
O1A O 0.3416(3) 0.5121(2) -0.02284(18) 0.0188(7) Uani 1 1 d . .
O2A O 0.3447(3) 0.3760(2) -0.01328(18) 0.0196(7) Uani 1 1 d . .
C1B C 1.1539(6) 0.0663(5) 0.0182(4) 0.065(2) Uani 1 1 d . .
H1BA H 1.157946 0.007336 0.016782 0.098 Uiso 1 1 calc R U
H1BB H 1.221149 0.067795 0.038731 0.098 Uiso 1 1 calc R U
H1BC H 1.150587 0.104685 -0.031664 0.098 Uiso 1 1 calc R U
C2B C 1.0497(4) 0.0957(4) 0.0655(3) 0.0276(12) Uani 1 1 d . .
O1B O 1.0461(3) 0.0396(2) 0.1319(2) 0.0404(11) Uani 1 1 d . .
H1BO H 0.987160 0.056976 0.157416 0.061 Uiso 1 1 calc R U
O2B O 0.9806(3) 0.1616(2) 0.0483(2) 0.0282(8) Uani 1 1 d . .
C1C C 0.3035(6) -0.1064(4) 0.1781(4) 0.0500(18) Uani 1 1 d . .
H1CA H 0.342492 -0.166334 0.198355 0.075 Uiso 1 1 calc R U
H1CB H 0.300927 -0.095527 0.125102 0.075 Uiso 1 1 calc R U
H1CC H 0.226207 -0.096086 0.201993 0.075 Uiso 1 1 calc R U
C2C C 0.3672(5) -0.0460(4) 0.1917(4) 0.0356(14) Uani 1 1 d . .
O1C O 0.4288(4) -0.0834(3) 0.2464(3) 0.0529(13) Uani 1 1 d . .
H1CO H 0.463153 -0.048638 0.252063 0.079 Uiso 1 1 calc R U
O2C O 0.3585(3) 0.0280(2) 0.1566(2) 0.0316(9) Uani 1 1 d . .
C1D C 0.4426(5) 0.6764(3) 0.1256(3) 0.0300(13) Uani 1 1 d . .
H1DA H 0.511367 0.675063 0.145992 0.045 Uiso 1 1 calc R U
H1DB H 0.376438 0.690138 0.159841 0.045 Uiso 1 1 calc R U
H1DC H 0.435497 0.720474 0.078481 0.045 Uiso 1 1 calc R U
C2D C 0.4497(4) 0.5892(3) 0.1139(3) 0.0174(10) Uani 1 1 d . .
O1D O 0.4130(3) 0.5823(2) 0.05922(18) 0.0179(7) Uani 1 1 d . .
O2D O 0.4945(3) 0.5247(2) 0.16277(18) 0.0185(7) Uani 1 1 d . .
loop_
_atom_site_aniso_label
_atom_site_aniso_U_11
_atom_site_aniso_U_22
_atom_site_aniso_U_33
_atom_site_aniso_U_23
_atom_site_aniso_U_13
_atom_site_aniso_U_12
Zr1 0.0140(2) 0.0135(2) 0.0213(3) -0.00569(19) -0.00080(19) -0.00528(18)
Zr2 0.0152(2) 0.0129(2) 0.0210(3) -0.00578(19) 0.00028(19) -0.00432(18)
Zr3 0.0163(2) 0.0151(2) 0.0207(3) -0.00517(19) 0.00017(19) -0.00497(19)
Zr4 0.0157(2) 0.0155(2) 0.0227(3) -0.0056(2) -0.00264(19) -0.00458(19)
Zr5 0.0130(2) 0.0126(2) 0.0199(3) -0.00497(19) -0.00005(18) -0.00423(18)
Zr6 0.0162(2) 0.0144(2) 0.0195(3) -0.00684(19) 0.00001(19) -0.00459(18)
P1 0.0303(8) 0.0208(7) 0.0245(7) -0.0068(6) -0.0001(6) -0.0078(6)
O1 0.0196(18) 0.0180(18) 0.0268(19) -0.0094(15) -0.0004(15) -0.0072(14)
O2 0.0217(19) 0.0177(17) 0.0230(19) -0.0081(15) -0.0004(15) -0.0066(14)
O3 0.0147(17) 0.0171(17) 0.031(2) -0.0024(15) -0.0016(15) -0.0060(14)
O4 0.0182(18) 0.0224(19) 0.031(2) -0.0081(16) 0.0024(16) -0.0081(15)
O5 0.0163(17) 0.0177(17) 0.028(2) -0.0099(15) 0.0018(14) -0.0075(14)
O6 0.0187(18) 0.0194(18) 0.0240(19) -0.0086(15) 0.0001(15) -0.0063(14)
O7 0.0157(17) 0.0124(16) 0.0226(18) -0.0037(14) 0.0003(14) -0.0053(13)
O9 0.0153(17) 0.0155(17) 0.0218(18) -0.0074(14) -0.0008(14) -0.0039(13)
O10 0.0135(16) 0.0135(16) 0.0217(18) -0.0057(14) 0.0016(14) -0.0041(13)
O11 0.0161(17) 0.0106(16) 0.0241(18) -0.0069(14) -0.0004(14) -0.0038(13)
O12 0.0242(19) 0.0204(18) 0.0199(18) -0.0067(15) 0.0036(15) -0.0046(15)
O13 0.0248(19) 0.0217(19) 0.026(2) -0.0097(16) 0.0021(15) -0.0057(15)
O14 0.0154(17) 0.0141(17) 0.0268(19) -0.0070(15) 0.0012(14) -0.0013(13)
O15 0.0213(18) 0.0164(17) 0.0262(19) -0.0076(15) 0.0026(15) -0.0051(14)
O16 0.0171(17) 0.0137(16) 0.0219(18) -0.0054(14) -0.0029(14) -0.0058(13)
O17 0.0171(17) 0.0137(17) 0.0205(18) -0.0023(14) -0.0004(14) -0.0045(13)
O18 0.0213(18) 0.0185(17) 0.0177(18) -0.0061(14) 0.0005(14) -0.0058(14)
O19 0.0152(17) 0.0147(17) 0.0228(18) -0.0037(14) 0.0000(14) -0.0040(13)
O20 0.044(2) 0.030(2) 0.024(2) -0.0047(17) -0.0056(18) -0.0072(18)
O21 0.036(2) 0.0203(19) 0.034(2) -0.0031(17) -0.0037(18) -0.0116(17)
O22 0.0148(17) 0.0223(19) 0.032(2) -0.0067(16) -0.0022(15) -0.0070(14)
O23 0.0150(17) 0.0176(18) 0.028(2) -0.0025(15) -0.0053(15) -0.0040(14)
O24 0.0219(19) 0.0216(19) 0.029(2) -0.0035(16) 0.0002(16) -0.0056(15)
O25 0.033(2) 0.028(2) 0.028(2) -0.0088(17) -0.0061(17) -0.0023(17)
O26 0.026(2) 0.0195(19) 0.033(2) -0.0084(16) -0.0077(16) -0.0053(15)
O27 0.0239(19) 0.0224(18) 0.0207(19) -0.0063(15) -0.0042(15) -0.0071(15)
O28 0.0216(18) 0.0164(17) 0.027(2) -0.0017(15) 0.0041(15) -0.0076(14)
O29 0.027(2) 0.0168(18) 0.030(2) -0.0054(15) -0.0059(16) -0.0066(15)
C1 0.030(3) 0.033(3) 0.046(4) -0.023(3) -0.009(3) -0.006(3)
C2 0.024(3) 0.017(2) 0.020(3) -0.003(2) 0.000(2) -0.012(2)
C3 0.024(3) 0.036(3) 0.048(4) 0.007(3) -0.007(3) -0.014(3)
C4 0.016(3) 0.016(3) 0.036(3) -0.005(2) -0.003(2) -0.002(2)
C5 0.020(3) 0.023(3) 0.041(3) -0.014(3) 0.002(2) -0.002(2)
C6 0.016(2) 0.014(2) 0.024(3) 0.000(2) 0.004(2) -0.007(2)
C7 0.024(3) 0.024(3) 0.038(3) -0.011(2) 0.005(2) -0.004(2)
C8 0.016(2) 0.023(3) 0.023(3) -0.007(2) 0.001(2) -0.007(2)
C9 0.026(3) 0.035(3) 0.040(4) 0.004(3) -0.006(3) -0.017(3)
C10 0.016(3) 0.014(2) 0.035(3) -0.009(2) -0.001(2) -0.002(2)
C11 0.087(6) 0.039(4) 0.061(5) 0.012(4) -0.033(5) -0.008(4)
C12 0.031(3) 0.025(3) 0.038(4) -0.002(3) -0.002(3) -0.005(2)
C13 0.045(4) 0.031(3) 0.038(4) -0.001(3) -0.007(3) -0.001(3)
C14 0.022(3) 0.020(3) 0.033(3) -0.004(2) -0.008(2) -0.006(2)
C15 0.023(3) 0.024(3) 0.023(3) -0.007(2) -0.004(2) -0.003(2)
C16 0.024(3) 0.025(3) 0.023(3) -0.009(2) 0.001(2) -0.005(2)
C17 0.044(4) 0.022(3) 0.024(3) -0.001(2) 0.000(3) -0.006(3)
C18 0.040(3) 0.017(3) 0.033(3) -0.007(2) -0.002(3) 0.000(2)
C19 0.032(3) 0.028(3) 0.022(3) -0.007(2) -0.004(2) -0.008(2)
C20 0.049(4) 0.024(3) 0.028(3) -0.007(2) 0.009(3) -0.013(3)
C21 0.046(4) 0.021(3) 0.034(3) -0.009(3) 0.004(3) -0.003(3)
C22 0.031(3) 0.023(3) 0.025(3) -0.006(2) -0.003(2) -0.009(2)
C23 0.027(3) 0.045(4) 0.036(3) -0.020(3) 0.000(3) -0.009(3)
C24 0.032(3) 0.039(3) 0.043(4) -0.020(3) -0.002(3) -0.011(3)
C25 0.031(3) 0.022(3) 0.027(3) -0.006(2) -0.010(2) -0.008(2)
C26 0.033(3) 0.031(3) 0.042(4) -0.014(3) 0.002(3) -0.011(3)
C27 0.029(3) 0.025(3) 0.038(3) -0.013(3) 0.005(3) -0.009(2)
C28 0.028(3) 0.024(3) 0.022(3) -0.005(2) -0.002(2) -0.013(2)
C29 0.034(3) 0.020(3) 0.024(3) -0.012(2) 0.003(2) -0.006(2)
C30 0.038(3) 0.024(3) 0.047(4) -0.003(3) -0.014(3) -0.013(3)
C31 0.032(3) 0.035(3) 0.044(4) -0.004(3) -0.014(3) -0.010(3)
C32 0.026(3) 0.016(2) 0.022(3) -0.009(2) 0.001(2) -0.005(2)
C33 0.027(3) 0.019(3) 0.035(3) -0.008(2) 0.004(2) -0.006(2)
C34 0.021(3) 0.028(3) 0.033(3) -0.010(2) 0.003(2) -0.004(2)
C35 0.023(3) 0.027(3) 0.023(3) -0.012(2) 0.005(2) -0.009(2)
C1A 0.041(4) 0.032(3) 0.046(4) -0.012(3) -0.011(3) -0.008(3)
C2A 0.016(2) 0.016(3) 0.026(3) -0.006(2) 0.001(2) -0.007(2)
O1A 0.0184(18) 0.0163(17) 0.0238(19) -0.0074(15) -0.0005(14) -0.0059(14)
O2A 0.0224(18) 0.0148(17) 0.0226(19) -0.0048(14) -0.0036(15) -0.0050(14)
C1B 0.051(5) 0.068(5) 0.042(4) 0.001(4) 0.017(3) 0.018(4)
C2B 0.017(3) 0.028(3) 0.040(3) -0.013(3) 0.003(2) -0.007(2)
O1B 0.026(2) 0.029(2) 0.050(3) 0.002(2) 0.0112(19) -0.0008(17)
O2B 0.022(2) 0.026(2) 0.035(2) -0.0088(17) 0.0024(16) -0.0051(16)
C1C 0.050(4) 0.033(4) 0.075(5) -0.013(3) -0.019(4) -0.014(3)
C2C 0.032(3) 0.031(3) 0.047(4) -0.014(3) -0.006(3) -0.006(3)
O1C 0.068(3) 0.034(3) 0.065(3) -0.005(2) -0.027(3) -0.024(2)
O2C 0.031(2) 0.018(2) 0.047(2) -0.0111(18) -0.0043(18) -0.0051(16)
C1D 0.032(3) 0.027(3) 0.035(3) -0.011(3) -0.004(3) -0.010(2)
C2D 0.014(2) 0.015(2) 0.023(3) -0.006(2) 0.003(2) -0.0050(19)
O1D 0.0191(18) 0.0142(17) 0.0213(18) -0.0062(14) -0.0012(14) -0.0041(14)
O2D 0.0218(18) 0.0140(17) 0.0216(18) -0.0057(14) -0.0015(14) -0.0069(14)
loop_
_atom_type_symbol
_atom_type_description
_atom_type_scat_dispersion_real
_atom_type_scat_dispersion_imag
_atom_type_scat_source
C C 0.0033 0.0016 'International Tables Vol C Tables 4.2.6.8 and 6.1.1.4'
O O 0.0106 0.0060 'International Tables Vol C Tables 4.2.6.8 and 6.1.1.4'
P P 0.1023 0.0942 'International Tables Vol C Tables 4.2.6.8 and 6.1.1.4'
Zr Zr -2.9673 0.5597 'International Tables Vol C Tables 4.2.6.8 and 6.1.1.4'
H H 0.0000 0.0000 'International Tables Vol C Tables 4.2.6.8 and 6.1.1.4'
loop_
_exptl_crystal_face_index_h
_exptl_crystal_face_index_k
_exptl_crystal_face_index_l
_exptl_crystal_face_perp_dist
0.00 0.00 -1.00 0.0160
0.00 0.00 1.00 0.0120
0.00 1.00 0.00 0.0580
0.00 -1.00 0.00 0.0550
2.00 0.00 -1.00 0.0170
-2.00 0.00 1.00 0.007
loop_
_geom_angle_atom_site_label_1
_geom_angle_atom_site_label_2
_geom_angle_atom_site_label_3
_geom_angle
_geom_angle_site_symmetry_1
_geom_angle_site_symmetry_3
O9 Zr1 O10 90.27(13) . .
O9 Zr1 O2A 145.24(12) . .
O10 Zr1 O2A 96.03(13) . .
O9 Zr1 O3 84.81(13) . .
O10 Zr1 O3 140.65(12) . .
O2A Zr1 O3 109.97(12) . .
O9 Zr1 O1 142.22(12) . .
O10 Zr1 O1 81.86(12) . .
O2A Zr1 O1 72.53(12) . .
O3 Zr1 O1 78.64(13) . .
O9 Zr1 O5 81.84(12) . .
O10 Zr1 O5 144.57(12) . .
O2A Zr1 O5 73.31(12) . .
O3 Zr1 O5 73.24(12) . .
O1 Zr1 O5 124.10(12) . .
O9 Zr1 O7 69.96(12) . .
O10 Zr1 O7 68.36(11) . .
O2A Zr1 O7 80.72(12) . .
O3 Zr1 O7 142.89(12) . .
O1 Zr1 O7 137.32(12) . .
O5 Zr1 O7 76.51(11) . .
O9 Zr1 O11 69.91(11) . .
O10 Zr1 O11 70.10(11) . .
O2A Zr1 O11 143.99(11) . .
O3 Zr1 O11 71.57(11) . .
O1 Zr1 O11 72.68(12) . .
O5 Zr1 O11 136.23(12) . .
O7 Zr1 O11 120.71(11) . .
O9 Zr1 Zr3 31.24(9) . .
O10 Zr1 Zr3 82.96(9) . .
O2A Zr1 Zr3 176.10(8) . .
O3 Zr1 Zr3 72.82(9) . .
O1 Zr1 Zr3 110.98(9) . .
O5 Zr1 Zr3 105.36(9) . .
O7 Zr1 Zr3 95.41(8) . .
O11 Zr1 Zr3 39.02(8) . .
O9 Zr1 Zr2 81.34(9) . .
O10 Zr1 Zr2 32.12(8) . .
O2A Zr1 Zr2 120.05(9) . .
O3 Zr1 Zr2 108.77(9) . .
O1 Zr1 Zr2 72.45(9) . .
O5 Zr1 Zr2 162.78(9) . .
O7 Zr1 Zr2 94.23(8) . .
O11 Zr1 Zr2 38.12(8) . .
Zr3 Zr1 Zr2 60.530(14) . .
O9 Zr1 Zr6 30.81(9) . .
O10 Zr1 Zr6 82.29(9) . .
O2A Zr1 Zr6 116.41(8) . .
O3 Zr1 Zr6 109.81(9) . .
O1 Zr1 Zr6 162.58(9) . .
O5 Zr1 Zr6 73.32(8) . .
O7 Zr1 Zr6 39.53(8) . .
O11 Zr1 Zr6 95.11(8) . .
Zr3 Zr1 Zr6 59.748(15) . .
Zr2 Zr1 Zr6 90.250(17) . .
O9 Zr1 Zr5 80.39(9) . .
O10 Zr1 Zr5 29.86(8) . .
O2A Zr1 Zr5 88.29(9) . .
O3 Zr1 Zr5 161.70(9) . .
O1 Zr1 Zr5 106.94(9) . .
O5 Zr1 Zr5 114.82(8) . .
O7 Zr1 Zr5 38.52(8) . .
O11 Zr1 Zr5 93.13(8) . .
Zr3 Zr1 Zr5 88.996(15) . .
Zr2 Zr1 Zr5 58.464(15) . .
Zr6 Zr1 Zr5 60.393(13) . .
O10 Zr2 O17 95.34(12) . .
O10 Zr2 O11 74.36(12) . .
O17 Zr2 O11 69.77(12) . .
O10 Zr2 O19 73.76(12) . .
O17 Zr2 O19 69.65(12) . .
O11 Zr2 O19 124.71(12) . .
O10 Zr2 O2 82.40(12) . .
O17 Zr2 O2 145.05(12) . .
O11 Zr2 O2 76.12(12) . .
O19 Zr2 O2 140.47(12) . .
O10 Zr2 O15 85.30(12) . .
O17 Zr2 O15 141.21(12) . .
O11 Zr2 O15 145.38(12) . .
O19 Zr2 O15 73.42(12) . .
O2 Zr2 O15 73.60(12) . .
O10 Zr2 O29 150.15(12) . 2_656
O17 Zr2 O29 89.35(12) . 2_656
O11 Zr2 O29 79.76(12) . 2_656
O19 Zr2 O29 134.76(12) . 2_656
O2 Zr2 O29 77.13(12) . 2_656
O15 Zr2 O29 109.01(12) . 2_656
O10 Zr2 O28 152.39(12) . 2_656
O17 Zr2 O28 84.94(12) . 2_656
O11 Zr2 O28 130.41(12) . 2_656
O19 Zr2 O28 80.56(12) . 2_656
O2 Zr2 O28 112.71(12) . 2_656
O15 Zr2 O28 77.69(12) . 2_656
O29 Zr2 O28 57.33(12) 2_656 2_656
O10 Zr2 C35 178.68(14) . 2_656
O17 Zr2 C35 84.04(14) . 2_656
O11 Zr2 C35 104.33(14) . 2_656
O19 Zr2 C35 107.06(14) . 2_656
O2 Zr2 C35 97.44(14) . 2_656
O15 Zr2 C35 95.91(14) . 2_656
O29 Zr2 C35 28.79(14) 2_656 2_656
O28 Zr2 C35 28.77(13) 2_656 2_656
O10 Zr2 Zr5 32.98(9) . .
O17 Zr2 Zr5 85.42(8) . .
O11 Zr2 Zr5 100.21(8) . .
O19 Zr2 Zr5 41.04(8) . .
O2 Zr2 Zr5 108.34(9) . .
O15 Zr2 Zr5 74.22(8) . .
O29 Zr2 Zr5 174.41(9) 2_656 .
O28 Zr2 Zr5 120.07(8) 2_656 .
C35 Zr2 Zr5 147.93(11) 2_656 .
O10 Zr2 Zr1 32.39(9) . .
O17 Zr2 Zr1 85.13(9) . .
O11 Zr2 Zr1 42.13(8) . .
O19 Zr2 Zr1 98.79(8) . .
O2 Zr2 Zr1 74.38(9) . .
O15 Zr2 Zr1 112.18(9) . .
O29 Zr2 Zr1 119.51(9) 2_656 .
O28 Zr2 Zr1 169.61(9) 2_656 .
C35 Zr2 Zr1 146.31(11) 2_656 .
Zr5 Zr2 Zr1 62.042(15) . .
O10 Zr2 Zr3 82.36(9) . .
O17 Zr2 Zr3 32.53(8) . .
O11 Zr2 Zr3 37.38(8) . .
O19 Zr2 Zr3 94.40(9) . .
O2 Zr2 Zr3 113.42(9) . .
O15 Zr2 Zr3 164.71(8) . .
O29 Zr2 Zr3 86.09(9) 2_656 .
O28 Zr2 Zr3 109.98(9) 2_656 .
C35 Zr2 Zr3 96.52(11) 2_656 .
Zr5 Zr2 Zr3 90.543(15) . .
Zr1 Zr2 Zr3 59.655(14) . .
O9 Zr3 O17 94.18(12) . .
O9 Zr3 O4 85.49(13) . .
O17 Zr3 O4 142.29(13) . .
O9 Zr3 O13 82.85(13) . .
O17 Zr3 O13 144.20(13) . .
O4 Zr3 O13 73.28(13) . .
O9 Zr3 O18 73.54(12) . .
O17 Zr3 O18 70.46(12) . .
O4 Zr3 O18 143.37(12) . .
O13 Zr3 O18 74.54(12) . .
O9 Zr3 O11 73.45(12) . .
O17 Zr3 O11 70.00(12) . .
O4 Zr3 O11 73.85(12) . .
O13 Zr3 O11 140.58(12) . .
O18 Zr3 O11 125.41(12) . .
O9 Zr3 O20 151.30(13) . .
O17 Zr3 O20 90.29(13) . .
O4 Zr3 O20 107.75(14) . .
O13 Zr3 O20 77.14(13) . .
O18 Zr3 O20 81.38(13) . .
O11 Zr3 O20 134.14(12) . .
O9 Zr3 O21 151.72(13) . .
O17 Zr3 O21 86.26(13) . .
O4 Zr3 O21 77.31(13) . .
O13 Zr3 O21 112.70(13) . .
O18 Zr3 O21 132.15(13) . .
O11 Zr3 O21 80.23(12) . .
O20 Zr3 O21 56.81(14) . .
O9 Zr3 C12 179.60(17) . .
O17 Zr3 C12 86.22(15) . .
O4 Zr3 C12 94.24(15) . .
O13 Zr3 C12 96.79(16) . .
O18 Zr3 C12 106.54(16) . .
O11 Zr3 C12 106.77(16) . .
O20 Zr3 C12 28.57(16) . .
O21 Zr3 C12 28.36(15) . .
O9 Zr3 Zr6 31.26(9) . .
O17 Zr3 Zr6 85.96(9) . .
O4 Zr3 Zr6 110.14(9) . .
O13 Zr3 Zr6 73.09(9) . .
O18 Zr3 Zr6 42.59(8) . .
O11 Zr3 Zr6 98.79(8) . .
O20 Zr3 Zr6 121.38(10) . .
O21 Zr3 Zr6 172.01(10) . .
C12 Zr3 Zr6 148.77(13) . .
O9 Zr3 Zr1 31.43(9) . .
O17 Zr3 Zr1 85.99(9) . .
O4 Zr3 Zr1 74.27(9) . .
O13 Zr3 Zr1 107.07(9) . .
O18 Zr3 Zr1 99.22(9) . .
O11 Zr3 Zr1 42.39(8) . .
O20 Zr3 Zr1 175.77(10) . .
O21 Zr3 Zr1 120.82(10) . .
C12 Zr3 Zr1 148.74(14) . .
Zr6 Zr3 Zr1 60.397(13) . .
O9 Zr3 Zr4 81.04(9) . .
O17 Zr3 Zr4 33.20(9) . .
O4 Zr3 Zr4 164.73(9) . .
O13 Zr3 Zr4 111.86(9) . .
O18 Zr3 Zr4 37.40(8) . .
O11 Zr3 Zr4 95.28(8) . .
O20 Zr3 Zr4 87.51(10) . .
O21 Zr3 Zr4 111.98(10) . .
C12 Zr3 Zr4 99.26(13) . .
Zr6 Zr3 Zr4 60.109(13) . .
Zr1 Zr3 Zr4 90.460(16) . .
O16 Zr4 O17 96.46(12) . .
O16 Zr4 O26 81.92(13) . 2_666
O17 Zr4 O26 145.25(13) . 2_666
O16 Zr4 O18 74.52(12) . .
O17 Zr4 O18 70.40(12) . .
O26 Zr4 O18 75.81(12) 2_666 .
O16 Zr4 O19 74.16(12) . .
O17 Zr4 O19 69.99(12) . .
O26 Zr4 O19 140.27(12) 2_666 .
O18 Zr4 O19 125.33(12) . .
O16 Zr4 O22 84.39(12) . .
O17 Zr4 O22 141.99(13) . .
O26 Zr4 O22 72.65(13) 2_666 .
O18 Zr4 O22 144.09(12) . .
O19 Zr4 O22 73.81(12) . .
O16 Zr4 O25 151.22(13) . .
O17 Zr4 O25 89.80(13) . .
O26 Zr4 O25 77.15(13) 2_666 .
O18 Zr4 O25 81.30(13) . .
O19 Zr4 O25 133.88(12) . .
O22 Zr4 O25 107.54(13) . .
O16 Zr4 O24 151.50(13) . .
O17 Zr4 O24 85.54(12) . .
O26 Zr4 O24 112.15(13) 2_666 .
O18 Zr4 O24 131.83(12) . .
O19 Zr4 O24 79.96(12) . .
O22 Zr4 O24 77.05(12) . .
O25 Zr4 O24 56.81(13) . .
O16 Zr4 C14 177.64(14) . .
O17 Zr4 C14 85.90(14) . .
O26 Zr4 C14 96.20(14) 2_666 .
O18 Zr4 C14 106.45(15) . .
O19 Zr4 C14 106.66(15) . .
O22 Zr4 C14 93.70(14) . .
O25 Zr4 C14 28.49(15) . .
O24 Zr4 C14 28.39(14) . .
O16 Zr4 Zr5 33.25(9) . .
O17 Zr4 Zr5 85.87(9) . .
O26 Zr4 Zr5 108.34(9) 2_666 .
O18 Zr4 Zr5 100.40(9) . .
O19 Zr4 Zr5 41.10(8) . .
O22 Zr4 Zr5 74.18(9) . .
O25 Zr4 Zr5 174.48(9) . .
O24 Zr4 Zr5 119.31(9) . .
C14 Zr4 Zr5 147.30(12) . .
O16 Zr4 Zr3 83.20(9) . .
O17 Zr4 Zr3 32.83(9) . .
O26 Zr4 Zr3 113.41(9) 2_666 .
O18 Zr4 Zr3 37.71(8) . .
O19 Zr4 Zr3 94.96(8) . .
O22 Zr4 Zr3 165.17(9) . .
O25 Zr4 Zr3 87.20(10) . .
O24 Zr4 Zr3 111.08(9) . .
C14 Zr4 Zr3 98.89(11) . .
Zr5 Zr4 Zr3 90.997(16) . .
O16 Zr4 Zr6 32.27(9) . .
O17 Zr4 Zr6 85.40(9) . .
O26 Zr4 Zr6 74.82(9) 2_666 .
O18 Zr4 Zr6 42.32(8) . .
O19 Zr4 Zr6 98.59(8) . .
O22 Zr4 Zr6 111.44(9) . .
O25 Zr4 Zr6 121.35(10) . .
O24 Zr4 Zr6 170.76(9) . .
C14 Zr4 Zr6 148.53(12) . .
Zr5 Zr4 Zr6 61.744(14) . .
Zr3 Zr4 Zr6 59.823(15) . .
O10 Zr5 O16 92.65(12) . .
O10 Zr5 O14 85.11(12) . .
O16 Zr5 O14 143.02(12) . .
O10 Zr5 O23 143.36(12) . .
O16 Zr5 O23 84.47(12) . .
O14 Zr5 O23 76.09(13) . .
O10 Zr5 O1D 87.45(12) . 2_665
O16 Zr5 O1D 143.16(12) . 2_665
O14 Zr5 O1D 73.73(12) . 2_665
O23 Zr5 O1D 116.04(12) . 2_665
O10 Zr5 O1A 143.03(12) . 2_665
O16 Zr5 O1A 87.51(12) . 2_665
O14 Zr5 O1A 115.71(12) . 2_665
O23 Zr5 O1A 73.48(12) . 2_665
O1D Zr5 O1A 71.34(12) 2_665 2_665
O10 Zr5 O7 68.89(11) . .
O16 Zr5 O7 68.87(12) . .
O14 Zr5 O7 141.38(12) . .
O23 Zr5 O7 140.64(12) . .
O1D Zr5 O7 76.96(12) 2_665 .
O1A Zr5 O7 76.84(11) 2_665 .
O10 Zr5 O19 71.50(12) . .
O16 Zr5 O19 71.82(12) . .
O14 Zr5 O19 72.51(12) . .
O23 Zr5 O19 72.95(11) . .
O1D Zr5 O19 141.35(11) 2_665 .
O1A Zr5 O19 141.88(12) 2_665 .
O7 Zr5 O19 121.43(11) . .
O10 Zr5 Zr4 83.94(9) . .
O16 Zr5 Zr4 32.95(9) . .
O14 Zr5 Zr4 110.42(9) . .
O23 Zr5 Zr4 73.93(9) . .
O1D Zr5 Zr4 170.02(8) 2_665 .
O1A Zr5 Zr4 113.22(9) 2_665 .
O7 Zr5 Zr4 95.18(8) . .
O19 Zr5 Zr4 39.05(8) . .
O10 Zr5 Zr2 32.93(9) . .
O16 Zr5 Zr2 84.53(8) . .
O14 Zr5 Zr2 73.71(8) . .
O23 Zr5 Zr2 110.66(9) . .
O1D Zr5 Zr2 112.70(8) 2_665 .
O1A Zr5 Zr2 170.58(9) 2_665 .
O7 Zr5 Zr2 95.53(8) . .
O19 Zr5 Zr2 38.81(8) . .
Zr4 Zr5 Zr2 61.427(13) . .
O10 Zr5 Zr6 80.93(9) . .
O16 Zr5 Zr6 30.59(9) . .
O14 Zr5 Zr6 163.59(9) . .
O23 Zr5 Zr6 110.70(9) . .
O1D Zr5 Zr6 113.97(8) 2_665 .
O1A Zr5 Zr6 80.70(8) 2_665 .
O7 Zr5 Zr6 38.28(8) . .
O19 Zr5 Zr6 94.77(8) . .
Zr4 Zr5 Zr6 59.669(15) . .
Zr2 Zr5 Zr6 89.885(15) . .
O10 Zr5 Zr1 30.06(8) . .
O16 Zr5 Zr1 81.42(9) . .
O14 Zr5 Zr1 110.79(9) . .
O23 Zr5 Zr1 163.46(9) . .
O1D Zr5 Zr1 80.50(8) 2_665 .
O1A Zr5 Zr1 114.30(8) 2_665 .
O7 Zr5 Zr1 38.85(8) . .
O19 Zr5 Zr1 94.36(8) . .
Zr4 Zr5 Zr1 89.526(15) . .
Zr2 Zr5 Zr1 59.494(13) . .
Zr6 Zr5 Zr1 58.765(13) . .
O9 Zr6 O16 91.05(12) . .
O9 Zr6 O2D 146.37(12) . .
O16 Zr6 O2D 96.63(12) . .
O9 Zr6 O12 85.26(13) . .
O16 Zr6 O12 141.93(13) . .
O2D Zr6 O12 107.21(12) . .
O9 Zr6 O6 82.12(12) . .
O16 Zr6 O6 145.06(12) . .
O2D Zr6 O6 72.91(12) . .
O12 Zr6 O6 71.89(13) . .
O9 Zr6 O27 141.36(13) . 2_666
O16 Zr6 O27 81.30(12) . 2_666
O2D Zr6 O27 72.27(12) . 2_666
O12 Zr6 O27 78.40(13) . 2_666
O6 Zr6 O27 124.05(12) . 2_666
O9 Zr6 O7 70.82(12) . .
O16 Zr6 O7 69.21(12) . .
O2D Zr6 O7 81.43(11) . .
O12 Zr6 O7 142.32(12) . .
O6 Zr6 O7 76.21(12) . .
O27 Zr6 O7 137.63(12) 2_666 .
O9 Zr6 O18 69.78(12) . .
O16 Zr6 O18 70.20(12) . .
O2D Zr6 O18 143.37(12) . .
O12 Zr6 O18 73.02(12) . .
O6 Zr6 O18 136.30(11) . .
O27 Zr6 O18 72.01(12) 2_666 .
O7 Zr6 O18 121.57(11) . .
O9 Zr6 Zr3 31.22(9) . .
O16 Zr6 Zr3 83.19(9) . .
O2D Zr6 Zr3 177.47(9) . .
O12 Zr6 Zr3 74.22(9) . .
O6 Zr6 Zr3 105.82(8) . .
O27 Zr6 Zr3 110.17(9) 2_666 .
O7 Zr6 Zr3 96.17(8) . .
O18 Zr6 Zr3 38.86(8) . .
O9 Zr6 Zr4 80.97(9) . .
O16 Zr6 Zr4 31.96(9) . .
O2D Zr6 Zr4 120.75(9) . .
O12 Zr6 Zr4 110.45(9) . .
O6 Zr6 Zr4 162.64(8) . .
O27 Zr6 Zr4 72.60(9) 2_666 .
O7 Zr6 Zr4 94.47(8) . .
O18 Zr6 Zr4 38.30(8) . .
Zr3 Zr6 Zr4 60.068(15) . .
O9 Zr6 Zr1 30.96(9) . .
O16 Zr6 Zr1 83.33(9) . .
O2D Zr6 Zr1 117.62(9) . .
O12 Zr6 Zr1 109.72(9) . .
O6 Zr6 Zr1 73.26(8) . .
O27 Zr6 Zr1 162.69(9) 2_666 .
O7 Zr6 Zr1 40.25(8) . .
O18 Zr6 Zr1 95.28(8) . .
Zr3 Zr6 Zr1 59.855(14) . .
Zr4 Zr6 Zr1 90.123(16) . .
O9 Zr6 Zr5 80.90(9) . .
O16 Zr6 Zr5 30.57(9) . .
O2D Zr6 Zr5 89.28(9) . .
O12 Zr6 Zr5 163.51(9) . .
O6 Zr6 Zr5 114.65(9) . .
O27 Zr6 Zr5 107.24(9) 2_666 .
O7 Zr6 Zr5 38.64(8) . .
O18 Zr6 Zr5 93.68(8) . .
Zr3 Zr6 Zr5 89.310(15) . .
Zr4 Zr6 Zr5 58.587(14) . .
Zr1 Zr6 Zr5 60.842(15) . .
C19 P1 C22 101.5(2) . .
C19 P1 C29 100.1(2) . .
C22 P1 C29 101.6(2) . .
C2 O1 Zr1 135.7(3) . .
C2 O2 Zr2 132.1(3) . .
C4 O3 Zr1 135.3(3) . .
C4 O4 Zr3 132.6(3) . .
C6 O5 Zr1 134.5(3) . .
C6 O6 Zr6 133.7(3) . .
Zr6 O7 Zr5 103.08(13) . .
Zr6 O7 Zr1 100.23(12) . .
Zr5 O7 Zr1 102.63(12) . .
Zr6 O7 H7O 116.2 . .
Zr5 O7 H7O 116.2 . .
Zr1 O7 H7O 116.2 . .
Zr3 O9 Zr6 117.52(15) . .
Zr3 O9 Zr1 117.33(15) . .
Zr6 O9 Zr1 118.23(15) . .
Zr2 O10 Zr5 114.08(14) . .
Zr2 O10 Zr1 115.49(14) . .
Zr5 O10 Zr1 120.08(14) . .
Zr2 O11 Zr3 105.88(13) . .
Zr2 O11 Zr1 99.74(12) . .
Zr3 O11 Zr1 98.59(11) . .
Zr2 O11 H11O 116.6 . .
Zr3 O11 H11O 116.6 . .
Zr1 O11 H11O 116.6 . .
C15 O12 Zr6 132.7(3) . .
C15 O13 Zr3 133.9(3) . .
C8 O14 Zr5 134.8(3) . .
C8 O15 Zr2 132.4(3) . .
Zr4 O16 Zr5 113.79(15) . .
Zr4 O16 Zr6 115.76(15) . .
Zr5 O16 Zr6 118.83(15) . .
Zr3 O17 Zr4 113.98(15) . .
Zr3 O17 Zr2 114.07(14) . .
Zr4 O17 Zr2 113.77(14) . .
Zr4 O18 Zr3 104.89(13) . .
Zr4 O18 Zr6 99.38(12) . .
Zr3 O18 Zr6 98.55(12) . .
Zr4 O18 H18O 117.0 . .
Zr3 O18 H18O 117.0 . .
Zr6 O18 H18O 117.0 . .
Zr2 O19 Zr4 106.34(13) . .
Zr2 O19 Zr5 100.15(12) . .
Zr4 O19 Zr5 99.86(12) . .
Zr2 O19 H19O 116.0 . .
Zr4 O19 H19O 116.0 . .
Zr5 O19 H19O 116.0 . .
C12 O20 Zr3 92.5(3) . .
C12 O21 Zr3 92.0(3) . .
C10 O22 Zr4 132.6(3) . .
C10 O23 Zr5 134.4(3) . .
C14 O24 Zr4 92.6(3) . .
C14 O25 Zr4 93.1(3) . .
C28 O26 Zr4 132.3(3) . 2_666
C28 O27 Zr6 132.7(3) . 2_666
C35 O28 Zr2 90.9(3) . 2_656
C35 O29 Zr2 92.5(3) . 2_656
C2 C1 H1A 109.5 . .
C2 C1 H1B 109.5 . .
H1A C1 H1B 109.5 . .
C2 C1 H1C 109.5 . .
H1A C1 H1C 109.5 . .
H1B C1 H1C 109.5 . .
O1 C2 O2 125.1(4) . .
O1 C2 C1 118.3(5) . .
O2 C2 C1 116.6(4) . .
C4 C3 H3A 109.5 . .
C4 C3 H3AB 109.5 . .
H3A C3 H3AB 109.5 . .
C4 C3 H3AC 109.5 . .
H3A C3 H3AC 109.5 . .
H3AB C3 H3AC 109.5 . .
O3 C4 O4 125.0(4) . .
O3 C4 C3 117.2(5) . .
O4 C4 C3 117.8(5) . .
C6 C5 H5A 109.5 . .
C6 C5 H5AB 109.5 . .
H5A C5 H5AB 109.5 . .
C6 C5 H5AC 109.5 . .
H5A C5 H5AC 109.5 . .
H5AB C5 H5AC 109.5 . .
O6 C6 O5 125.0(4) . .
O6 C6 C5 118.5(4) . .
O5 C6 C5 116.5(4) . .
C8 C7 H7A 109.5 . .
C8 C7 H7AB 109.5 . .
H7A C7 H7AB 109.5 . .
C8 C7 H7AC 109.5 . .
H7A C7 H7AC 109.5 . .
H7AB C7 H7AC 109.5 . .
O15 C8 O14 124.3(4) . .
O15 C8 C7 119.1(4) . .
O14 C8 C7 116.6(4) . .
C10 C9 H9A 109.5 . .
C10 C9 H9AB 109.5 . .
H9A C9 H9AB 109.5 . .
C10 C9 H9AC 109.5 . .
H9A C9 H9AC 109.5 . .
H9AB C9 H9AC 109.5 . .
O22 C10 O23 124.7(4) . .
O22 C10 C9 118.8(5) . .
O23 C10 C9 116.4(5) . .
C12 C11 H11A 109.5 . .
C12 C11 H11B 109.5 . .
H11A C11 H11B 109.5 . .
C12 C11 H11C 109.5 . .
H11A C11 H11C 109.5 . .
H11B C11 H11C 109.5 . .
O21 C12 O20 118.3(5) . .
O21 C12 C11 121.1(6) . .
O20 C12 C11 120.6(6) . .
O21 C12 Zr3 59.6(3) . .
O20 C12 Zr3 59.0(3) . .
C11 C12 Zr3 174.5(5) . .
C14 C13 H13A 109.5 . .
C14 C13 H13B 109.5 . .
H13A C13 H13B 109.5 . .
C14 C13 H13C 109.5 . .
H13A C13 H13C 109.5 . .
H13B C13 H13C 109.5 . .
O24 C14 O25 117.3(5) . .
O24 C14 C13 122.1(5) . .
O25 C14 C13 120.6(5) . .
O24 C14 Zr4 59.0(3) . .
O25 C14 Zr4 58.4(3) . .
C13 C14 Zr4 175.3(4) . .
O13 C15 O12 125.7(5) . .
O13 C15 C16 117.0(5) . .
O12 C15 C16 117.3(4) . .
C17 C16 C21 119.0(5) . .
C17 C16 C15 121.6(5) . .
C21 C16 C15 119.4(5) . .
C16 C17 C18 120.8(5) . .
C16 C17 H17 119.6 . .
C18 C17 H17 119.6 . .
C17 C18 C19 119.5(5) . .
C17 C18 H18 120.2 . .
C19 C18 H18 120.2 . .
C20 C19 C18 119.0(5) . .
C20 C19 P1 122.9(4) . .
C18 C19 P1 118.1(4) . .
C19 C20 C21 120.6(5) . .
C19 C20 H20 119.7 . .
C21 C20 H20 119.7 . .
C20 C21 C16 120.7(5) . .
C20 C21 H21 119.7 . .
C16 C21 H21 119.7 . .
C27 C22 C23 119.4(5) . .
C27 C22 P1 123.7(4) . .
C23 C22 P1 116.9(4) . .
C24 C23 C22 120.8(5) . .
C24 C23 H23 119.6 . .
C22 C23 H23 119.6 . .
C23 C24 C25 119.2(5) . .
C23 C24 H24 120.4 . .
C25 C24 H24 120.4 . .
C26 C25 C24 120.0(5) . .
C26 C25 C28 120.9(5) . .
C24 C25 C28 119.1(5) . .
C25 C26 C27 120.2(5) . .
C25 C26 H26 119.9 . .
C27 C26 H26 119.9 . .
C22 C27 C26 120.1(5) . .
C22 C27 H27 120.0 . .
C26 C27 H27 120.0 . .
O26 C28 O27 126.4(5) . .
O26 C28 C25 116.2(5) . .
O27 C28 C25 117.3(5) . .
C30 C29 C34 119.0(5) . .
C30 C29 P1 123.7(4) . .
C34 C29 P1 117.2(4) . .
C29 C30 C31 120.8(5) . .
C29 C30 H30 119.6 . .
C31 C30 H30 119.6 . .
C30 C31 C32 119.9(5) . .
C30 C31 H31 120.0 . .
C32 C31 H31 120.0 . .
C33 C32 C31 120.2(5) . .
C33 C32 C35 121.0(4) . .
C31 C32 C35 118.8(5) . .
C32 C33 C34 120.2(5) . .
C32 C33 H33 119.9 . .
C34 C33 H33 119.9 . .
C33 C34 C29 119.8(5) . .
C33 C34 H34 120.1 . .
C29 C34 H34 120.1 . .
O28 C35 O29 118.4(5) . .
O28 C35 C32 121.2(5) . .
O29 C35 C32 120.4(4) . .
O28 C35 Zr2 60.3(3) . 2_656
O29 C35 Zr2 58.8(3) . 2_656
C32 C35 Zr2 169.1(3) . 2_656
C2A C1A H1AA 109.5 . .
C2A C1A H1AB 109.5 . .
H1AA C1A H1AB 109.5 . .
C2A C1A H1AC 109.5 . .
H1AA C1A H1AC 109.5 . .
H1AB C1A H1AC 109.5 . .
O1A C2A O2A 122.3(5) . .
O1A C2A C1A 122.1(5) . .
O2A C2A C1A 115.6(4) . .
C2A O1A Zr5 145.6(3) . 2_665
C2A O2A Zr1 138.0(3) . .
C2B C1B H1BA 109.5 . .
C2B C1B H1BB 109.5 . .
H1BA C1B H1BB 109.5 . .
C2B C1B H1BC 109.5 . .
H1BA C1B H1BC 109.5 . .
H1BB C1B H1BC 109.5 . .
O2B C2B O1B 123.6(5) . .
O2B C2B C1B 125.5(6) . .
O1B C2B C1B 110.9(5) . .
C2B O1B H1BO 109.5 . .
C2C C1C H1CA 109.5 . .
C2C C1C H1CB 109.5 . .
H1CA C1C H1CB 109.5 . .
C2C C1C H1CC 109.5 . .
H1CA C1C H1CC 109.5 . .
H1CB C1C H1CC 109.5 . .
O2C C2C O1C 124.7(5) . .
O2C C2C C1C 123.3(6) . .
O1C C2C C1C 112.0(5) . .
C2C O1C H1CO 109.5 . .
C2D C1D H1DA 109.5 . .
C2D C1D H1DB 109.5 . .
H1DA C1D H1DB 109.5 . .
C2D C1D H1DC 109.5 . .
H1DA C1D H1DC 109.5 . .
H1DB C1D H1DC 109.5 . .
O1D C2D O2D 122.8(4) . .
O1D C2D C1D 121.5(4) . .
O2D C2D C1D 115.7(4) . .
C2D O1D Zr5 146.0(3) . 2_665
C2D O2D Zr6 137.8(3) . .
loop_
_geom_bond_atom_site_label_1
_geom_bond_atom_site_label_2
_geom_bond_distance
_geom_bond_site_symmetry_2
Zr1 O9 2.050(3) .
Zr1 O10 2.076(3) .
Zr1 O2A 2.186(3) .
Zr1 O3 2.195(3) .
Zr1 O1 2.201(3) .
Zr1 O5 2.218(3) .
Zr1 O7 2.306(3) .
Zr1 O11 2.381(3) .
Zr1 Zr3 3.4928(7) .
Zr1 Zr2 3.4985(7) .
Zr1 Zr6 3.5118(7) .
Zr1 Zr5 3.5867(7) .
Zr2 O10 2.061(3) .
Zr2 O17 2.124(3) .
Zr2 O11 2.191(3) .
Zr2 O19 2.204(3) .
Zr2 O2 2.212(3) .
Zr2 O15 2.231(3) .
Zr2 O29 2.248(3) 2_656
Zr2 O28 2.283(3) 2_656
Zr2 C35 2.626(5) 2_656
Zr2 Zr5 3.4609(8) .
Zr2 Zr3 3.5236(7) .
Zr3 O9 2.039(3) .
Zr3 O17 2.075(3) .
Zr3 O4 2.202(3) .
Zr3 O13 2.211(3) .
Zr3 O18 2.214(3) .
Zr3 O11 2.224(3) .
Zr3 O20 2.277(4) .
Zr3 O21 2.292(3) .
Zr3 C12 2.654(6) .
Zr3 Zr6 3.4890(8) .
Zr3 Zr4 3.4976(7) .
Zr4 O16 2.057(3) .
Zr4 O17 2.096(3) .
Zr4 O26 2.197(3) 2_666
Zr4 O18 2.198(3) .
Zr4 O19 2.212(3) .
Zr4 O22 2.233(3) .
Zr4 O25 2.277(4) .
Zr4 O24 2.290(3) .
Zr4 C14 2.668(5) .
Zr4 Zr5 3.4598(7) .
Zr4 Zr6 3.4991(7) .
Zr5 O10 2.064(3) .
Zr5 O16 2.073(3) .
Zr5 O14 2.198(3) .
Zr5 O23 2.200(3) .
Zr5 O1D 2.213(3) 2_665
Zr5 O1A 2.220(3) 2_665
Zr5 O7 2.289(3) .
Zr5 O19 2.308(3) .
Zr5 Zr6 3.5709(7) .
Zr6 O9 2.042(3) .
Zr6 O16 2.075(3) .
Zr6 O2D 2.190(3) .
Zr6 O12 2.192(3) .
Zr6 O6 2.241(3) .
Zr6 O27 2.242(3) 2_666
Zr6 O7 2.271(3) .
Zr6 O18 2.388(3) .
P1 C19 1.833(5) .
P1 C22 1.841(5) .
P1 C29 1.842(5) .
O1 C2 1.260(6) .
O2 C2 1.265(6) .
O3 C4 1.266(6) .
O4 C4 1.269(6) .
O5 C6 1.259(6) .
O6 C6 1.254(6) .
O7 H7O 1.0000 .
O11 H11O 1.0000 .
O12 C15 1.268(6) .
O13 C15 1.263(6) .
O14 C8 1.267(6) .
O15 C8 1.264(6) .
O18 H18O 1.0000 .
O19 H19O 1.0000 .
O20 C12 1.270(7) .
O21 C12 1.261(7) .
O22 C10 1.260(6) .
O23 C10 1.271(6) .
O24 C14 1.270(6) .
O25 C14 1.275(6) .
O26 C28 1.256(6) .
O27 C28 1.272(6) .
O28 C35 1.264(6) .
O29 C35 1.266(6) .
C1 C2 1.497(7) .
C1 H1A 0.9800 .
C1 H1B 0.9800 .
C1 H1C 0.9800 .
C3 C4 1.505(7) .
C3 H3A 0.9800 .
C3 H3AB 0.9800 .
C3 H3AC 0.9800 .
C5 C6 1.508(7) .
C5 H5A 0.9800 .
C5 H5AB 0.9800 .
C5 H5AC 0.9800 .
C7 C8 1.488(7) .
C7 H7A 0.9800 .
C7 H7AB 0.9800 .
C7 H7AC 0.9800 .
C9 C10 1.501(7) .
C9 H9A 0.9800 .
C9 H9AB 0.9800 .
C9 H9AC 0.9800 .
C11 C12 1.491(8) .
C11 H11A 0.9800 .
C11 H11B 0.9800 .
C11 H11C 0.9800 .
C13 C14 1.505(8) .
C13 H13A 0.9800 .
C13 H13B 0.9800 .
C13 H13C 0.9800 .
C15 C16 1.491(7) .
C16 C17 1.373(7) .
C16 C21 1.383(7) .
C17 C18 1.389(8) .
C17 H17 0.9500 .
C18 C19 1.401(7) .
C18 H18 0.9500 .
C19 C20 1.376(7) .
C20 C21 1.377(8) .
C20 H20 0.9500 .
C21 H21 0.9500 .
C22 C27 1.368(7) .
C22 C23 1.392(8) .
C23 C24 1.374(8) .
C23 H23 0.9500 .
C24 C25 1.405(8) .
C24 H24 0.9500 .
C25 C26 1.362(8) .
C25 C28 1.504(7) .
C26 C27 1.402(8) .
C26 H26 0.9500 .
C27 H27 0.9500 .
C29 C30 1.371(8) .
C29 C34 1.409(7) .
C30 C31 1.381(8) .
C30 H30 0.9500 .
C31 C32 1.387(7) .
C31 H31 0.9500 .
C32 C33 1.367(7) .
C32 C35 1.497(7) .
C33 C34 1.386(7) .
C33 H33 0.9500 .
C34 H34 0.9500 .
C1A C2A 1.480(7) .
C1A H1AA 0.9800 .
C1A H1AB 0.9800 .
C1A H1AC 0.9800 .
C2A O1A 1.260(6) .
C2A O2A 1.264(6) .
C1B C2B 1.501(8) .
C1B H1BA 0.9800 .
C1B H1BB 0.9800 .
C1B H1BC 0.9800 .
C2B O2B 1.195(6) .
C2B O1B 1.338(7) .
O1B H1BO 0.8400 .
C1C C2C 1.526(8) .
C1C H1CA 0.9800 .
C1C H1CB 0.9800 .
C1C H1CC 0.9800 .
C2C O2C 1.203(7) .
C2C O1C 1.298(7) .
O1C H1CO 0.8400 .
C1D C2D 1.513(7) .
C1D H1DA 0.9800 .
C1D H1DB 0.9800 .
C1D H1DC 0.9800 .
C2D O1D 1.251(6) .
C2D O2D 1.265(6) .
loop_
_geom_torsion_atom_site_label_1
_geom_torsion_atom_site_label_2
_geom_torsion_atom_site_label_3
_geom_torsion_atom_site_label_4
_geom_torsion
_geom_torsion_site_symmetry_1
_geom_torsion_site_symmetry_4
Zr1 O1 C2 O2 7.1(8) . .
Zr1 O1 C2 C1 -169.6(4) . .
Zr2 O2 C2 O1 -2.0(7) . .
Zr2 O2 C2 C1 174.7(3) . .
Zr1 O3 C4 O4 0.9(8) . .
Zr1 O3 C4 C3 -177.2(4) . .
Zr3 O4 C4 O3 -3.7(8) . .
Zr3 O4 C4 C3 174.4(4) . .
Zr6 O6 C6 O5 5.7(7) . .
Zr6 O6 C6 C5 -173.5(3) . .
Zr1 O5 C6 O6 -7.0(8) . .
Zr1 O5 C6 C5 172.2(3) . .
Zr2 O15 C8 O14 -9.8(7) . .
Zr2 O15 C8 C7 170.1(3) . .
Zr5 O14 C8 O15 9.0(8) . .
Zr5 O14 C8 C7 -170.9(3) . .
Zr4 O22 C10 O23 6.2(7) . .
Zr4 O22 C10 C9 -173.6(4) . .
Zr5 O23 C10 O22 -4.7(8) . .
Zr5 O23 C10 C9 175.1(3) . .
Zr3 O21 C12 O20 6.5(5) . .
Zr3 O21 C12 C11 -173.7(6) . .
Zr3 O20 C12 O21 -6.6(5) . .
Zr3 O20 C12 C11 173.6(6) . .
Zr4 O24 C14 O25 -5.1(5) . .
Zr4 O24 C14 C13 174.6(5) . .
Zr4 O25 C14 O24 5.2(5) . .
Zr4 O25 C14 C13 -174.6(5) . .
Zr3 O13 C15 O12 -2.0(8) . .
Zr3 O13 C15 C16 178.9(3) . .
Zr6 O12 C15 O13 8.1(8) . .
Zr6 O12 C15 C16 -172.8(3) . .
O13 C15 C16 C17 -165.8(5) . .
O12 C15 C16 C17 15.0(8) . .
O13 C15 C16 C21 15.3(7) . .
O12 C15 C16 C21 -163.9(5) . .
C21 C16 C17 C18 3.8(9) . .
C15 C16 C17 C18 -175.0(5) . .
C16 C17 C18 C19 1.9(9) . .
C17 C18 C19 C20 -6.0(9) . .
C17 C18 C19 P1 175.7(4) . .
C22 P1 C19 C20 128.3(5) . .
C29 P1 C19 C20 24.2(5) . .
C22 P1 C19 C18 -53.4(5) . .
C29 P1 C19 C18 -157.6(4) . .
C18 C19 C20 C21 4.3(9) . .
P1 C19 C20 C21 -177.4(5) . .
C19 C20 C21 C16 1.5(9) . .
C17 C16 C21 C20 -5.6(9) . .
C15 C16 C21 C20 173.3(5) . .
C19 P1 C22 C27 -28.4(5) . .
C29 P1 C22 C27 74.6(5) . .
C19 P1 C22 C23 153.4(4) . .
C29 P1 C22 C23 -103.6(5) . .
C27 C22 C23 C24 -4.6(9) . .
P1 C22 C23 C24 173.7(5) . .
C22 C23 C24 C25 0.7(9) . .
C23 C24 C25 C26 1.5(9) . .
C23 C24 C25 C28 -177.1(5) . .
C24 C25 C26 C27 0.1(9) . .
C28 C25 C26 C27 178.7(5) . .
C23 C22 C27 C26 6.1(9) . .
P1 C22 C27 C26 -172.1(4) . .
C25 C26 C27 C22 -3.9(9) . .
Zr4 O26 C28 O27 -10.7(8) 2_666 .
Zr4 O26 C28 C25 164.2(3) 2_666 .
Zr6 O27 C28 O26 16.2(8) 2_666 .
Zr6 O27 C28 C25 -158.7(3) 2_666 .
C26 C25 C28 O26 153.6(5) . .
C24 C25 C28 O26 -27.8(7) . .
C26 C25 C28 O27 -31.1(7) . .
C24 C25 C28 O27 147.6(5) . .
C19 P1 C29 C30 74.6(5) . .
C22 P1 C29 C30 -29.4(5) . .
C19 P1 C29 C34 -100.9(4) . .
C22 P1 C29 C34 155.0(4) . .
C34 C29 C30 C31 1.4(9) . .
P1 C29 C30 C31 -174.1(5) . .
C29 C30 C31 C32 -0.2(9) . .
C30 C31 C32 C33 -1.3(9) . .
C30 C31 C32 C35 176.8(5) . .
C31 C32 C33 C34 1.6(8) . .
C35 C32 C33 C34 -176.5(5) . .
C32 C33 C34 C29 -0.4(8) . .
C30 C29 C34 C33 -1.1(8) . .
P1 C29 C34 C33 174.7(4) . .
Zr2 O28 C35 O29 -9.6(5) 2_656 .
Zr2 O28 C35 C32 167.5(4) 2_656 .
Zr2 O29 C35 O28 9.8(5) 2_656 .
Zr2 O29 C35 C32 -167.3(4) 2_656 .
C33 C32 C35 O28 -9.2(7) . .
C31 C32 C35 O28 172.7(5) . .
C33 C32 C35 O29 167.9(5) . .
C31 C32 C35 O29 -10.2(7) . .
C33 C32 C35 Zr2 85.6(19) . 2_656
C31 C32 C35 Zr2 -92.5(19) . 2_656
O2A C2A O1A Zr5 175.8(3) . 2_665
C1A C2A O1A Zr5 -3.6(9) . 2_665
O1A C2A O2A Zr1 27.0(7) . .
C1A C2A O2A Zr1 -153.5(4) . .
O2D C2D O1D Zr5 -177.6(3) . 2_665
C1D C2D O1D Zr5 2.6(8) . 2_665
O1D C2D O2D Zr6 -23.1(7) . .
C1D C2D O2D Zr6 156.8(3) . .
