#------------------------------------------------------------------------------
#$Date: 2019-11-17 05:54:55 +0200 (Sun, 17 Nov 2019) $
#$Revision: 228248 $
#$URL: file:///home/coder/svn-repositories/cod/cif/7/12/10/7121025.cif $
#------------------------------------------------------------------------------
#
# This file is available in the Crystallography Open Database (COD),
# http://www.crystallography.net/
#
# All data on this site have been placed in the public domain by the
# contributors.
#
data_7121025
loop_
_publ_author_name
'Zhang, Chen'
'Sikligar, Kanishka'
'Patil, Rahul S.'
'Barnes, Charles L.'
'Baker, Gary A.'
'Atwood, Jerry L.'
_publ_section_title
;
 A M<sub>18</sub>L<sub>6</sub> metal-organic nanocapsule with open windows
 using mixed macrocycles.
;
_journal_issue                   6
_journal_name_full
'Chemical communications (Cambridge, England)'
_journal_page_first              635
_journal_page_last               637
_journal_paper_doi               10.1039/c7cc09294f
_journal_volume                  54
_journal_year                    2018
_chemical_formula_moiety         'C300 H354 N12 O86 Zn18'
_chemical_formula_sum            'C300 H354 N12 O86 Zn18'
_chemical_formula_weight         6680.59
_chemical_name_common            'P3R1C4, Zn, DMF, H2O'
_chemical_name_systematic
'C-butylpyrogallol[3]resorcin[1]arene, zinc, dimethylformamide, water'
_space_group_crystal_system      monoclinic
_space_group_IT_number           12
_space_group_name_Hall           '-C 2y'
_space_group_name_H-M_alt        'C 1 2/m 1'
_symmetry_space_group_name_Hall  '-C 2y'
_symmetry_space_group_name_H-M   'C 1 2/m 1'
_atom_sites_solution_hydrogens   geom
_audit_creation_method           SHELXL-2014/7
_audit_update_record
;
2017-09-08 deposited with the CCDC.
2017-12-19 downloaded from the CCDC.
;
_cell_angle_alpha                90
_cell_angle_beta                 117.492(2)
_cell_angle_gamma                90
_cell_formula_units_Z            2
_cell_length_a                   27.2432(17)
_cell_length_b                   36.6460(18)
_cell_length_c                   21.3526(11)
_cell_measurement_reflns_used    9755
_cell_measurement_temperature    100(2)
_cell_measurement_theta_max      65.19
_cell_measurement_theta_min      2.33
_cell_volume                     18910.2(18)
_computing_cell_refinement       'APEX2 (Bruker AXS, 2008)'
_computing_data_collection       'APEX2 (Bruker AXS, 2008)'
_computing_data_reduction        'APEX2 (Bruker AXS, 2008)'
_computing_molecular_graphics    'X-SEED, Barbour, 2001'
_computing_publication_material  'CIFTAB (Sheldrick, 2013)'
_computing_structure_refinement  'SHELXL-2013 (Sheldrick, 2013)'
_computing_structure_solution    'SHELXS-2013 (Sheldrick, 2013)'
_diffrn_ambient_temperature      100(2)
_diffrn_measured_fraction_theta_full 0.998
_diffrn_measured_fraction_theta_max 0.998
_diffrn_measurement_device_type  'Bruker APEXII CCD area detector'
_diffrn_measurement_method       'omega scans'
_diffrn_radiation_type           CuK\a
_diffrn_radiation_wavelength     1.54178
_diffrn_reflns_av_R_equivalents  0.0413
_diffrn_reflns_av_unetI/netI     0.0281
_diffrn_reflns_Laue_measured_fraction_full 0.998
_diffrn_reflns_Laue_measured_fraction_max 0.998
_diffrn_reflns_limit_h_max       32
_diffrn_reflns_limit_h_min       -32
_diffrn_reflns_limit_k_max       42
_diffrn_reflns_limit_k_min       -43
_diffrn_reflns_limit_l_max       25
_diffrn_reflns_limit_l_min       -25
_diffrn_reflns_number            124429
_diffrn_reflns_point_group_measured_fraction_full 0.998
_diffrn_reflns_point_group_measured_fraction_max 0.998
_diffrn_reflns_theta_full        65.245
_diffrn_reflns_theta_max         65.245
_diffrn_reflns_theta_min         2.190
_diffrn_standards_decay_%        0.0
_exptl_absorpt_coefficient_mu    1.784
_exptl_absorpt_correction_T_max  0.717
_exptl_absorpt_correction_T_min  0.604
_exptl_absorpt_correction_type   multi-scan
_exptl_absorpt_process_details
;
 Data were corrected for decay and absorption using the program SADABS 
 (Sheldrick, G. M. (2003). SADABS. Version 2.10. University of
 G\"ottingen, Germany).
;
_exptl_crystal_colour            green
_exptl_crystal_density_diffrn    1.173
_exptl_crystal_description       block
_exptl_crystal_F_000             6932
_exptl_crystal_size_max          0.400
_exptl_crystal_size_mid          0.400
_exptl_crystal_size_min          0.200
_refine_diff_density_max         4.803
_refine_diff_density_min         -1.954
_refine_diff_density_rms         0.201
_refine_ls_extinction_method     none
_refine_ls_goodness_of_fit_ref   2.258
_refine_ls_hydrogen_treatment    constr
_refine_ls_matrix_type           full
_refine_ls_number_parameters     912
_refine_ls_number_reflns         16441
_refine_ls_number_restraints     9
_refine_ls_restrained_S_all      2.258
_refine_ls_R_factor_all          0.1612
_refine_ls_R_factor_gt           0.1407
_refine_ls_shift/su_max          0.001
_refine_ls_shift/su_mean         0.000
_refine_ls_structure_factor_coef Fsqd
_refine_ls_weighting_details
'w=1/[\s^2^(Fo^2^)+(0.2000P)^2^] where P=(Fo^2^+2Fc^2^)/3'
_refine_ls_weighting_scheme      calc
_refine_ls_wR_factor_gt          0.4296
_refine_ls_wR_factor_ref         0.4756
_reflns_Friedel_coverage         0.000
_reflns_number_gt                12968
_reflns_number_total             16441
_reflns_threshold_expression     'I > 2\s(I)'
_cod_data_source_file            c7cc09294f2.cif
_cod_data_source_block           1
_cod_depositor_comments          'Adding full bibliography for 7121025.cif.'
_cod_database_code               7121025
_shelx_shelxl_version_number     2014/7
_shelx_space_group_comment
;
The symmetry employed for this shelxl refinement is uniquely defined
by the following loop, which should always be used as a source of
symmetry information in preference to the above space-group names.
They are only intended as comments.
;
_shelx_estimated_absorpt_t_min   0.536
_shelx_estimated_absorpt_t_max   0.717
_shelx_res_file
;

    C:\Users\ZHANGCHE\Dropbox\RESEAR~1\X-ray\ZC0727~1\work_C2m\1.res created by SHELXL-2014/7

TITL x_a.res in C2/m
CELL 1.54178 27.2432 36.6460 21.3526 90.000 117.492 90.000
ZERR 2.0000 0.0017 0.0018 0.0011 0.000 0.002 0.000
LATT 7
SYMM -X, Y, -Z
SFAC C H N O ZN
UNIT 600 708 24 172 36
MERG 2
FMAP 2
GRID
PLAN 30
TEMP -173
SIZE 0.2 0.4 0.4
BOND $H
CONF
DFIX 1.25 0.02 O5E C4S
DFIX 1.40 0.02 N2S C4S
DFIX 1.45 0.02 N2S C5S
DFIX 1.45 0.02 N2S C6S
DANG 2.30 0.04 N2S O5E
DANG 2.50 0.04 C4S C5S
DANG 2.50 0.04 C4S C6S
FLAT O5E C4S N2S C5S C6S
ABIN
L.S. 15
ACTA
WGHT    0.200000
FVAR       0.10256
ZN4   5    0.406790    0.707437    0.498494    11.00000    0.04980    0.05892 =
         0.03625    0.00348    0.01566   -0.00185
ZN5   5    0.647412    0.650520    0.404322    11.00000    0.05141    0.06351 =
         0.04329   -0.00186    0.01512    0.00721
ZN1   5    0.704473    0.637321    0.597238    11.00000    0.06376    0.05570 =
         0.04453   -0.00135    0.02179    0.00151
ZN3   5    0.425169    0.550866    0.745871    11.00000    0.04943    0.04946 =
         0.10258   -0.00081    0.00621   -0.00333
ZN2   5    0.555044    0.500000    0.846936    10.50000    0.05147    0.05031 =
         0.17672    0.00000   -0.00094    0.00000
O1    4    0.576837    0.723492    0.579702    11.00000    0.04875    0.05320 =
         0.03643   -0.00362    0.01723    0.00137
O10   4    0.409429    0.676339    0.576227    11.00000    0.04890    0.04866 =
         0.03474    0.00072    0.01044   -0.00318
O11   4    0.485760    0.722771    0.576946    11.00000    0.04337    0.05741 =
         0.02960    0.00227    0.01288    0.00072
O9    4    0.411348    0.652529    0.697377    11.00000    0.04737    0.04671 =
         0.03900    0.00358    0.01226   -0.00629
O2    4    0.657621    0.681735    0.580937    11.00000    0.04709    0.06265 =
         0.03305   -0.00049    0.01135    0.00742
O14   4    0.692648    0.613524    0.377318    11.00000    0.05518    0.04464 =
         0.04590    0.00438    0.02128    0.00518
O8    4    0.445875    0.602919    0.783166    11.00000    0.04327    0.04510 =
         0.05609    0.00387    0.00755   -0.00424
O15   4    0.657106    0.564078    0.289899    11.00000    0.04852    0.04499 =
         0.05185    0.00081    0.00794   -0.00417
O3    4    0.745918    0.662198    0.699431    11.00000    0.05265    0.08248 =
         0.04107   -0.00798    0.01592    0.01169
O13   4    0.695492    0.631699    0.500237    11.00000    0.07920    0.06528 =
         0.04300    0.00769    0.02589    0.02777
O4E   4    0.371039    0.755094    0.510244    11.00000    0.06081    0.05755 =
         0.05477    0.00263    0.02547    0.01117
O16   4    0.603913    0.500000    0.256080    10.50000    0.04144    0.04299 =
         0.06876    0.00000    0.01219    0.00000
O7    4    0.504208    0.541247    0.816365    11.00000    0.05430    0.04394 =
         0.08222   -0.00005    0.00409   -0.00359
O5E   4    0.689046    0.696264    0.400061    11.00000    0.06322    0.06436 =
         0.06601    0.00050    0.02327   -0.01454
O12   4    0.778278    0.611767    0.624626    11.00000    0.09645    0.06051 =
         0.03729   -0.00249    0.01852    0.02099
O6    4    0.613143    0.539196    0.902537    11.00000    0.05404    0.05792 =
         0.08623    0.00137    0.01142   -0.00090
O4    4    0.796954    0.617295    0.803118    11.00000    0.10083    0.09592 =
         0.05956    0.01185    0.04018    0.03721
AFIX 147
H4    2    0.781125    0.606215    0.764383    11.00000   -1.20000
AFIX   0
C22   1    0.533217    0.712387    0.767531    11.00000    0.04533    0.04688 =
         0.03402   -0.00611    0.01666   -0.00295
AFIX  43
H22   2    0.562389    0.720286    0.811276    11.00000   -1.20000
AFIX   0
C52   1    0.774706    0.500000    0.361619    10.50000    0.04591    0.05598 =
         0.03801    0.00000    0.02272    0.00000
AFIX  43
H52   2    0.814016    0.499999    0.384579    10.50000   -1.20000
AFIX   0
C27   1    0.531501    0.725061    0.704869    11.00000    0.04899    0.04562 =
         0.04083   -0.00309    0.01884    0.00373
O17   4    0.812130    0.564755    0.722729    11.00000    0.14034    0.07665 =
         0.05176   -0.00583    0.03232    0.02297
AFIX 147
H17   2    0.778922    0.568994    0.694114    11.00000   -1.20000
AFIX   0
C23   1    0.493130    0.688284    0.768012    11.00000    0.05221    0.03624 =
         0.03895   -0.00321    0.02130    0.00099
C19   1    0.501075    0.605587    0.828255    11.00000    0.05506    0.04675 =
         0.04658    0.00451    0.01514   -0.00776
C55   1    0.660564    0.500000    0.290313    10.50000    0.05048    0.03931 =
         0.04983    0.00000    0.01243    0.00000
C49   1    0.737394    0.601753    0.437978    11.00000    0.04894    0.04280 =
         0.04130   -0.00356    0.01872   -0.00478
C24   1    0.452730    0.675967    0.702801    11.00000    0.04199    0.04342 =
         0.04191    0.00191    0.01992    0.00186
C51   1    0.777533    0.569921    0.368307    11.00000    0.04749    0.04806 =
         0.04751    0.00132    0.02374   -0.00091
AFIX  13
H51   2    0.754108    0.588492    0.332727    11.00000   -1.20000
AFIX   0
C3    1    0.619074    0.716017    0.642684    11.00000    0.04378    0.05388 =
         0.03737   -0.00508    0.01182   -0.00806
C26   1    0.491139    0.712071    0.642961    11.00000    0.04718    0.04170 =
         0.03842    0.00131    0.01942    0.00297
C48   1    0.738489    0.611851    0.501079    11.00000    0.07132    0.05237 =
         0.04748    0.00290    0.01684    0.01121
C4    1    0.661608    0.693894    0.643784    11.00000    0.04435    0.06646 =
         0.03429   -0.00338    0.01902    0.00080
C6    1    0.711649    0.695579    0.771485    11.00000    0.03963    0.06398 =
         0.03870   -0.00504    0.01285   -0.00729
C25   1    0.450528    0.688201    0.639835    11.00000    0.04378    0.04375 =
         0.03557   -0.00270    0.01054    0.00310
C7    1    0.760909    0.683626    0.839131    11.00000    0.04351    0.06916 =
         0.03747   -0.00935    0.01209   -0.00445
AFIX  13
H7    2    0.792335    0.680390    0.827684    11.00000   -1.20000
AFIX   0
C45   1    0.823071    0.571093    0.502717    11.00000    0.04726    0.04857 =
         0.04747   -0.00367    0.01423   -0.00544
AFIX  43
H45   2    0.852565    0.556987    0.503384    11.00000   -1.20000
AFIX   0
C53   1    0.746759    0.533383    0.345296    11.00000    0.04414    0.04688 =
         0.03821    0.00030    0.01970    0.00144
C50   1    0.780267    0.581147    0.438371    11.00000    0.04446    0.04588 =
         0.04649    0.00656    0.01795   -0.00661
C54   1    0.688941    0.533157    0.308953    11.00000    0.04159    0.05225 =
         0.04390    0.00001    0.01472   -0.00258
C2    1    0.623809    0.728357    0.706924    11.00000    0.04225    0.05606 =
         0.03832   -0.01270    0.01605   -0.00802
C46   1    0.824752    0.580921    0.567421    11.00000    0.06202    0.04701 =
         0.04239   -0.00711    0.01008   -0.00949
C37   1    0.512962    0.702590    0.894898    11.00000    0.06860    0.05448 =
         0.04882   -0.00747    0.03112   -0.00596
AFIX  23
H37A  2    0.510684    0.691326    0.935619    11.00000   -1.20000
H37B  2    0.552161    0.709103    0.910469    11.00000   -1.20000
AFIX   0
C1    1    0.669213    0.717873    0.769496    11.00000    0.04438    0.06242 =
         0.03425   -0.01074    0.01502   -0.01035
AFIX  43
H1    2    0.671522    0.726234    0.812888    11.00000   -1.20000
AFIX   0
O5    4    0.710506    0.542056    0.909685    11.00000    0.10296    0.06767 =
         0.13281    0.01528    0.04075    0.01565
AFIX 147
H5    2    0.728387    0.537770    0.953139    11.00000   -1.20000
AFIX   0
C28   1    0.575565    0.750678    0.706279    11.00000    0.05370    0.04450 =
         0.04440    0.00068    0.01918   -0.00278
AFIX  13
H28   2    0.558535    0.764404    0.660655    11.00000   -1.20000
AFIX   0
C56   1    0.869947    0.500000    0.642866    10.50000    0.06172    0.06558 =
         0.03001    0.00000    0.01027    0.00000
AFIX  43
H56   2    0.889062    0.500000    0.615247    10.50000   -1.20000
AFIX   0
C20   1    0.528164    0.638732    0.857414    11.00000    0.05607    0.05425 =
         0.03519    0.00327    0.01946   -0.00624
C8    1    0.720866    0.641611    0.900637    11.00000    0.04997    0.05164 =
         0.04145    0.00148    0.01000   -0.00033
AFIX  43
H8    2    0.709135    0.662889    0.915400    11.00000   -1.20000
AFIX   0
C21   1    0.495372    0.673884    0.835373    11.00000    0.05113    0.05274 =
         0.04045   -0.00421    0.02056   -0.00115
AFIX  13
H21   2    0.456471    0.667072    0.823328    11.00000   -1.20000
AFIX   0
C18   1    0.530962    0.573152    0.845333    11.00000    0.04788    0.05310 =
         0.06526   -0.00233    0.00900   -0.00667
C59   1    0.857203    0.533405    0.661280    11.00000    0.07687    0.05726 =
         0.02895   -0.00720    0.00316   -0.00618
C5    1    0.706676    0.684224    0.707177    11.00000    0.04126    0.06751 =
         0.04149   -0.00988    0.01328   -0.00191
C15   1    0.584948    0.637486    0.900313    11.00000    0.05106    0.05342 =
         0.03864   -0.00404    0.00999   -0.01180
AFIX  43
H15   2    0.603988    0.659790    0.918578    11.00000   -1.20000
AFIX   0
C47   1    0.781311    0.601152    0.566402    11.00000    0.07165    0.04402 =
         0.04845   -0.00418    0.02086    0.00138
C29   1    0.779399    0.712726    0.897480    11.00000    0.05845    0.06844 =
         0.04870   -0.01603    0.01938   -0.01600
AFIX  23
H29A  2    0.785435    0.736053    0.878670    11.00000   -1.20000
H29B  2    0.749333    0.716603    0.910553    11.00000   -1.20000
AFIX   0
C13   1    0.708667    0.607773    0.919368    11.00000    0.04520    0.07994 =
         0.04337   -0.00133    0.00454    0.00233
C9    1    0.749585    0.645907    0.861087    11.00000    0.04015    0.07487 =
         0.04155   -0.00674    0.00742    0.00131
C60   1    0.871704    0.568858    0.638017    11.00000    0.05280    0.06310 =
         0.04009   -0.00899    0.00382   -0.00134
AFIX  13
H60   2    0.874376    0.587645    0.673423    11.00000   -1.20000
AFIX   0
C16   1    0.615167    0.605599    0.917811    11.00000    0.05159    0.05305 =
         0.05080    0.00937    0.01938    0.00029
C41   1    0.594580    0.779378    0.765517    11.00000    0.07502    0.05152 =
         0.05770   -0.01723    0.03441   -0.01473
AFIX  23
H41A  2    0.609866    0.766726    0.811653    11.00000   -1.20000
H41B  2    0.624625    0.794179    0.764554    11.00000   -1.20000
AFIX   0
C17   1    0.587628    0.573000    0.888632    11.00000    0.04516    0.05360 =
         0.06311    0.01397    0.00538    0.00005
C14   1    0.677743    0.605371    0.965005    11.00000    0.05149    0.05756 =
         0.05705    0.01212    0.01503   -0.00529
AFIX  13
H14   2    0.686740    0.580770    0.987824    11.00000   -1.20000
AFIX   0
N1S   3    0.368338    0.802561    0.572199    11.00000    0.07855    0.06148 =
         0.07647    0.00017    0.01767    0.01692
C61   1    0.833506    0.569561    0.367636    11.00000    0.05782    0.07118 =
         0.05724    0.00093    0.02931   -0.01104
AFIX  23
H61A  2    0.827761    0.561952    0.320243    11.00000   -1.20000
H61B  2    0.857712    0.551206    0.402062    11.00000   -1.20000
AFIX   0
C10   1    0.765464    0.613573    0.839883    11.00000    0.08653    0.07623 =
         0.04720    0.00847    0.02730    0.02139
C11   1    0.751531    0.579077    0.855320    11.00000    0.10962    0.08165 =
         0.07257    0.00375    0.03905    0.04134
AFIX  43
H11   2    0.760890    0.557575    0.838349    11.00000   -1.20000
AFIX   0
C38   1    0.478920    0.737356    0.875083    11.00000    0.10047    0.07559 =
         0.07253   -0.01051    0.04887    0.00647
AFIX  23
H38A  2    0.491086    0.751973    0.918728    11.00000   -1.20000
H38B  2    0.489168    0.751327    0.843168    11.00000   -1.20000
AFIX   0
C33   1    0.698206    0.632904    1.025208    11.00000    0.05572    0.10024 =
         0.04322    0.00600    0.01480   -0.01424
AFIX  23
H33A  2    0.739116    0.631800    1.050794    11.00000   -1.20000
H33B  2    0.687767    0.657690    1.004901    11.00000   -1.20000
AFIX   0
C58   1    0.829865    0.532613    0.701881    11.00000    0.08419    0.06232 =
         0.03776   -0.00365    0.00972    0.00752
O1I   4    0.654517    0.605524    0.622333    11.00000    0.11534    0.08184 =
         0.10722    0.00043    0.06224   -0.01945
C57   1    0.815999    0.500000    0.723042    10.50000    0.09105    0.07572 =
         0.04730    0.00000    0.02150    0.00000
AFIX  43
H57   2    0.797453    0.500000    0.751348    10.50000   -1.20000
AFIX   0
C12   1    0.724079    0.576908    0.895461    11.00000    0.08502    0.06920 =
         0.07553    0.01935    0.02437    0.01649
C1S   1    0.383583    0.770402    0.565803    11.00000    0.06774    0.08273 =
         0.06547   -0.00374    0.02040    0.01869
C30   1    0.832045    0.702602    0.963384    11.00000    0.06149    0.09382 =
         0.05120   -0.01060    0.01984   -0.01185
AFIX  23
H30A  2    0.857906    0.690254    0.949566    11.00000   -1.20000
H30B  2    0.823013    0.685359    0.992261    11.00000   -1.20000
AFIX   0
C65   1    0.927802    0.568591    0.637729    11.00000    0.06199    0.07161 =
         0.06585    0.00861   -0.00630   -0.01366
AFIX  23
H65A  2    0.933217    0.592456    0.620076    11.00000   -1.20000
H65B  2    0.927106    0.549622    0.604315    11.00000   -1.20000
AFIX   0
C8S   1    0.586933    0.627580    0.731520    11.00000    0.11777    0.10564 =
         0.09283   -0.01066    0.06327    0.01524
AFIX  33
H8S1  2    0.547987    0.626946    0.721322    11.00000   -1.50000
H8S2  2    0.608418    0.611014    0.770760    11.00000   -1.50000
H8S3  2    0.601220    0.652471    0.744417    11.00000   -1.50000
AFIX   0
C42   1    0.548766    0.804334    0.759178    11.00000    0.10838    0.05904 =
         0.07205   -0.00563    0.03170    0.01508
AFIX  23
H42A  2    0.534355    0.817482    0.713617    11.00000   -1.20000
H42B  2    0.518211    0.789366    0.758322    11.00000   -1.20000
AFIX   0
C32   1    0.827967    0.757224    1.032978    11.00000    0.08827    0.08553 =
         0.06734   -0.03502    0.01669   -0.02232
AFIX  33
H32A  2    0.849209    0.778293    1.060353    11.00000   -1.50000
H32B  2    0.793913    0.765690    0.992677    11.00000   -1.50000
H32C  2    0.818568    0.741509    1.063022    11.00000   -1.50000
AFIX   0
O2I   4    0.574541    0.500000    0.759716    10.50000    0.09038    0.18868 =
         0.22152    0.00000    0.08963    0.00000
C66   1    0.977720    0.561289    0.710753    11.00000    0.08020    0.09202 =
         0.08201    0.00807   -0.01678   -0.00309
AFIX  23
H66A  2    0.974001    0.536824    0.727771    11.00000   -1.20000
H66B  2    0.978258    0.579612    0.745134    11.00000   -1.20000
AFIX   0
C62   1    0.863650    0.607537    0.386100    11.00000    0.08554    0.08602 =
         0.07582    0.00130    0.03530   -0.01885
AFIX  23
H62A  2    0.875389    0.613004    0.436432    11.00000   -1.20000
H62B  2    0.897429    0.605836    0.379926    11.00000   -1.20000
AFIX   0
C31   1    0.860405    0.737039    1.007980    11.00000    0.07332    0.10654 =
         0.06735   -0.01641    0.00469   -0.01896
AFIX  23
H31A  2    0.895141    0.729394    1.049219    11.00000   -1.20000
H31B  2    0.870548    0.753515    0.979049    11.00000   -1.20000
AFIX   0
C5S   1    0.737927    0.760142    0.386622    11.00000    0.07947    0.10859 =
         0.09610   -0.01581    0.03269   -0.01640
AFIX  33
H5S1  2    0.754286    0.779006    0.369509    11.00000   -1.50000
H5S2  2    0.703033    0.769127    0.383648    11.00000   -1.50000
H5S3  2    0.763559    0.754253    0.435817    11.00000   -1.50000
AFIX   0
C2S   1    0.384141    0.820745    0.639621    11.00000    0.11886    0.10443 =
         0.08635   -0.01431    0.00905    0.03585
AFIX  33
H2S1  2    0.367487    0.845116    0.631144    11.00000   -1.50000
H2S2  2    0.371027    0.806402    0.667677    11.00000   -1.50000
H2S3  2    0.424522    0.822929    0.665317    11.00000   -1.50000
AFIX   0
N2S   3    0.727545    0.728017    0.344041    11.00000    0.28221    0.12307 =
         0.14010   -0.05295    0.14999   -0.10420
O3I   4    0.433501    0.552546    0.643854    11.00000    0.19058    0.22213 =
         0.20668    0.00629   -0.00681    0.04633
N3S   3    0.591717    0.615990    0.668313    11.00000    0.09554    0.21004 =
         0.12130   -0.03775    0.02582   -0.00278
C4S   1    0.704936    0.697592    0.356148    11.00000    0.21899    0.12111 =
         0.15729   -0.06543    0.13972   -0.08730
C63   1    0.829927    0.637606    0.343401    11.00000    0.11877    0.13296 =
         0.07923    0.02849    0.02045   -0.05346
AFIX  23
H63A  2    0.797242    0.640575    0.351633    11.00000   -1.20000
H63B  2    0.816556    0.631895    0.292811    11.00000   -1.20000
AFIX   0
C34   1    0.676035    0.627200    1.077541    11.00000    0.09661    0.16556 =
         0.07532    0.01520    0.03451   -0.01219
AFIX  23
H34A  2    0.635141    0.627649    1.050832    11.00000   -1.20000
H34B  2    0.686710    0.602289    1.097087    11.00000   -1.20000
AFIX   0
C43   1    0.565390    0.831208    0.816363    11.00000    0.13895    0.08708 =
         0.13782   -0.03289    0.06035    0.00084
AFIX  23
H43A  2    0.586411    0.850818    0.807508    11.00000   -1.20000
H43B  2    0.590965    0.819111    0.861102    11.00000   -1.20000
AFIX   0
C3S   1    0.329402    0.823536    0.514426    11.00000    0.26196    0.06580 =
         0.09029   -0.01132   -0.00721    0.06279
AFIX  33
H3S1  2    0.324032    0.847228    0.531664    11.00000   -1.50000
H3S2  2    0.343364    0.827305    0.480048    11.00000   -1.50000
H3S3  2    0.294026    0.810503    0.491824    11.00000   -1.50000
AFIX   0
C39   1    0.419896    0.735709    0.842310    11.00000    0.12806    0.10668 =
         0.27597   -0.03692    0.08914    0.01332
AFIX  23
H39A  2    0.408140    0.723704    0.796040    11.00000   -1.20000
H39B  2    0.410403    0.718685    0.871078    11.00000   -1.20000
AFIX   0
C67   1    1.033106    0.563351    0.705542    11.00000    0.08576    0.18114 =
         0.13713   -0.01521   -0.01098   -0.00160
AFIX  23
H67A  2    1.032156    0.546685    0.668508    11.00000   -1.20000
H67B  2    1.040038    0.588506    0.694647    11.00000   -1.20000
AFIX   0
C9S   1    0.541737    0.622549    0.599501    11.00000   10.25000
AFIX  33
H9S1  2    0.508662    0.622362    0.606573    11.00000   -1.50000
H9S2  2    0.544987    0.646302    0.580652    11.00000   -1.50000
H9S3  2    0.538714    0.603295    0.566054    11.00000   -1.50000
AFIX   0
C64   1    0.863056    0.673625    0.361470    11.00000    0.16488    0.15631 =
         0.16139    0.03836    0.07922   -0.07330
AFIX  33
H64A  2    0.839330    0.693332    0.331957    11.00000   -1.50000
H64B  2    0.875784    0.679538    0.411345    11.00000   -1.50000
H64C  2    0.895080    0.670866    0.352577    11.00000   -1.50000
AFIX   0
C36   1    0.663675    0.646462    1.188188    11.00000    0.12706    0.22398 =
         0.12595   -0.00438    0.07142   -0.03311
AFIX  33
H36A  2    0.678403    0.665010    1.225416    11.00000   -1.50000
H36B  2    0.623455    0.649259    1.161133    11.00000   -1.50000
H36C  2    0.672349    0.622117    1.209553    11.00000   -1.50000
AFIX   0
C44   1    0.514614    0.850495    0.827655    11.00000   10.25000
AFIX  33
H44A  2    0.530410    0.867842    0.866968    11.00000   -1.50000
H44B  2    0.489507    0.863398    0.784431    11.00000   -1.50000
H44C  2    0.494077    0.831584    0.838205    11.00000   -1.50000
AFIX   0
C35   1    0.691833    0.651489    1.135376    11.00000    0.48316    0.36989 =
         0.09865   -0.04649    0.12308   -0.30689
AFIX  23
H35A  2    0.683794    0.676612    1.116231    11.00000   -1.20000
H35B  2    0.732448    0.649604    1.164413    11.00000   -1.20000
AFIX   0
C7S   1    0.640254    0.615084    0.671654    11.00000   10.25000
C40   1    0.385417    0.766212    0.829476    11.00000   10.25000
AFIX  33
H40A  2    0.346656    0.758353    0.806595    11.00000   -1.50000
H40B  2    0.393900    0.778260    0.874306    11.00000   -1.50000
H40C  2    0.391616    0.783325    0.798564    11.00000   -1.50000
AFIX   0
C6S   1    0.749410    0.728575    0.292861    11.00000   10.25000
AFIX  33
H6S1  2    0.763846    0.752949    0.291898    11.00000   -1.50000
H6S2  2    0.779253    0.710606    0.306623    11.00000   -1.50000
H6S3  2    0.719743    0.722543    0.245860    11.00000   -1.50000
AFIX   0
C68   1    1.077318    0.551576    0.778289    11.00000   10.25000
AFIX  33
H68A  2    1.113679    0.552138    0.779411    11.00000   -1.50000
H68B  2    1.077267    0.568280    0.814101    11.00000   -1.50000
H68C  2    1.069438    0.526739    0.788138    11.00000   -1.50000
AFIX   0
O2E   4    0.549259    0.500000    0.947572    10.50000   10.25000
HKLF 4

REM  x_a.res in C2/m
REM R1 =  0.1407 for   12968 Fo > 4sig(Fo)  and  0.1612 for all   16441 data
REM    912 parameters refined using      9 restraints

END

WGHT      0.2000      0.0000

REM Highest difference peak  4.803,  deepest hole -1.954,  1-sigma level  0.201
Q1    1   0.7501  0.5000  0.9586  10.50000  0.05    4.80
Q2    1   0.7803  0.5512  0.7708  11.00000  0.05    4.14
Q3    1   0.4198  0.5504  0.7879  11.00000  0.05    4.08
Q4    1   0.7308  0.6572  0.5999  11.00000  0.05    3.88
Q5    1   0.7288  0.5000  0.8798  10.50000  0.05    3.06
Q6    1   0.4190  0.6880  0.4997  11.00000  0.05    2.83
Q7    1   0.6376  0.6298  0.4094  11.00000  0.05    2.71
Q8    1   0.7622  0.6265  1.0757  11.00000  0.05    2.00
Q9    1   0.5543  0.5000  0.8209  10.50000  0.05    1.58
Q10   1   0.6154  0.5000  0.7597  10.50000  0.05    1.45
Q11   1   0.7526  0.5410  0.8358  11.00000  0.05    1.29
Q12   1   0.4127  0.5430  0.6375  11.00000  0.05    1.28
Q13   1   0.6689  0.5857  0.5962  11.00000  0.05    1.24
Q14   1   0.4243  0.5646  0.5973  11.00000  0.05    1.23
Q15   1   0.4070  0.5900  0.6046  11.00000  0.05    1.15
Q16   1   0.7721  0.6000  0.7903  11.00000  0.05    1.07
Q17   1   0.8302  0.5610  0.2923  11.00000  0.05    0.98
Q18   1   0.4428  0.7931  0.9031  11.00000  0.05    0.92
Q19   1   0.8354  0.7249  1.0347  11.00000  0.05    0.91
Q20   1   0.7133  0.7381  0.2657  11.00000  0.05    0.84
Q21   1   0.3820  0.7426  0.4958  11.00000  0.05    0.82
Q22   1   0.6787  0.7139  0.3498  11.00000  0.05    0.77
Q23   1   0.6186  0.6201  1.1188  11.00000  0.05    0.77
Q24   1   0.7404  0.6447  0.7089  11.00000  0.05    0.75
Q25   1   1.0490  0.5304  0.6784  11.00000  0.05    0.74
Q26   1   0.6408  0.6297  1.1719  11.00000  0.05    0.74
Q27   1   0.5182  0.7244  0.5826  11.00000  0.05    0.73
Q28   1   0.7545  0.6762  1.1459  11.00000  0.05    0.73
Q29   1   0.5417  0.6446  0.5029  11.00000  0.05    0.72
Q30   1   0.6599  0.5713  0.6245  11.00000  0.05    0.72
;
_shelx_res_checksum              30513
_shelx_fab_file
;
   -2    0    2    394.39      0.00
   -4    0    4    -20.76      0.00
   -6    0    6     37.48      0.00
   -8    0    8     62.10      0.00
  -10    0   10     13.12      0.00
  -12    0   12     -9.21      0.00
  -14    0   14     12.05      0.00
  -16    0   16     18.85      0.00
  -18    0   18     -4.23      0.00
  -20    0   20     -0.06      0.00
  -22    0   22     17.66      0.00
   -1    1    1     81.93      0.00
   -3    1    3    210.77      0.00
   -5    1    5     46.37      0.00
   -7    1    7     -6.53      0.00
   -9    1    9    -34.00      0.00
  -11    1   11     16.62      0.00
  -13    1   13     24.51      0.00
  -15    1   15      2.06      0.00
  -17    1   17      1.81      0.00
  -19    1   19     26.82      0.00
  -21    1   21      5.92      0.00
  -23    1   23      0.58      0.00
    0    2    0    674.35      0.00
   -2    2    2    164.68      0.00
   -4    2    4    -48.74      0.00
   -6    2    6    -34.27      0.00
   -8    2    8      7.03      0.00
  -10    2   10      5.61      0.00
  -12    2   12    -14.52      0.00
  -14    2   14      5.59      0.00
  -16    2   16     10.68      0.00
  -18    2   18     -5.18      0.00
  -20    2   20      1.57      0.00
  -22    2   22     11.17      0.00
   -1    3    1    -34.69      0.00
   -3    3    3    127.74      0.00
   -5    3    5    -14.46      0.00
   -7    3    7    -43.71      0.00
   -9    3    9    -38.11      0.00
  -11    3   11      3.93      0.00
  -13    3   13      2.18      0.00
  -15    3   15     -9.89      0.00
  -17    3   17    -10.13      0.00
  -19    3   19     11.57      0.00
  -21    3   21     -3.58      0.00
  -23    3   23     -4.41      0.00
    0    4    0    244.96      0.00
   -2    4    2     14.81      0.00
   -4    4    4    -36.16      0.00
   -6    4    6    -65.25      0.00
   -8    4    8    -28.87      0.00
  -10    4   10     -3.92      0.00
  -12    4   12    -17.91      0.00
  -14    4   14      2.25      0.00
  -16    4   16      8.08      0.00
  -18    4   18     -5.08      0.00
  -20    4   20      1.38      0.00
  -22    4   22      4.31      0.00
   -1    5    1     65.03      0.00
   -3    5    3     39.90      0.00
   -5    5    5    -44.53      0.00
   -7    5    7    -25.61      0.00
   -9    5    9    -35.19      0.00
  -11    5   11     -2.21      0.00
  -13    5   13      4.16      0.00
  -15    5   15     -6.50      0.00
  -17    5   17     -5.38      0.00
  -19    5   19      3.79      0.00
  -21    5   21     -5.89      0.00
  -23    5   23      1.88      0.00
    0    6    0    228.54      0.00
   -2    6    2    -11.45      0.00
   -4    6    4    -77.81      0.00
   -6    6    6    -77.15      0.00
   -8    6    8    -35.75      0.00
  -10    6   10    -13.90      0.00
  -12    6   12    -13.94      0.00
  -14    6   14     -0.23      0.00
  -16    6   16      1.74      0.00
  -18    6   18    -11.77      0.00
  -20    6   20     -2.13      0.00
  -22    6   22      2.89      0.00
   -1    7    1     11.49      0.00
   -3    7    3    -52.27      0.00
   -5    7    5    -82.81      0.00
   -7    7    7    -16.39      0.00
   -9    7    9    -15.69      0.00
  -11    7   11      2.95      0.00
  -13    7   13      9.75      0.00
  -15    7   15     -5.53      0.00
  -17    7   17     -5.85      0.00
  -19    7   19      3.15      0.00
  -21    7   21     -3.93      0.00
  -23    7   23      4.92      0.00
    0    8    0    105.00      0.00
   -2    8    2    -77.53      0.00
   -4    8    4    -83.17      0.00
   -6    8    6    -71.82      0.00
   -8    8    8    -36.55      0.00
  -10    8   10      6.19      0.00
  -12    8   12     12.74      0.00
  -14    8   14      3.88      0.00
  -16    8   16     -5.36      0.00
  -18    8   18    -13.50      0.00
  -20    8   20      2.41      0.00
  -22    8   22      3.39      0.00
   -1    9    1    -20.58      0.00
   -3    9    3     -2.89      0.00
   -5    9    5    -48.01      0.00
   -7    9    7     14.47      0.00
   -9    9    9     24.25      0.00
  -11    9   11     17.96      0.00
  -13    9   13     12.78      0.00
  -15    9   15      7.33      0.00
  -17    9   17      2.43      0.00
  -19    9   19      7.34      0.00
  -21    9   21     -2.10      0.00
  -23    9   23      3.10      0.00
    0   10    0     75.21      0.00
   -2   10    2    -44.12      0.00
   -4   10    4    -19.33      0.00
   -6   10    6    -17.50      0.00
   -8   10    8    -21.84      0.00
  -10   10   10     15.73      0.00
  -12   10   12     21.11      0.00
  -14   10   14      5.32      0.00
  -16   10   16     -3.34      0.00
  -18   10   18     -6.31      0.00
  -20   10   20      4.39      0.00
  -22   10   22     -1.25      0.00
   -1   11    1     31.94      0.00
   -3   11    3     52.27      0.00
   -5   11    5    -15.25      0.00
   -7   11    7     14.84      0.00
   -9   11    9     17.33      0.00
  -11   11   11      4.61      0.00
  -13   11   13      5.75      0.00
  -15   11   15      9.46      0.00
  -17   11   17      2.91      0.00
  -19   11   19      4.12      0.00
  -21   11   21     -4.31      0.00
    0   12    0     63.03      0.00
   -2   12    2    -45.02      0.00
   -4   12    4    -48.16      0.00
   -6   12    6    -28.18      0.00
   -8   12    8    -21.93      0.00
  -10   12   10      3.00      0.00
  -12   12   12      8.56      0.00
  -14   12   14     -2.20      0.00
  -16   12   16     -7.64      0.00
  -18   12   18     -8.92      0.00
  -20   12   20      0.79      0.00
  -22   12   22     -2.69      0.00
   -1   13    1     19.72      0.00
   -3   13    3     16.37      0.00
   -5   13    5    -19.00      0.00
   -7   13    7      8.53      0.00
   -9   13    9      7.41      0.00
  -11   13   11      1.12      0.00
  -13   13   13      9.70      0.00
  -15   13   15      4.09      0.00
  -17   13   17     -4.13      0.00
  -19   13   19      3.26      0.00
  -21   13   21     -1.41      0.00
    0   14    0     92.35      0.00
   -2   14    2      3.13      0.00
   -4   14    4    -16.76      0.00
   -6   14    6     -4.70      0.00
   -8   14    8      6.66      0.00
  -10   14   10     14.15      0.00
  -12   14   12     14.87      0.00
  -14   14   14     -1.18      0.00
  -16   14   16     -4.33      0.00
  -18   14   18    -11.18      0.00
  -20   14   20      0.40      0.00
  -22   14   22     -0.77      0.00
   -1   15    1     13.24      0.00
   -3   15    3      3.41      0.00
   -5   15    5     -3.08      0.00
   -7   15    7     24.31      0.00
   -9   15    9     13.56      0.00
  -11   15   11      2.48      0.00
  -13   15   13     12.31      0.00
  -15   15   15      6.34      0.00
  -17   15   17     -0.54      0.00
  -19   15   19      6.33      0.00
  -21   15   21     -2.89      0.00
    0   16    0     59.74      0.00
   -2   16    2      9.68      0.00
   -4   16    4     10.40      0.00
   -6   16    6      2.91      0.00
   -8   16    8      8.90      0.00
  -10   16   10      7.38      0.00
  -12   16   12      4.65      0.00
  -14   16   14     -0.67      0.00
  -16   16   16      3.50      0.00
  -18   16   18     -7.81      0.00
  -20   16   20     -0.14      0.00
   -1   17    1     -6.84      0.00
   -3   17    3      3.28      0.00
   -5   17    5     -6.36      0.00
   -7   17    7     -2.18      0.00
   -9   17    9     -6.14      0.00
  -11   17   11    -10.07      0.00
  -13   17   13     -2.39      0.00
  -15   17   15     -3.10      0.00
  -17   17   17     -5.02      0.00
  -19   17   19      0.78      0.00
  -21   17   21     -6.06      0.00
    0   18    0     45.49      0.00
   -2   18    2      4.60      0.00
   -4   18    4      5.19      0.00
   -6   18    6     -0.28      0.00
   -8   18    8     -2.25      0.00
  -10   18   10      3.60      0.00
  -12   18   12      2.43      0.00
  -14   18   14     -0.14      0.00
  -16   18   16      0.34      0.00
  -18   18   18     -5.92      0.00
  -20   18   20     -0.41      0.00
   -1   19    1      2.32      0.00
   -3   19    3      8.75      0.00
   -5   19    5     -1.55      0.00
   -7   19    7     -5.52      0.00
   -9   19    9     -7.29      0.00
  -11   19   11      5.96      0.00
  -13   19   13      7.46      0.00
  -15   19   15     -4.01      0.00
  -17   19   17     -4.10      0.00
  -19   19   19      0.82      0.00
  -21   19   21     -3.61      0.00
    0   20    0     52.20      0.00
   -2   20    2      9.09      0.00
   -4   20    4      0.36      0.00
   -6   20    6      8.79      0.00
   -8   20    8     -2.21      0.00
  -10   20   10      1.01      0.00
  -12   20   12      5.76      0.00
  -14   20   14      0.45      0.00
  -16   20   16     -0.87      0.00
  -18   20   18     -3.41      0.00
  -20   20   20      0.06      0.00
   -1   21    1     -7.38      0.00
   -3   21    3     -4.43      0.00
   -5   21    5    -14.00      0.00
   -7   21    7     -7.46      0.00
   -9   21    9    -11.61      0.00
  -11   21   11     -2.98      0.00
  -13   21   13      6.34      0.00
  -15   21   15      0.20      0.00
  -17   21   17     -0.23      0.00
  -19   21   19      1.08      0.00
    0   22    0     18.70      0.00
   -2   22    2     -9.93      0.00
   -4   22    4     -8.18      0.00
   -6   22    6     -3.65      0.00
   -8   22    8    -10.64      0.00
  -10   22   10    -10.25      0.00
  -12   22   12     -3.36      0.00
  -14   22   14     -0.39      0.00
  -16   22   16      3.50      0.00
  -18   22   18     -2.02      0.00
  -20   22   20      1.99      0.00
   -1   23    1    -20.73      0.00
   -3   23    3      0.21      0.00
   -5   23    5    -10.45      0.00
   -7   23    7    -16.59      0.00
   -9   23    9    -16.61      0.00
  -11   23   11    -11.33      0.00
  -13   23   13     -2.67      0.00
  -15   23   15     -1.44      0.00
  -17   23   17     -3.87      0.00
  -19   23   19     -1.79      0.00
    0   24    0     22.12      0.00
   -2   24    2     -5.00      0.00
   -4   24    4     -0.32      0.00
   -6   24    6      1.12      0.00
   -8   24    8     -8.35      0.00
  -10   24   10     -1.04      0.00
  -12   24   12      2.31      0.00
  -14   24   14     -0.79      0.00
  -16   24   16     -1.45      0.00
  -18   24   18     -2.17      0.00
   -1   25    1     -4.64      0.00
   -3   25    3     11.94      0.00
   -5   25    5      3.17      0.00
   -7   25    7     -5.55      0.00
   -9   25    9     -4.76      0.00
  -11   25   11      3.54      0.00
  -13   25   13      3.04      0.00
  -15   25   15      0.29      0.00
  -17   25   17     -4.02      0.00
  -19   25   19     -1.52      0.00
    0   26    0     15.83      0.00
   -2   26    2    -12.53      0.00
   -4   26    4    -16.18      0.00
   -6   26    6     -0.32      0.00
   -8   26    8     -1.17      0.00
  -10   26   10      4.33      0.00
  -12   26   12      6.81      0.00
  -14   26   14      3.00      0.00
  -16   26   16     -0.54      0.00
  -18   26   18     -2.57      0.00
   -1   27    1     -3.76      0.00
   -3   27    3      1.30      0.00
   -5   27    5     -8.35      0.00
   -7   27    7     -3.75      0.00
   -9   27    9     -5.97      0.00
  -11   27   11     -5.52      0.00
  -13   27   13     -2.10      0.00
  -15   27   15      1.11      0.00
  -17   27   17      1.70      0.00
    0   28    0     18.01      0.00
   -2   28    2     -6.34      0.00
   -4   28    4    -17.07      0.00
   -6   28    6     -1.77      0.00
   -8   28    8      0.06      0.00
  -10   28   10     -3.78      0.00
  -12   28   12     -0.29      0.00
  -14   28   14      1.63      0.00
  -16   28   16     -0.21      0.00
   -1   29    1      1.57      0.00
   -3   29    3     14.62      0.00
   -5   29    5      7.96      0.00
   -7   29    7      4.90      0.00
   -9   29    9      0.20      0.00
  -11   29   11     -3.24      0.00
  -13   29   13     -1.17      0.00
  -15   29   15      0.92      0.00
  -17   29   17      5.22      0.00
    0   30    0     22.61      0.00
   -2   30    2      2.48      0.00
   -4   30    4     -2.57      0.00
   -6   30    6      8.10      0.00
   -8   30    8      3.07      0.00
  -10   30   10      0.29      0.00
  -12   30   12      2.24      0.00
  -14   30   14      0.90      0.00
  -16   30   16     -4.67      0.00
   -1   31    1     -2.00      0.00
   -3   31    3     12.41      0.00
   -5   31    5      8.31      0.00
   -7   31    7      3.98      0.00
   -9   31    9      4.65      0.00
  -11   31   11      1.99      0.00
  -13   31   13     -2.92      0.00
  -15   31   15     -4.36      0.00
    0   32    0     12.57      0.00
   -2   32    2     -4.49      0.00
   -4   32    4     -5.08      0.00
   -6   32    6      2.00      0.00
   -8   32    8     -1.00      0.00
  -10   32   10      0.51      0.00
  -12   32   12      1.64      0.00
  -14   32   14     -0.46      0.00
   -1   33    1     -3.33      0.00
   -3   33    3      3.68      0.00
   -5   33    5     -2.93      0.00
   -7   33    7     -1.32      0.00
   -9   33    9      0.51      0.00
  -11   33   11     -1.22      0.00
  -13   33   13     -4.47      0.00
  -15   33   15     -4.82      0.00
    0   34    0     12.29      0.00
   -2   34    2     -1.22      0.00
   -4   34    4     -1.63      0.00
   -6   34    6      1.59      0.00
   -8   34    8     -1.23      0.00
  -10   34   10     -5.00      0.00
  -12   34   12     -4.29      0.00
  -14   34   14     -2.74      0.00
   -1   35    1     -0.69      0.00
   -3   35    3      9.01      0.00
   -5   35    5      3.06      0.00
   -7   35    7      1.39      0.00
   -9   35    9     -1.13      0.00
  -11   35   11      0.40      0.00
  -13   35   13      0.83      0.00
    0   36    0      5.91      0.00
   -2   36    2     -1.34      0.00
   -4   36    4      0.25      0.00
   -6   36    6      6.91      0.00
   -8   36    8      3.86      0.00
  -10   36   10     -2.79      0.00
  -12   36   12     -3.94      0.00
   -1   37    1     -7.35      0.00
   -3   37    3      0.47      0.00
   -5   37    5     -2.60      0.00
   -7   37    7      0.85      0.00
   -9   37    9     -0.39      0.00
  -11   37   11      0.31      0.00
    0   38    0      0.06      0.00
   -2   38    2     -5.68      0.00
   -4   38    4     -3.99      0.00
   -6   38    6      3.69      0.00
   -8   38    8      3.55      0.00
  -10   38   10     -1.42      0.00
   -1   39    1     -1.87      0.00
   -3   39    3      0.98      0.00
   -5   39    5     -4.68      0.00
   -7   39    7      0.99      0.00
   -9   39    9      3.04      0.00
    0   40    0      4.04      0.00
   -2   40    2     -1.81      0.00
   -4   40    4      2.59      0.00
   -6   40    6      4.44      0.00
   -8   40    8      3.58      0.00
   -1   41    1     -4.17      0.00
   -3   41    3      3.82      0.00
   -5   41    5     -0.91      0.00
   -7   41    7     -0.49      0.00
    0   42    0     -0.12      0.00
   -2   42    2     -5.22      0.00
   -4   42    4      1.23      0.00
   -1   43    1     -5.17      0.00
  -22    0   23      1.64      0.00
  -20    0   21      2.17      0.00
  -18    0   19     -7.78      0.00
  -16    0   17      5.60      0.00
  -14    0   15     -0.49      0.00
  -12    0   13      1.36      0.00
  -10    0   11      8.20      0.00
   -8    0    9     -0.59      0.00
   -6    0    7     13.83      0.00
   -4    0    5      3.68      0.00
   -2    0    3    238.72      0.00
    0    0    1    293.54      0.00
   -2    0    1    -47.05      0.00
   -4    0    3    -50.36      0.00
   -6    0    5    107.20      0.00
   -8    0    7     30.08      0.00
  -10    0    9     13.70      0.00
  -12    0   11     26.05      0.00
  -14    0   13     11.73      0.00
  -16    0   15     -0.23      0.00
  -18    0   17     -7.77      0.00
  -20    0   19     10.28      0.00
  -22    0   21      7.54      0.00
  -24    0   23     -0.06      0.00
  -21    1   22      1.93      0.00
  -19    1   20      6.06      0.00
  -17    1   18      5.21      0.00
  -15    1   16      2.88      0.00
  -13    1   14      8.65      0.00
  -11    1   12    -17.44      0.00
   -9    1   10     11.96      0.00
   -7    1    8     17.80      0.00
   -5    1    6     24.86      0.00
   -3    1    4     51.19      0.00
   -1    1    2     91.40      0.00
    1    1    0    -80.55      0.00
   -3    1    2    -75.28      0.00
   -5    1    4     52.77      0.00
   -7    1    6     43.93      0.00
   -9    1    8     36.56      0.00
  -11    1   10     -7.98      0.00
  -13    1   12      0.20      0.00
  -15    1   14      2.88      0.00
  -17    1   16     17.13      0.00
  -19    1   18      8.56      0.00
  -21    1   20      2.51      0.00
  -23    1   22     13.30      0.00
  -22    2   23      1.95      0.00
  -20    2   21      5.14      0.00
  -18    2   19     -5.17      0.00
  -16    2   17      2.56      0.00
  -14    2   15      0.21      0.00
  -12    2   13     10.01      0.00
  -10    2   11     15.89      0.00
   -8    2    9    -28.86      0.00
   -6    2    7    -17.12      0.00
   -4    2    5     16.22      0.00
   -2    2    3    195.96      0.00
    0    2    1    219.42      0.00
   -2    2    1     32.88      0.00
   -4    2    3    -67.10      0.00
   -6    2    5     31.67      0.00
   -8    2    7     20.99      0.00
  -10    2    9     17.38      0.00
  -12    2   11     16.32      0.00
  -14    2   13      9.85      0.00
  -16    2   15     -3.73      0.00
  -18    2   17     -2.55      0.00
  -20    2   19     14.06      0.00
  -22    2   21      4.76      0.00
  -24    2   23      0.84      0.00
  -21    3   22      1.96      0.00
  -19    3   20     -1.66      0.00
  -17    3   18     -9.24      0.00
  -15    3   16    -14.07      0.00
  -13    3   14      3.29      0.00
  -11    3   12     -9.91      0.00
   -9    3   10    -18.34      0.00
   -7    3    8    -27.98      0.00
   -5    3    6     17.90      0.00
   -3    3    4      9.62      0.00
   -1    3    2     95.51      0.00
    1    3    0    164.91      0.00
   -3    3    2     75.33      0.00
   -5    3    4     -0.41      0.00
   -7    3    6    -22.82      0.00
   -9    3    8     24.96      0.00
  -11    3   10     -6.34      0.00
  -13    3   12     -8.56      0.00
  -15    3   14    -11.86      0.00
  -17    3   16      6.97      0.00
  -19    3   18     -0.85      0.00
  -21    3   20    -10.73      0.00
  -23    3   22      6.34      0.00
  -22    4   23     -1.45      0.00
  -20    4   21      1.52      0.00
  -18    4   19     -6.87      0.00
  -16    4   17     -5.57      0.00
  -14    4   15    -10.15      0.00
  -12    4   13     -0.12      0.00
  -10    4   11     15.32      0.00
   -8    4    9    -33.64      0.00
   -6    4    7    -51.15      0.00
   -4    4    5    -48.40      0.00
   -2    4    3     59.49      0.00
    0    4    1     -4.65      0.00
   -2    4    1    -53.17      0.00
   -4    4    3   -154.60      0.00
   -6    4    5    -59.82      0.00
   -8    4    7     -5.77      0.00
  -10    4    9      4.40      0.00
  -12    4   11    -10.22      0.00
  -14    4   13     -4.94      0.00
  -16    4   15     -9.90      0.00
  -18    4   17     -7.52      0.00
  -20    4   19      9.65      0.00
  -22    4   21     -0.63      0.00
  -24    4   23     -1.60      0.00
  -21    5   22     -2.03      0.00
  -19    5   20     -5.05      0.00
  -17    5   18     -8.29      0.00
  -15    5   16    -19.87      0.00
  -13    5   14      3.47      0.00
  -11    5   12     -1.04      0.00
   -9    5   10    -12.29      0.00
   -7    5    8    -42.01      0.00
   -5    5    6    -35.40      0.00
   -3    5    4    -86.71      0.00
   -1    5    2     -7.31      0.00
    1    5    0      7.59      0.00
   -3    5    2    -73.28      0.00
   -5    5    4    -14.82      0.00
   -7    5    6    -39.47      0.00
   -9    5    8    -19.16      0.00
  -11    5   10    -19.38      0.00
  -13    5   12     -4.71      0.00
  -15    5   14    -14.68      0.00
  -17    5   16      1.66      0.00
  -19    5   18     -9.61      0.00
  -21    5   20    -11.16      0.00
  -23    5   22      5.76      0.00
  -22    6   23      0.38      0.00
  -20    6   21     -0.44      0.00
  -18    6   19     -8.50      0.00
  -16    6   17      0.77      0.00
  -14    6   15     -2.75      0.00
  -12    6   13     -6.94      0.00
  -10    6   11     18.72      0.00
   -8    6    9     20.99      0.00
   -6    6    7      0.82      0.00
   -4    6    5    -53.92      0.00
   -2    6    3     46.49      0.00
    0    6    1    -39.75      0.00
   -2    6    1   -109.00      0.00
   -4    6    3   -123.08      0.00
   -6    6    5    -17.04      0.00
   -8    6    7      9.26      0.00
  -10    6    9      7.93      0.00
  -12    6   11    -13.75      0.00
  -14    6   13     -6.60      0.00
  -16    6   15     -1.96      0.00
  -18    6   17     -9.89      0.00
  -20    6   19      6.66      0.00
  -22    6   21     -0.25      0.00
  -24    6   23     -1.74      0.00
  -21    7   22     -1.43      0.00
  -19    7   20      1.21      0.00
  -17    7   18     -0.49      0.00
  -15    7   16     -9.82      0.00
  -13    7   14     19.10      0.00
  -11    7   12     13.43      0.00
   -9    7   10      6.28      0.00
   -7    7    8    -12.96      0.00
   -5    7    6     18.90      0.00
   -3    7    4      4.20      0.00
   -1    7    2     29.41      0.00
    1    7    0    -23.57      0.00
   -3    7    2    -26.57      0.00
   -5    7    4     75.54      0.00
   -7    7    6     14.42      0.00
   -9    7    8     -3.81      0.00
  -11    7   10     -7.79      0.00
  -13    7   12      9.23      0.00
  -15    7   14     -9.18      0.00
  -17    7   16      8.06      0.00
  -19    7   18      1.18      0.00
  -21    7   20     -1.97      0.00
  -23    7   22      5.47      0.00
  -22    8   23      8.49      0.00
  -20    8   21      0.74      0.00
  -18    8   19    -13.39      0.00
  -16    8   17      3.68      0.00
  -14    8   15      4.51      0.00
  -12    8   13     -0.82      0.00
  -10    8   11     20.77      0.00
   -8    8    9     22.45      0.00
   -6    8    7     21.05      0.00
   -4    8    5    -14.04      0.00
   -2    8    3     95.68      0.00
    0    8    1     86.51      0.00
   -2    8    1      3.61      0.00
   -4    8    3    -52.11      0.00
   -6    8    5     27.03      0.00
   -8    8    7     26.85      0.00
  -10    8    9     11.78      0.00
  -12    8   11    -11.61      0.00
  -14    8   13      0.41      0.00
  -16    8   15      1.98      0.00
  -18    8   17     -8.14      0.00
  -20    8   19      6.66      0.00
  -22    8   21      0.48      0.00
  -21    9   22      1.43      0.00
  -19    9   20      3.43      0.00
  -17    9   18     -8.43      0.00
  -15    9   16    -19.60      0.00
  -13    9   14     13.53      0.00
  -11    9   12     11.74      0.00
   -9    9   10     -7.07      0.00
   -7    9    8    -17.74      0.00
   -5    9    6     14.94      0.00
   -3    9    4      4.75      0.00
   -1    9    2    -11.78      0.00
    1    9    0      3.15      0.00
   -3    9    2     29.86      0.00
   -5    9    4     24.02      0.00
   -7    9    6    -22.36      0.00
   -9    9    8     -4.20      0.00
  -11    9   10     -5.15      0.00
  -13    9   12     -0.60      0.00
  -15    9   14    -18.20      0.00
  -17    9   16      6.59      0.00
  -19    9   18      3.87      0.00
  -21    9   20     -4.76      0.00
  -23    9   22      2.12      0.00
  -22   10   23      8.86      0.00
  -20   10   21     -0.80      0.00
  -18   10   19    -15.58      0.00
  -16   10   17     -4.29      0.00
  -14   10   15     -5.16      0.00
  -12   10   13     -4.23      0.00
  -10   10   11     20.12      0.00
   -8   10    9      7.04      0.00
   -6   10    7     -0.47      0.00
   -4   10    5    -52.37      0.00
   -2   10    3     27.70      0.00
    0   10    1     50.08      0.00
   -2   10    1    -32.92      0.00
   -4   10    3   -103.99      0.00
   -6   10    5      7.02      0.00
   -8   10    7     13.84      0.00
  -10   10    9      2.54      0.00
  -12   10   11    -16.08      0.00
  -14   10   13      2.21      0.00
  -16   10   15     -2.86      0.00
  -18   10   17    -13.87      0.00
  -20   10   19     -0.42      0.00
  -22   10   21      0.91      0.00
  -21   11   22      3.08      0.00
  -19   11   20      6.47      0.00
  -17   11   18     -9.41      0.00
  -15   11   16    -22.45      0.00
  -13   11   14      8.50      0.00
  -11   11   12     14.29      0.00
   -9   11   10      4.20      0.00
   -7   11    8     -1.54      0.00
   -5   11    6     15.00      0.00
   -3   11    4      1.51      0.00
   -1   11    2    -32.15      0.00
    1   11    0     -7.17      0.00
   -3   11    2     27.61      0.00
   -5   11    4     10.55      0.00
   -7   11    6    -19.68      0.00
   -9   11    8      4.24      0.00
  -11   11   10      8.60      0.00
  -13   11   12      8.13      0.00
  -15   11   14    -15.39      0.00
  -17   11   16      4.30      0.00
  -19   11   18     -0.57      0.00
  -21   11   20     -7.37      0.00
  -23   11   22      4.97      0.00
  -20   12   21     -0.87      0.00
  -18   12   19    -10.94      0.00
  -16   12   17      2.48      0.00
  -14   12   15      3.10      0.00
  -12   12   13     -5.84      0.00
  -10   12   11     19.48      0.00
   -8   12    9     22.81      0.00
   -6   12    7     25.56      0.00
   -4   12    5    -25.04      0.00
   -2   12    3     20.28      0.00
    0   12    1     12.84      0.00
   -2   12    1    -38.21      0.00
   -4   12    3    -69.24      0.00
   -6   12    5     23.04      0.00
   -8   12    7     18.12      0.00
  -10   12    9      7.36      0.00
  -12   12   11     -8.07      0.00
  -14   12   13      9.63      0.00
  -16   12   15      1.02      0.00
  -18   12   17    -10.84      0.00
  -20   12   19      1.47      0.00
  -22   12   21      1.95      0.00
  -21   13   22      2.15      0.00
  -19   13   20      5.65      0.00
  -17   13   18     -3.16      0.00
  -15   13   16    -15.60      0.00
  -13   13   14      4.31      0.00
  -11   13   12      4.32      0.00
   -9   13   10      3.99      0.00
   -7   13    8      1.06      0.00
   -5   13    6     22.85      0.00
   -3   13    4     22.27      0.00
   -1   13    2    -16.54      0.00
    1   13    0    -20.65      0.00
   -3   13    2     19.14      0.00
   -5   13    4     37.57      0.00
   -7   13    6      4.18      0.00
   -9   13    8      2.49      0.00
  -11   13   10      2.96      0.00
  -13   13   12      4.16      0.00
  -15   13   14    -13.95      0.00
  -17   13   16      4.69      0.00
  -19   13   18      1.75      0.00
  -21   13   20     -4.72      0.00
  -23   13   22      2.75      0.00
  -20   14   21      1.43      0.00
  -18   14   19    -12.61      0.00
  -16   14   17      0.21      0.00
  -14   14   15     -3.64      0.00
  -12   14   13    -18.15      0.00
  -10   14   11     -0.50      0.00
   -8   14    9      5.72      0.00
   -6   14    7     -3.06      0.00
   -4   14    5    -27.69      0.00
   -2   14    3     31.66      0.00
    0   14    1     16.25      0.00
   -2   14    1    -28.24      0.00
   -4   14    3    -34.41      0.00
   -6   14    5     25.55      0.00
   -8   14    7      5.15      0.00
  -10   14    9    -12.80      0.00
  -12   14   11    -18.49      0.00
  -14   14   13     -1.25      0.00
  -16   14   15     -3.56      0.00
  -18   14   17    -11.71      0.00
  -20   14   19      2.45      0.00
  -22   14   21     -0.76      0.00
  -21   15   22      1.68      0.00
  -19   15   20      3.39      0.00
  -17   15   18     -3.31      0.00
  -15   15   16    -19.63      0.00
  -13   15   14     -5.72      0.00
  -11   15   12     -6.01      0.00
   -9   15   10     -2.61      0.00
   -7   15    8    -11.11      0.00
   -5   15    6     -7.64      0.00
   -3   15    4    -16.58      0.00
   -1   15    2    -33.63      0.00
    1   15    0    -28.90      0.00
   -3   15    2    -14.35      0.00
   -5   15    4     -6.77      0.00
   -7   15    6    -12.38      0.00
   -9   15    8     -5.03      0.00
  -11   15   10     -7.74      0.00
  -13   15   12    -10.72      0.00
  -15   15   14    -18.21      0.00
  -17   15   16      4.52      0.00
  -19   15   18      2.04      0.00
  -21   15   20     -5.95      0.00
  -20   16   21      5.46      0.00
  -18   16   19     -7.37      0.00
  -16   16   17     -1.26      0.00
  -14   16   15     -6.31      0.00
  -12   16   13     -9.97      0.00
  -10   16   11      7.92      0.00
   -8   16    9      0.54      0.00
   -6   16    7    -18.70      0.00
   -4   16    5    -33.13      0.00
   -2   16    3     21.64      0.00
    0   16    1     25.63      0.00
   -2   16    1    -22.56      0.00
   -4   16    3    -27.40      0.00
   -6   16    5     20.16      0.00
   -8   16    7      8.34      0.00
  -10   16    9    -13.38      0.00
  -12   16   11    -13.75      0.00
  -14   16   13      2.92      0.00
  -16   16   15     -4.01      0.00
  -18   16   17    -10.95      0.00
  -20   16   19      2.99      0.00
  -22   16   21      0.78      0.00
  -19   17   20      3.06      0.00
  -17   17   18     -2.36      0.00
  -15   17   16    -16.03      0.00
  -13   17   14     -4.15      0.00
  -11   17   12     -5.49      0.00
   -9   17   10     -3.55      0.00
   -7   17    8      1.01      0.00
   -5   17    6     10.32      0.00
   -3   17    4      0.53      0.00
   -1   17    2    -10.64      0.00
    1   17    0     14.66      0.00
   -3   17    2     27.91      0.00
   -5   17    4      4.21      0.00
   -7   17    6     -0.37      0.00
   -9   17    8      9.74      0.00
  -11   17   10      2.37      0.00
  -13   17   12     -5.51      0.00
  -15   17   14    -16.70      0.00
  -17   17   16      4.37      0.00
  -19   17   18     -0.03      0.00
  -21   17   20     -6.27      0.00
  -20   18   21      4.67      0.00
  -18   18   19     -1.83      0.00
  -16   18   17      3.00      0.00
  -14   18   15      3.22      0.00
  -12   18   13     -3.47      0.00
  -10   18   11      2.86      0.00
   -8   18    9     -9.05      0.00
   -6   18    7      3.80      0.00
   -4   18    5     -8.44      0.00
   -2   18    3      7.47      0.00
    0   18    1     16.76      0.00
   -2   18    1     -9.30      0.00
   -4   18    3      0.81      0.00
   -6   18    5     24.71      0.00
   -8   18    7      1.03      0.00
  -10   18    9     -5.67      0.00
  -12   18   11     -9.11      0.00
  -14   18   13      5.46      0.00
  -16   18   15     -2.15      0.00
  -18   18   17     -4.23      0.00
  -20   18   19      6.09      0.00
  -22   18   21      1.61      0.00
  -19   19   20      6.00      0.00
  -17   19   18      1.56      0.00
  -15   19   16     -9.83      0.00
  -13   19   14      0.81      0.00
  -11   19   12    -13.34      0.00
   -9   19   10    -18.72      0.00
   -7   19    8      2.38      0.00
   -5   19    6      7.17      0.00
   -3   19    4      2.34      0.00
   -1   19    2    -17.40      0.00
    1   19    0     -3.63      0.00
   -3   19    2     21.89      0.00
   -5   19    4     11.22      0.00
   -7   19    6     -2.88      0.00
   -9   19    8     -4.63      0.00
  -11   19   10     -3.14      0.00
  -13   19   12     -7.44      0.00
  -15   19   14    -14.48      0.00
  -17   19   16     10.86      0.00
  -19   19   18      2.37      0.00
  -21   19   20     -2.44      0.00
  -20   20   21      2.68      0.00
  -18   20   19     -3.64      0.00
  -16   20   17      2.64      0.00
  -14   20   15      0.38      0.00
  -12   20   13    -16.16      0.00
  -10   20   11     -9.67      0.00
   -8   20    9    -17.54      0.00
   -6   20    7     -6.37      0.00
   -4   20    5    -13.33      0.00
   -2   20    3      1.74      0.00
    0   20    1      7.69      0.00
   -2   20    1    -19.47      0.00
   -4   20    3     -1.44      0.00
   -6   20    5     17.30      0.00
   -8   20    7    -14.18      0.00
  -10   20    9     -9.95      0.00
  -12   20   11    -18.67      0.00
  -14   20   13     -6.92      0.00
  -16   20   15     -5.42      0.00
  -18   20   17     -6.11      0.00
  -20   20   19      2.16      0.00
  -19   21   20      3.68      0.00
  -17   21   18      2.53      0.00
  -15   21   16    -10.36      0.00
  -13   21   14      2.66      0.00
  -11   21   12     -8.87      0.00
   -9   21   10     -8.18      0.00
   -7   21    8      6.40      0.00
   -5   21    6     -1.41      0.00
   -3   21    4      5.47      0.00
   -1   21    2     -5.35      0.00
    1   21    0      2.88      0.00
   -3   21    2     15.38      0.00
   -5   21    4      4.03      0.00
   -7   21    6      4.31      0.00
   -9   21    8     -4.72      0.00
  -11   21   10     -4.41      0.00
  -13   21   12     -1.22      0.00
  -15   21   14     -8.92      0.00
  -17   21   16      7.98      0.00
  -19   21   18     -0.47      0.00
  -21   21   20     -1.64      0.00
  -18   22   19     -5.65      0.00
  -16   22   17      5.85      0.00
  -14   22   15      2.41      0.00
  -12   22   13     -7.95      0.00
  -10   22   11     11.82      0.00
   -8   22    9      3.27      0.00
   -6   22    7     -4.12      0.00
   -4   22    5     -5.10      0.00
   -2   22    3     12.32      0.00
    0   22    1     28.75      0.00
   -2   22    1      1.07      0.00
   -4   22    3      4.10      0.00
   -6   22    5     13.01      0.00
   -8   22    7      3.70      0.00
  -10   22    9      9.71      0.00
  -12   22   11     -4.85      0.00
  -14   22   13      0.32      0.00
  -16   22   15     -1.95      0.00
  -18   22   17     -7.41      0.00
  -20   22   19      0.81      0.00
  -19   23   20     -0.46      0.00
  -17   23   18     -0.84      0.00
  -15   23   16     -7.81      0.00
  -13   23   14      8.39      0.00
  -11   23   12      1.90      0.00
   -9   23   10     -5.47      0.00
   -7   23    8      4.94      0.00
   -5   23    6      7.26      0.00
   -3   23    4      5.28      0.00
   -1   23    2    -10.22      0.00
    1   23    0     -1.36      0.00
   -3   23    2     12.00      0.00
   -5   23    4     -2.01      0.00
   -7   23    6      2.66      0.00
   -9   23    8     -2.01      0.00
  -11   23   10      0.39      0.00
  -13   23   12      5.57      0.00
  -15   23   14     -8.13      0.00
  -17   23   16      1.84      0.00
  -19   23   18     -1.37      0.00
  -18   24   19     -5.09      0.00
  -16   24   17      2.66      0.00
  -14   24   15      1.65      0.00
  -12   24   13     -4.38      0.00
  -10   24   11      5.89      0.00
   -8   24    9     -3.40      0.00
   -6   24    7     -0.78      0.00
   -4   24    5    -10.97      0.00
   -2   24    3     -7.51      0.00
    0   24    1     16.81      0.00
   -2   24    1     -0.14      0.00
   -4   24    3      2.33      0.00
   -6   24    5     -2.58      0.00
   -8   24    7     -3.29      0.00
  -10   24    9     12.83      0.00
  -12   24   11     -4.78      0.00
  -14   24   13     -4.34      0.00
  -16   24   15     -5.32      0.00
  -18   24   17     -2.33      0.00
  -20   24   19      1.22      0.00
  -17   25   18     -1.59      0.00
  -15   25   16     -4.20      0.00
  -13   25   14      6.61      0.00
  -11   25   12     -2.75      0.00
   -9   25   10    -15.65      0.00
   -7   25    8     -1.33      0.00
   -5   25    6      5.98      0.00
   -3   25    4      3.07      0.00
   -1   25    2    -13.10      0.00
    1   25    0    -12.79      0.00
   -3   25    2     -0.16      0.00
   -5   25    4     -2.89      0.00
   -7   25    6     -3.11      0.00
   -9   25    8     -8.94      0.00
  -11   25   10     -3.77      0.00
  -13   25   12      0.54      0.00
  -15   25   14     -6.92      0.00
  -17   25   16      3.28      0.00
  -19   25   18     -1.50      0.00
  -18   26   19     -0.97      0.00
  -16   26   17      4.62      0.00
  -14   26   15      0.47      0.00
  -12   26   13     -7.18      0.00
  -10   26   11      1.88      0.00
   -8   26    9      0.92      0.00
   -6   26    7      1.69      0.00
   -4   26    5     -8.66      0.00
   -2   26    3     -2.59      0.00
    0   26    1      5.98      0.00
   -2   26    1    -10.57      0.00
   -4   26    3      0.69      0.00
   -6   26    5      7.19      0.00
   -8   26    7     -0.51      0.00
  -10   26    9      7.00      0.00
  -12   26   11     -5.56      0.00
  -14   26   13     -1.62      0.00
  -16   26   15     -2.64      0.00
  -18   26   17     -1.41      0.00
  -17   27   18      4.52      0.00
  -15   27   16     -2.26      0.00
  -13   27   14      1.58      0.00
  -11   27   12     -3.99      0.00
   -9   27   10      0.77      0.00
   -7   27    8      5.42      0.00
   -5   27    6      0.24      0.00
   -3   27    4      5.91      0.00
   -1   27    2     -4.36      0.00
    1   27    0     -6.68      0.00
   -3   27    2     -3.74      0.00
   -5   27    4      1.20      0.00
   -7   27    6     12.74      0.00
   -9   27    8      1.18      0.00
  -11   27   10     -2.95      0.00
  -13   27   12      4.28      0.00
  -15   27   14      2.88      0.00
  -17   27   16      4.43      0.00
  -19   27   18     -5.92      0.00
  -16   28   17      4.25      0.00
  -14   28   15     -0.66      0.00
  -12   28   13     -2.60      0.00
  -10   28   11      9.65      0.00
   -8   28    9     10.52      0.00
   -6   28    7      4.25      0.00
   -4   28    5     -4.27      0.00
   -2   28    3      0.96      0.00
    0   28    1      0.52      0.00
   -2   28    1    -10.58      0.00
   -4   28    3     -0.05      0.00
   -6   28    5     11.07      0.00
   -8   28    7      5.64      0.00
  -10   28    9      7.57      0.00
  -12   28   11      2.96      0.00
  -14   28   13      4.44      0.00
  -16   28   15      2.75      0.00
  -18   28   17     -1.73      0.00
  -15   29   16     -1.01      0.00
  -13   29   14      5.82      0.00
  -11   29   12      1.20      0.00
   -9   29   10      9.54      0.00
   -7   29    8      6.69      0.00
   -5   29    6     -4.34      0.00
   -3   29    4     -3.19      0.00
   -1   29    2     -8.10      0.00
    1   29    0     -8.72      0.00
   -3   29    2    -10.97      0.00
   -5   29    4     -5.73      0.00
   -7   29    6      9.41      0.00
   -9   29    8      5.44      0.00
  -11   29   10      1.71      0.00
  -13   29   12      8.10      0.00
  -15   29   14      5.30      0.00
  -17   29   16      6.14      0.00
  -16   30   17      3.17      0.00
  -14   30   15      0.00      0.00
  -12   30   13     -0.91      0.00
  -10   30   11      2.86      0.00
   -8   30    9     -0.09      0.00
   -6   30    7      3.03      0.00
   -4   30    5     -7.93      0.00
   -2   30    3     -8.84      0.00
    0   30    1     -4.42      0.00
   -2   30    1     -8.43      0.00
   -4   30    3     -1.94      0.00
   -6   30    5     -1.82      0.00
   -8   30    7     -5.38      0.00
  -10   30    9      1.52      0.00
  -12   30   11     -2.41      0.00
  -14   30   13     -2.68      0.00
  -16   30   15      1.38      0.00
  -15   31   16     -1.84      0.00
  -13   31   14      4.21      0.00
  -11   31   12     -2.43      0.00
   -9   31   10      0.04      0.00
   -7   31    8      2.13      0.00
   -5   31    6     -0.79      0.00
   -3   31    4     -1.58      0.00
   -1   31    2     -2.28      0.00
    1   31    0      0.01      0.00
   -3   31    2     -1.64      0.00
   -5   31    4     -2.80      0.00
   -7   31    6      3.62      0.00
   -9   31    8      2.05      0.00
  -11   31   10     -2.93      0.00
  -13   31   12     -0.59      0.00
  -15   31   14     -0.88      0.00
  -17   31   16      3.00      0.00
  -14   32   15      3.13      0.00
  -12   32   13     -1.02      0.00
  -10   32   11      1.34      0.00
   -8   32    9      1.08      0.00
   -6   32    7      4.95      0.00
   -4   32    5     -1.19      0.00
   -2   32    3     -0.84      0.00
    0   32    1      1.94      0.00
   -2   32    1     -4.28      0.00
   -4   32    3      3.65      0.00
   -6   32    5      4.08      0.00
   -8   32    7     -0.14      0.00
  -10   32    9      0.42      0.00
  -12   32   11     -4.53      0.00
  -14   32   13      0.16      0.00
  -16   32   15      5.19      0.00
  -13   33   14      1.55      0.00
  -11   33   12     -2.90      0.00
   -9   33   10      1.15      0.00
   -7   33    8      4.92      0.00
   -5   33    6      3.85      0.00
   -3   33    4      0.73      0.00
   -1   33    2     -3.18      0.00
    1   33    0     -1.01      0.00
   -3   33    2      1.10      0.00
   -5   33    4      0.43      0.00
   -7   33    6      7.42      0.00
   -9   33    8      1.24      0.00
  -11   33   10     -4.05      0.00
  -13   33   12     -0.68      0.00
  -15   33   14      2.24      0.00
  -12   34   13     -2.16      0.00
  -10   34   11     -1.34      0.00
   -8   34    9      2.19      0.00
   -6   34    7      0.63      0.00
   -4   34    5     -5.36      0.00
   -2   34    3     -7.41      0.00
    0   34    1     -7.23      0.00
   -2   34    1    -11.19      0.00
   -4   34    3     -5.66      0.00
   -6   34    5     -2.60      0.00
   -8   34    7     -0.83      0.00
  -10   34    9     -0.81      0.00
  -12   34   11     -3.83      0.00
  -14   34   13     -0.53      0.00
  -13   35   14     -0.81      0.00
  -11   35   12     -3.87      0.00
   -9   35   10      0.10      0.00
   -7   35    8      1.78      0.00
   -5   35    6     -0.57      0.00
   -3   35    4     -2.96      0.00
   -1   35    2     -8.32      0.00
    1   35    0     -6.12      0.00
   -3   35    2     -2.95      0.00
   -5   35    4     -2.15      0.00
   -7   35    6      2.06      0.00
   -9   35    8     -3.15      0.00
  -11   35   10     -1.69      0.00
  -13   35   12      3.01      0.00
  -12   36   13      2.83      0.00
  -10   36   11      2.18      0.00
   -8   36    9      2.16      0.00
   -6   36    7      1.29      0.00
   -4   36    5     -2.25      0.00
   -2   36    3     -2.32      0.00
    0   36    1     -3.92      0.00
   -2   36    1     -3.08      0.00
   -4   36    3     -4.78      0.00
   -6   36    5     -3.56      0.00
   -8   36    7     -0.97      0.00
  -10   36    9      2.17      0.00
  -12   36   11      0.70      0.00
  -11   37   12     -5.04      0.00
   -9   37   10      2.62      0.00
   -7   37    8      3.85      0.00
   -5   37    6      0.41      0.00
   -3   37    4      1.68      0.00
   -1   37    2     -1.09      0.00
    1   37    0      3.34      0.00
   -3   37    2      4.09      0.00
   -5   37    4      4.13      0.00
   -7   37    6      4.98      0.00
   -9   37    8      0.95      0.00
  -11   37   10     -0.71      0.00
  -10   38   11      1.80      0.00
   -8   38    9      2.15      0.00
   -6   38    7      2.66      0.00
   -4   38    5      2.33      0.00
   -2   38    3      6.90      0.00
    0   38    1      1.50      0.00
   -2   38    1     -2.40      0.00
   -4   38    3     -1.35      0.00
   -6   38    5      6.58      0.00
   -8   38    7      2.40      0.00
  -10   38    9     -2.11      0.00
   -9   39   10      4.14      0.00
   -7   39    8      6.70      0.00
   -5   39    6      2.27      0.00
   -3   39    4     -0.23      0.00
   -1   39    2     -4.93      0.00
    1   39    0     -0.56      0.00
   -3   39    2      1.47      0.00
   -5   39    4      1.29      0.00
   -7   39    6      4.87      0.00
   -9   39    8      2.78      0.00
   -8   40    9     -0.15      0.00
   -6   40    7      5.78      0.00
   -4   40    5      1.87      0.00
   -2   40    3     -1.35      0.00
    0   40    1     -4.08      0.00
   -2   40    1     -6.03      0.00
   -4   40    3     -2.81      0.00
   -6   40    5      2.30      0.00
   -8   40    7     -1.71      0.00
   -5   41    6      1.55      0.00
   -3   41    4     -1.80      0.00
   -1   41    2     -7.82      0.00
    1   41    0     -2.91      0.00
   -3   41    2      2.58      0.00
   -5   41    4     -1.44      0.00
   -7   41    6      0.09      0.00
   -4   42    5      0.76      0.00
   -2   42    3      0.71      0.00
    0   42    1      3.10      0.00
   -2   42    1      1.57      0.00
   -4   42    3     -0.13      0.00
   -6   42    5     -0.60      0.00
    1   43    0      1.69      0.00
  -22    0   24      6.24      0.00
  -20    0   22     -0.89      0.00
  -18    0   20     -0.21      0.00
  -16    0   18     11.11      0.00
  -14    0   16     -4.07      0.00
  -12    0   14     -2.07      0.00
  -10    0   12      9.12      0.00
   -8    0   10      9.40      0.00
   -6    0    8    -12.49      0.00
   -4    0    6     -7.44      0.00
   -2    0    4    130.25      0.00
    0    0    2    495.11      0.00
    2    0    0    146.28      0.00
   -4    0    2    198.97      0.00
   -6    0    4    153.01      0.00
   -8    0    6     28.98      0.00
  -10    0    8     18.43      0.00
  -12    0   10     25.75      0.00
  -14    0   12      8.07      0.00
  -16    0   14     -7.23      0.00
  -18    0   16     -2.86      0.00
  -20    0   18      0.95      0.00
  -22    0   20     -2.24      0.00
  -24    0   22     -1.82      0.00
  -21    1   23      0.04      0.00
  -19    1   21     10.72      0.00
  -17    1   19     -7.01      0.00
  -15    1   17      2.96      0.00
  -13    1   15     11.67      0.00
  -11    1   13     13.38      0.00
   -9    1   11     -8.05      0.00
   -7    1    9    -20.81      0.00
   -5    1    7     -4.39      0.00
   -3    1    5    235.90      0.00
   -1    1    3    178.39      0.00
    1    1    1    -66.88      0.00
   -3    1    1    175.97      0.00
   -5    1    3     66.02      0.00
   -7    1    5     29.36      0.00
   -9    1    7      8.08      0.00
  -11    1    9     28.00      0.00
  -13    1   11     19.79      0.00
  -15    1   13     15.31      0.00
  -17    1   15      0.67      0.00
  -19    1   17      4.43      0.00
  -21    1   19      1.22      0.00
  -23    1   21      6.78      0.00
  -22    2   24      1.66      0.00
  -20    2   22     -4.86      0.00
  -18    2   20     -5.58      0.00
  -16    2   18      7.48      0.00
  -14    2   16      1.95      0.00
  -12    2   14      0.30      0.00
  -10    2   12     -5.51      0.00
   -8    2   10    -16.25      0.00
   -6    2    8    -17.52      0.00
   -4    2    6    -27.09      0.00
   -2    2    4     -4.88      0.00
    0    2    2    265.91      0.00
    2    2    0    -56.48      0.00
   -4    2    2    -20.07      0.00
   -6    2    4     55.09      0.00
   -8    2    6     26.51      0.00
  -10    2    8     -2.07      0.00
  -12    2   10     -6.54      0.00
  -14    2   12     -1.63      0.00
  -16    2   14     -6.91      0.00
  -18    2   16     -0.06      0.00
  -20    2   18     -2.98      0.00
  -22    2   20     -4.69      0.00
  -24    2   22     -1.73      0.00
  -21    3   23     -0.28      0.00
  -19    3   21      2.09      0.00
  -17    3   19    -18.28      0.00
  -15    3   17     -0.74      0.00
  -13    3   15     11.05      0.00
  -11    3   13      0.47      0.00
   -9    3   11    -43.86      0.00
   -7    3    9    -16.10      0.00
   -5    3    7     19.30      0.00
   -3    3    5    100.15      0.00
   -1    3    3     35.79      0.00
    1    3    1    -36.67      0.00
   -3    3    1     25.22      0.00
   -5    3    3    -63.94      0.00
   -7    3    5     21.22      0.00
   -9    3    7      5.08      0.00
  -11    3    9      3.46      0.00
  -13    3   11      1.26      0.00
  -15    3   13      7.31      0.00
  -17    3   15      0.23      0.00
  -19    3   17     -4.46      0.00
  -21    3   19    -12.45      0.00
  -23    3   21      0.72      0.00
  -22    4   24     -1.40      0.00
  -20    4   22     -4.87      0.00
  -18    4   20     -1.97      0.00
  -16    4   18      6.40      0.00
  -14    4   16      6.49      0.00
  -12    4   14      7.83      0.00
  -10    4   12     -5.90      0.00
   -8    4   10    -34.47      0.00
   -6    4    8    -28.19      0.00
   -4    4    6      3.01      0.00
   -2    4    4     -4.13      0.00
    0    4    2    102.81      0.00
    2    4    0   -147.82      0.00
   -4    4    2    -62.44      0.00
   -6    4    4     17.36      0.00
   -8    4    6      7.82      0.00
  -10    4    8    -17.33      0.00
  -12    4   10    -16.80      0.00
  -14    4   12      2.05      0.00
  -16    4   14     -0.19      0.00
  -18    4   16     -0.22      0.00
  -20    4   18     -2.44      0.00
  -22    4   20     -3.70      0.00
  -24    4   22     -2.16      0.00
  -21    5   23      2.05      0.00
  -19    5   21      2.43      0.00
  -17    5   19    -11.58      0.00
  -15    5   17      3.47      0.00
  -13    5   15     15.73      0.00
  -11    5   13      6.50      0.00
   -9    5   11    -20.23      0.00
   -7    5    9     -8.44      0.00
   -5    5    7    -33.28      0.00
   -3    5    5     21.97      0.00
   -1    5    3     90.97      0.00
    1    5    1     83.89      0.00
   -3    5    1     19.74      0.00
   -5    5    3    -84.75      0.00
   -7    5    5    -10.20      0.00
   -9    5    7    -18.15      0.00
  -11    5    9    -13.22      0.00
  -13    5   11     -3.93      0.00
  -15    5   13     11.81      0.00
  -17    5   15      0.95      0.00
  -19    5   17     -7.18      0.00
  -21    5   19     -9.41      0.00
  -23    5   21      4.83      0.00
  -20    6   22      1.17      0.00
  -18    6   20      4.25      0.00
  -16    6   18      3.22      0.00
  -14    6   16     -1.98      0.00
  -12    6   14      8.34      0.00
  -10    6   12      5.55      0.00
   -8    6   10    -33.05      0.00
   -6    6    8    -48.58      0.00
   -4    6    6      8.84      0.00
   -2    6    4     39.57      0.00
    0    6    2     58.66      0.00
    2    6    0   -102.46      0.00
   -4    6    2     53.57      0.00
   -6    6    4     -2.80      0.00
   -8    6    6    -63.75      0.00
  -10    6    8    -40.56      0.00
  -12    6   10     -2.45      0.00
  -14    6   12      6.45      0.00
  -16    6   14     -3.25      0.00
  -18    6   16     -6.12      0.00
  -20    6   18      1.80      0.00
  -22    6   20     -4.52      0.00
  -24    6   22     -3.86      0.00
  -21    7   23      0.87      0.00
  -19    7   21     -1.44      0.00
  -17    7   19    -10.47      0.00
  -15    7   17      4.33      0.00
  -13    7   15     14.03      0.00
  -11    7   13      3.52      0.00
   -9    7   11      0.85      0.00
   -7    7    9     -0.54      0.00
   -5    7    7    -68.85      0.00
   -3    7    5    -41.28      0.00
   -1    7    3     35.46      0.00
    1    7    1     29.77      0.00
   -3    7    1    -31.39      0.00
   -5    7    3   -149.81      0.00
   -7    7    5    -65.96      0.00
   -9    7    7    -34.41      0.00
  -11    7    9    -25.37      0.00
  -13    7   11    -14.66      0.00
  -15    7   13      1.93      0.00
  -17    7   15     -0.81      0.00
  -19    7   17     -3.78      0.00
  -21    7   19     -8.62      0.00
  -23    7   21      6.88      0.00
  -20    8   22      3.03      0.00
  -18    8   20      2.52      0.00
  -16    8   18      3.61      0.00
  -14    8   16     -1.74      0.00
  -12    8   14     16.23      0.00
  -10    8   12     13.10      0.00
   -8    8   10    -21.23      0.00
   -6    8    8    -26.91      0.00
   -4    8    6     -0.45      0.00
   -2    8    4    -15.45      0.00
    0    8    2     13.14      0.00
    2    8    0   -128.80      0.00
   -4    8    2      0.59      0.00
   -6    8    4    -15.00      0.00
   -8    8    6    -53.84      0.00
  -10    8    8    -30.23      0.00
  -12    8   10     12.34      0.00
  -14    8   12     16.70      0.00
  -16    8   14      1.87      0.00
  -18    8   16     -1.88      0.00
  -20    8   18      5.23      0.00
  -22    8   20     -4.37      0.00
  -24    8   22     -2.34      0.00
  -21    9   23      1.26      0.00
  -19    9   21     -2.58      0.00
  -17    9   19    -11.85      0.00
  -15    9   17      9.64      0.00
  -13    9   15     21.24      0.00
  -11    9   13      5.36      0.00
   -9    9   11      3.91      0.00
   -7    9    9     26.73      0.00
   -5    9    7     -8.78      0.00
   -3    9    5      6.60      0.00
   -1    9    3      1.33      0.00
    1    9    1    -11.51      0.00
   -3    9    1    -26.60      0.00
   -5    9    3   -115.86      0.00
   -7    9    5    -42.78      0.00
   -9    9    7    -18.28      0.00
  -11    9    9    -13.04      0.00
  -13    9   11     -9.97      0.00
  -15    9   13      5.87      0.00
  -17    9   15      8.84      0.00
  -19    9   17      0.80      0.00
  -21    9   19     -8.85      0.00
  -23    9   21      6.91      0.00
  -20   10   22      1.07      0.00
  -18   10   20      0.23      0.00
  -16   10   18      4.67      0.00
  -14   10   16     -0.59      0.00
  -12   10   14     18.68      0.00
  -10   10   12     14.17      0.00
   -8   10   10    -17.28      0.00
   -6   10    8     -6.89      0.00
   -4   10    6     11.02      0.00
   -2   10    4      8.46      0.00
    0   10    2     67.10      0.00
    2   10    0    -84.14      0.00
   -4   10    2     -3.18      0.00
   -6   10    4     41.49      0.00
   -8   10    6      0.82      0.00
  -10   10    8     -4.40      0.00
  -12   10   10     17.03      0.00
  -14   10   12     21.45      0.00
  -16   10   14      9.33      0.00
  -18   10   16      1.72      0.00
  -20   10   18      6.32      0.00
  -22   10   20      1.88      0.00
  -24   10   22     -1.34      0.00
  -21   11   23      3.07      0.00
  -19   11   21      1.28      0.00
  -17   11   19    -14.72      0.00
  -15   11   17      4.95      0.00
  -13   11   15     11.86      0.00
  -11   11   13     -6.57      0.00
   -9   11   11     -3.65      0.00
   -7   11    9     15.23      0.00
   -5   11    7    -13.93      0.00
   -3   11    5     25.64      0.00
   -1   11    3     33.21      0.00
    1   11    1     31.97      0.00
   -3   11    1     21.30      0.00
   -5   11    3    -53.80      0.00
   -7   11    5    -18.67      0.00
   -9   11    7    -14.90      0.00
  -11   11    9    -14.44      0.00
  -13   11   11     -8.13      0.00
  -15   11   13      7.52      0.00
  -17   11   15      5.07      0.00
  -19   11   17     -3.87      0.00
  -21   11   19     -8.69      0.00
  -23   11   21      6.60      0.00
  -20   12   22      0.39      0.00
  -18   12   20     -1.51      0.00
  -16   12   18     -0.94      0.00
  -14   12   16    -11.06      0.00
  -12   12   14      7.48      0.00
  -10   12   12      9.15      0.00
   -8   12   10    -26.08      0.00
   -6   12    8    -18.30      0.00
   -4   12    6    -12.01      0.00
   -2   12    4    -21.21      0.00
    0   12    2     28.23      0.00
    2   12    0    -58.76      0.00
   -4   12    2     -7.78      0.00
   -6   12    4     -3.55      0.00
   -8   12    6    -27.03      0.00
  -10   12    8    -10.50      0.00
  -12   12   10     11.36      0.00
  -14   12   12      5.69      0.00
  -16   12   14     -2.79      0.00
  -18   12   16     -0.37      0.00
  -20   12   18      5.58      0.00
  -22   12   20      0.02      0.00
  -24   12   22     -3.85      0.00
  -21   13   23      6.49      0.00
  -19   13   21      5.02      0.00
  -17   13   19    -10.15      0.00
  -15   13   17      1.26      0.00
  -13   13   15      6.63      0.00
  -11   13   13     -5.92      0.00
   -9   13   11      7.01      0.00
   -7   13    9      7.24      0.00
   -5   13    7    -30.83      0.00
   -3   13    5     -2.74      0.00
   -1   13    3     19.22      0.00
    1   13    1     29.89      0.00
   -3   13    1      4.83      0.00
   -5   13    3    -53.22      0.00
   -7   13    5    -19.70      0.00
   -9   13    7    -12.10      0.00
  -11   13    9     -7.53      0.00
  -13   13   11      1.40      0.00
  -15   13   13      7.01      0.00
  -17   13   15     -4.47      0.00
  -19   13   17     -5.32      0.00
  -21   13   19     -9.87      0.00
  -23   13   21      2.69      0.00
  -20   14   22      2.20      0.00
  -18   14   20     -1.14      0.00
  -16   14   18      1.02      0.00
  -14   14   16     -8.21      0.00
  -12   14   14     12.23      0.00
  -10   14   12     12.24      0.00
   -8   14   10    -17.96      0.00
   -6   14    8     -9.16      0.00
   -4   14    6     10.98      0.00
   -2   14    4      6.25      0.00
    0   14    2     27.40      0.00
    2   14    0    -16.13      0.00
   -4   14    2     36.73      0.00
   -6   14    4     11.02      0.00
   -8   14    6     -8.36      0.00
  -10   14    8      7.24      0.00
  -12   14   10     24.86      0.00
  -14   14   12      9.15      0.00
  -16   14   14      2.24      0.00
  -18   14   16      0.25      0.00
  -20   14   18      0.70      0.00
  -22   14   20     -7.27      0.00
  -19   15   21      5.62      0.00
  -17   15   19     -6.01      0.00
  -15   15   17      4.21      0.00
  -13   15   15     15.72      0.00
  -11   15   13      2.94      0.00
   -9   15   11      8.56      0.00
   -7   15    9      6.71      0.00
   -5   15    7      0.94      0.00
   -3   15    5     26.71      0.00
   -1   15    3     25.59      0.00
    1   15    1     16.36      0.00
   -3   15    1      5.24      0.00
   -5   15    3     -7.07      0.00
   -7   15    5     18.83      0.00
   -9   15    7     -2.48      0.00
  -11   15    9      1.87      0.00
  -13   15   11     15.47      0.00
  -15   15   13     17.19      0.00
  -17   15   15     -0.77      0.00
  -19   15   17     -2.15      0.00
  -21   15   19     -8.32      0.00
  -23   15   21      0.71      0.00
  -20   16   22     -1.44      0.00
  -18   16   20     -2.80      0.00
  -16   16   18      4.00      0.00
  -14   16   16     -4.02      0.00
  -12   16   14      8.02      0.00
  -10   16   12      3.60      0.00
   -8   16   10    -19.18      0.00
   -6   16    8    -13.93      0.00
   -4   16    6      9.23      0.00
   -2   16    4     17.01      0.00
    0   16    2     21.18      0.00
    2   16    0    -25.80      0.00
   -4   16    2     29.94      0.00
   -6   16    4     21.26      0.00
   -8   16    6      8.01      0.00
  -10   16    8     -0.53      0.00
  -12   16   10      6.76      0.00
  -14   16   12      3.21      0.00
  -16   16   14      9.25      0.00
  -18   16   16      1.82      0.00
  -20   16   18     -1.64      0.00
  -22   16   20     -6.31      0.00
  -19   17   21      4.45      0.00
  -17   17   19     -9.27      0.00
  -15   17   17     -1.25      0.00
  -13   17   15      5.59      0.00
  -11   17   13    -11.84      0.00
   -9   17   11    -15.74      0.00
   -7   17    9     -8.27      0.00
   -5   17    7     -4.84      0.00
   -3   17    5      9.14      0.00
   -1   17    3     13.18      0.00
    1   17    1     19.32      0.00
   -3   17    1     12.19      0.00
   -5   17    3     -1.22      0.00
   -7   17    5     20.64      0.00
   -9   17    7     -3.50      0.00
  -11   17    9     -4.61      0.00
  -13   17   11      5.66      0.00
  -15   17   13      4.69      0.00
  -17   17   15     -4.27      0.00
  -19   17   17     -4.96      0.00
  -21   17   19     -7.42      0.00
  -23   17   21     -0.78      0.00
  -18   18   20     -6.02      0.00
  -16   18   18      1.04      0.00
  -14   18   16     -4.52      0.00
  -12   18   14      0.21      0.00
  -10   18   12     -0.70      0.00
   -8   18   10    -10.08      0.00
   -6   18    8     -5.45      0.00
   -4   18    6     -6.96      0.00
   -2   18    4      1.15      0.00
    0   18    2     19.39      0.00
    2   18    0    -15.37      0.00
   -4   18    2     11.67      0.00
   -6   18    4    -12.53      0.00
   -8   18    6     -9.78      0.00
  -10   18    8      4.66      0.00
  -12   18   10      0.09      0.00
  -14   18   12     -5.66      0.00
  -16   18   14      2.93      0.00
  -18   18   16     -0.69      0.00
  -20   18   18     -0.99      0.00
  -22   18   20     -4.23      0.00
  -19   19   21      4.49      0.00
  -17   19   19     -7.77      0.00
  -15   19   17      0.98      0.00
  -13   19   15      9.94      0.00
  -11   19   13     -1.28      0.00
   -9   19   11     -3.14      0.00
   -7   19    9      8.63      0.00
   -5   19    7     -6.68      0.00
   -3   19    5     -3.69      0.00
   -1   19    3     13.42      0.00
    1   19    1     38.57      0.00
   -3   19    1     28.41      0.00
   -5   19    3      3.19      0.00
   -7   19    5     12.04      0.00
   -9   19    7      9.37      0.00
  -11   19    9     13.16      0.00
  -13   19   11     10.06      0.00
  -15   19   13      3.13      0.00
  -17   19   15     -0.11      0.00
  -19   19   17     -5.78      0.00
  -21   19   19     -6.33      0.00
  -18   20   20     -6.34      0.00
  -16   20   18     -0.33      0.00
  -14   20   16     -0.55      0.00
  -12   20   14      4.57      0.00
  -10   20   12      4.83      0.00
   -8   20   10     -4.56      0.00
   -6   20    8     -4.60      0.00
   -4   20    6     -4.26      0.00
   -2   20    4      7.04      0.00
    0   20    2     21.97      0.00
    2   20    0     -8.95      0.00
   -4   20    2     11.17      0.00
   -6   20    4     -8.06      0.00
   -8   20    6    -13.44      0.00
  -10   20    8      8.46      0.00
  -12   20   10      5.15      0.00
  -14   20   12     -2.12      0.00
  -16   20   14     -3.04      0.00
  -18   20   16     -7.26      0.00
  -20   20   18     -1.73      0.00
  -22   20   20     -6.52      0.00
  -19   21   21      1.73      0.00
  -17   21   19     -4.42      0.00
  -15   21   17      1.49      0.00
  -13   21   15     12.09      0.00
  -11   21   13      4.53      0.00
   -9   21   11     -1.27      0.00
   -7   21    9     -3.94      0.00
   -5   21    7    -11.22      0.00
   -3   21    5     -5.05      0.00
   -1   21    3     -8.32      0.00
    1   21    1      7.84      0.00
   -3   21    1     13.34      0.00
   -5   21    3      5.84      0.00
   -7   21    5     10.92      0.00
   -9   21    7     -1.48      0.00
  -11   21    9      1.45      0.00
  -13   21   11      5.15      0.00
  -15   21   13      2.77      0.00
  -17   21   15     -1.35      0.00
  -19   21   17     -5.07      0.00
  -21   21   19     -2.43      0.00
  -18   22   20     -3.21      0.00
  -16   22   18      3.84      0.00
  -14   22   16     -2.09      0.00
  -12   22   14      1.34      0.00
  -10   22   12     -0.40      0.00
   -8   22   10    -14.55      0.00
   -6   22    8    -13.62      0.00
   -4   22    6     -4.16      0.00
   -2   22    4      1.03      0.00
    0   22    2      4.36      0.00
    2   22    0    -31.38      0.00
   -4   22    2    -10.62      0.00
   -6   22    4     -7.52      0.00
   -8   22    6    -14.21      0.00
  -10   22    8    -10.08      0.00
  -12   22   10     -4.63      0.00
  -14   22   12     -3.94      0.00
  -16   22   14     -4.67      0.00
  -18   22   16     -4.04      0.00
  -20   22   18      2.25      0.00
  -17   23   19     -5.79      0.00
  -15   23   17      1.66      0.00
  -13   23   15      7.90      0.00
  -11   23   13     -4.57      0.00
   -9   23   11    -12.88      0.00
   -7   23    9     -7.93      0.00
   -5   23    7     -5.20      0.00
   -3   23    5     -7.36      0.00
   -1   23    3    -17.31      0.00
    1   23    1     -5.18      0.00
   -3   23    1      5.74      0.00
   -5   23    3     -8.93      0.00
   -7   23    5      1.89      0.00
   -9   23    7     -3.48      0.00
  -11   23    9    -11.98      0.00
  -13   23   11    -11.59      0.00
  -15   23   13     -5.08      0.00
  -17   23   15     -3.70      0.00
  -19   23   17     -6.33      0.00
  -21   23   19     -2.53      0.00
  -18   24   20     -3.07      0.00
  -16   24   18      3.48      0.00
  -14   24   16     -3.83      0.00
  -12   24   14     -1.22      0.00
  -10   24   12     -3.99      0.00
   -8   24   10     -5.15      0.00
   -6   24    8      2.66      0.00
   -4   24    6     -0.65      0.00
   -2   24    4      6.67      0.00
    0   24    2     15.48      0.00
    2   24    0    -17.04      0.00
   -4   24    2     -1.37      0.00
   -6   24    4     -0.75      0.00
   -8   24    6     -1.89      0.00
  -10   24    8      3.58      0.00
  -12   24   10     -1.72      0.00
  -14   24   12     -4.88      0.00
  -16   24   14     -1.78      0.00
  -18   24   16      1.93      0.00
  -20   24   18     -0.61      0.00
  -17   25   19     -9.25      0.00
  -15   25   17      0.06      0.00
  -13   25   15      7.64      0.00
  -11   25   13      1.13      0.00
   -9   25   11     -4.18      0.00
   -7   25    9      6.12      0.00
   -5   25    7      2.66      0.00
   -3   25    5     -0.32      0.00
   -1   25    3     -6.23      0.00
    1   25    1      7.40      0.00
   -3   25    1     17.40      0.00
   -5   25    3     -5.78      0.00
   -7   25    5     -1.92      0.00
   -9   25    7      6.77      0.00
  -11   25    9      0.61      0.00
  -13   25   11     -5.09      0.00
  -15   25   13      0.00      0.00
  -17   25   15      1.88      0.00
  -19   25   17     -4.61      0.00
  -16   26   18     -0.14      0.00
  -14   26   16     -5.24      0.00
  -12   26   14      1.35      0.00
  -10   26   12      3.72      0.00
   -8   26   10      2.06      0.00
   -6   26    8     -0.58      0.00
   -4   26    6     -6.25      0.00
   -2   26    4      5.80      0.00
    0   26    2     11.52      0.00
    2   26    0    -20.72      0.00
   -4   26    2     -7.06      0.00
   -6   26    4      2.48      0.00
   -8   26    6     -2.80      0.00
  -10   26    8      4.48      0.00
  -12   26   10      4.35      0.00
  -14   26   12      3.35      0.00
  -16   26   14      0.09      0.00
  -18   26   16      1.13      0.00
  -20   26   18      0.57      0.00
  -15   27   17     -5.32      0.00
  -13   27   15     -0.48      0.00
  -11   27   13     -0.83      0.00
   -9   27   11     -4.27      0.00
   -7   27    9     -9.37      0.00
   -5   27    7    -10.96      0.00
   -3   27    5     -4.95      0.00
   -1   27    3    -17.81      0.00
    1   27    1     -3.80      0.00
   -3   27    1      8.52      0.00
   -5   27    3     -5.40      0.00
   -7   27    5     -8.33      0.00
   -9   27    7     -9.79      0.00
  -11   27    9     -5.27      0.00
  -13   27   11     -1.57      0.00
  -15   27   13     -0.44      0.00
  -17   27   15     -2.46      0.00
  -19   27   17     -4.24      0.00
  -16   28   18     -1.79      0.00
  -14   28   16     -5.82      0.00
  -12   28   14     -2.08      0.00
  -10   28   12      0.15      0.00
   -8   28   10     -7.54      0.00
   -6   28    8     -9.22      0.00
   -4   28    6     -2.89      0.00
   -2   28    4     12.18      0.00
    0   28    2     15.54      0.00
    2   28    0    -13.00      0.00
   -4   28    2     -3.06      0.00
   -6   28    4      7.43      0.00
   -8   28    6     -5.03      0.00
  -10   28    8     -4.63      0.00
  -12   28   10      2.39      0.00
  -14   28   12      2.53      0.00
  -16   28   14     -2.06      0.00
  -18   28   16     -3.68      0.00
  -15   29   17     -1.07      0.00
  -13   29   15      1.46      0.00
  -11   29   13     -4.18      0.00
   -9   29   11     -2.93      0.00
   -7   29    9     -2.43      0.00
   -5   29    7     -1.97      0.00
   -3   29    5      4.25      0.00
   -1   29    3     -4.93      0.00
    1   29    1      5.84      0.00
   -3   29    1     12.94      0.00
   -5   29    3      2.66      0.00
   -7   29    5      2.56      0.00
   -9   29    7     -2.27      0.00
  -11   29    9     -3.26      0.00
  -13   29   11     -0.72      0.00
  -15   29   13      3.17      0.00
  -17   29   15      1.28      0.00
  -14   30   16     -2.31      0.00
  -12   30   14     -2.10      0.00
  -10   30   12     -0.69      0.00
   -8   30   10     -2.33      0.00
   -6   30    8      4.81      0.00
   -4   30    6      5.09      0.00
   -2   30    4     16.34      0.00
    0   30    2     19.60      0.00
    2   30    0     -2.77      0.00
   -4   30    2      7.54      0.00
   -6   30    4     11.75      0.00
   -8   30    6      4.20      0.00
  -10   30    8      2.03      0.00
  -12   30   10      1.46      0.00
  -14   30   12      1.40      0.00
  -16   30   14     -0.07      0.00
  -18   30   16     -2.06      0.00
  -13   31   15     -1.31      0.00
  -11   31   13     -3.53      0.00
   -9   31   11     -0.02      0.00
   -7   31    9      5.58      0.00
   -5   31    7      1.17      0.00
   -3   31    5      2.09      0.00
   -1   31    3     -3.97      0.00
    1   31    1      5.11      0.00
   -3   31    1     10.86      0.00
   -5   31    3     -2.48      0.00
   -7   31    5      1.11      0.00
   -9   31    7      3.56      0.00
  -11   31    9     -1.31      0.00
  -13   31   11     -3.16      0.00
  -15   31   13      1.73      0.00
  -17   31   15      1.37      0.00
  -14   32   16     -4.12      0.00
  -12   32   14     -1.20      0.00
  -10   32   12      2.51      0.00
   -8   32   10      0.28      0.00
   -6   32    8      2.61      0.00
   -4   32    6     -2.83      0.00
   -2   32    4      5.43      0.00
    0   32    2     11.08      0.00
    2   32    0     -9.32      0.00
   -4   32    2     -1.46      0.00
   -6   32    4      3.02      0.00
   -8   32    6     -0.18      0.00
  -10   32    8     -2.10      0.00
  -12   32   10      0.07      0.00
  -14   32   12      4.91      0.00
  -16   32   14     -0.64      0.00
  -13   33   15     -3.42      0.00
  -11   33   13     -2.01      0.00
   -9   33   11      1.49      0.00
   -7   33    9      0.96      0.00
   -5   33    7     -3.34      0.00
   -3   33    5     -1.99      0.00
   -1   33    3     -7.77      0.00
    1   33    1      0.34      0.00
   -3   33    1      7.87      0.00
   -5   33    3     -5.36      0.00
   -7   33    5     -2.17      0.00
   -9   33    7     -3.01      0.00
  -11   33    9     -3.57      0.00
  -13   33   11     -4.65      0.00
  -15   33   13     -1.07      0.00
  -12   34   14     -2.79      0.00
  -10   34   12     -0.60      0.00
   -8   34   10     -1.74      0.00
   -6   34    8     -1.73      0.00
   -4   34    6     -4.20      0.00
   -2   34    4      1.23      0.00
    0   34    2      8.56      0.00
    2   34    0     -4.33      0.00
   -4   34    2      2.69      0.00
   -6   34    4      5.16      0.00
   -8   34    6     -1.19      0.00
  -10   34    8     -3.45      0.00
  -12   34   10     -0.31      0.00
  -14   34   12      1.07      0.00
  -11   35   13     -4.21      0.00
   -9   35   11     -0.18      0.00
   -7   35    9      3.04      0.00
   -5   35    7     -0.61      0.00
   -3   35    5      0.04      0.00
   -1   35    3     -3.12      0.00
    1   35    1      5.11      0.00
   -3   35    1      7.38      0.00
   -5   35    3     -0.62      0.00
   -7   35    5      5.98      0.00
   -9   35    7      1.78      0.00
  -11   35    9     -1.38      0.00
  -13   35   11     -1.68      0.00
  -15   35   13      0.65      0.00
  -10   36   12     -0.34      0.00
   -8   36   10      1.86      0.00
   -6   36    8      4.31      0.00
   -4   36    6      1.32      0.00
   -2   36    4     -0.81      0.00
    0   36    2      1.66      0.00
    2   36    0     -5.16      0.00
   -4   36    2      0.73      0.00
   -6   36    4      3.38      0.00
   -8   36    6      0.41      0.00
  -10   36    8      0.62      0.00
  -12   36   10     -0.45      0.00
  -14   36   12     -0.25      0.00
   -9   37   11     -1.23      0.00
   -7   37    9     -0.03      0.00
   -5   37    7     -1.32      0.00
   -3   37    5     -0.50      0.00
   -1   37    3    -10.53      0.00
    1   37    1     -6.52      0.00
   -3   37    1     -4.45      0.00
   -5   37    3     -4.49      0.00
   -7   37    5      1.64      0.00
   -9   37    7     -2.26      0.00
  -11   37    9     -3.19      0.00
  -13   37   11      0.83      0.00
   -8   38   10      0.88      0.00
   -6   38    8     -1.26      0.00
   -4   38    6     -3.80      0.00
   -2   38    4     -4.87      0.00
    0   38    2     -3.16      0.00
    2   38    0    -10.27      0.00
   -4   38    2     -3.92      0.00
   -6   38    4     -0.15      0.00
   -8   38    6     -3.79      0.00
  -10   38    8     -2.84      0.00
  -12   38   10     -1.56      0.00
   -7   39    9      1.78      0.00
   -5   39    7     -2.97      0.00
   -3   39    5      0.53      0.00
   -1   39    3     -4.65      0.00
    1   39    1     -1.98      0.00
   -3   39    1      1.05      0.00
   -5   39    3     -4.25      0.00
   -7   39    5     -1.67      0.00
   -9   39    7     -3.42      0.00
  -11   39    9      3.26      0.00
   -6   40    8      0.90      0.00
   -4   40    6     -3.16      0.00
   -2   40    4     -4.79      0.00
    0   40    2      3.15      0.00
    2   40    0      0.00      0.00
   -4   40    2      3.48      0.00
   -6   40    4      0.49      0.00
   -8   40    6     -3.38      0.00
  -10   40    8     -1.32      0.00
   -5   41    7     -1.57      0.00
   -3   41    5     -1.36      0.00
   -1   41    3      1.19      0.00
    1   41    1      3.37      0.00
   -3   41    1      1.19      0.00
   -5   41    3     -8.96      0.00
   -7   41    5     -0.28      0.00
   -2   42    4     -5.03      0.00
    0   42    2      0.68      0.00
    2   42    0     -3.26      0.00
   -4   42    2     -1.51      0.00
   -6   42    4     -3.21      0.00
    1   43    1     -2.49      0.00
  -20    0   23     -2.97      0.00
  -18    0   21     -5.29      0.00
  -16    0   19     -7.08      0.00
  -14    0   17    -10.16      0.00
  -12    0   15     24.68      0.00
  -10    0   13     28.80      0.00
   -8    0   11    -18.32      0.00
   -6    0    9     -7.34      0.00
   -4    0    7     21.04      0.00
   -2    0    5     62.21      0.00
    0    0    3   -125.07      0.00
    2    0    1   -112.77      0.00
   -4    0    1     27.68      0.00
   -6    0    3     73.54      0.00
   -8    0    5      6.09      0.00
  -10    0    7      4.88      0.00
  -12    0    9      9.80      0.00
  -14    0   11     -3.07      0.00
  -16    0   13    -10.57      0.00
  -18    0   15     -4.78      0.00
  -20    0   17     -0.41      0.00
  -22    0   19    -10.99      0.00
  -24    0   21      3.63      0.00
  -21    1   24      0.26      0.00
  -19    1   22     -6.13      0.00
  -17    1   20     -4.54      0.00
  -15    1   18      5.33      0.00
  -13    1   16     12.24      0.00
  -11    1   14     -3.39      0.00
   -9    1   12     22.85      0.00
   -7    1   10      1.74      0.00
   -5    1    8     -2.53      0.00
   -3    1    6     -3.11      0.00
   -1    1    4    -61.82      0.00
    1    1    2   -196.59      0.00
    3    1    0    -59.17      0.00
   -5    1    2     11.92      0.00
   -7    1    4      8.88      0.00
   -9    1    6     53.79      0.00
  -11    1    8      5.50      0.00
  -13    1   10    -14.66      0.00
  -15    1   12     -9.67      0.00
  -17    1   14      5.11      0.00
  -19    1   16    -11.44      0.00
  -21    1   18     -1.29      0.00
  -23    1   20     11.01      0.00
  -25    1   22      3.40      0.00
  -20    2   23     -1.84      0.00
  -18    2   21     -3.90      0.00
  -16    2   19     -2.87      0.00
  -14    2   17     -4.00      0.00
  -12    2   15     21.83      0.00
  -10    2   13     18.65      0.00
   -8    2   11     -5.14      0.00
   -6    2    9     11.60      0.00
   -4    2    7    -30.28      0.00
   -2    2    5     21.45      0.00
    0    2    3    -27.47      0.00
    2    2    1     -7.07      0.00
   -4    2    1     37.29      0.00
   -6    2    3     78.51      0.00
   -8    2    5     13.55      0.00
  -10    2    7     -1.01      0.00
  -12    2    9      3.11      0.00
  -14    2   11      1.74      0.00
  -16    2   13     -4.50      0.00
  -18    2   15      0.79      0.00
  -20    2   17     -1.07      0.00
  -22    2   19     -9.79      0.00
  -24    2   21      6.84      0.00
  -21    3   24      2.36      0.00
  -19    3   22     -3.46      0.00
  -17    3   20     -2.62      0.00
  -15    3   18      5.52      0.00
  -13    3   16      4.89      0.00
  -11    3   14    -11.46      0.00
   -9    3   12     13.59      0.00
   -7    3   10     16.36      0.00
   -5    3    8    -10.70      0.00
   -3    3    6    -70.14      0.00
   -1    3    4     -4.12      0.00
    1    3    2      3.15      0.00
    3    3    0    -37.94      0.00
   -5    3    2     78.28      0.00
   -7    3    4     72.07      0.00
   -9    3    6     28.39      0.00
  -11    3    8    -10.95      0.00
  -13    3   10      8.26      0.00
  -15    3   12      2.99      0.00
  -17    3   14      3.03      0.00
  -19    3   16    -19.76      0.00
  -21    3   18     -6.89      0.00
  -23    3   20      8.88      0.00
  -25    3   22      0.46      0.00
  -20    4   23     -0.07      0.00
  -18    4   21     -2.82      0.00
  -16    4   19     -7.53      0.00
  -14    4   17     -9.08      0.00
  -12    4   15      9.25      0.00
  -10    4   13      4.50      0.00
   -8    4   11     -7.28      0.00
   -6    4    9      8.40      0.00
   -4    4    7    -60.86      0.00
   -2    4    5     -8.83      0.00
    0    4    3    -65.26      0.00
    2    4    1    -35.34      0.00
   -4    4    1     -4.06      0.00
   -6    4    3     18.85      0.00
   -8    4    5    -13.32      0.00
  -10    4    7     -7.20      0.00
  -12    4    9     -6.85      0.00
  -14    4   11     -3.88      0.00
  -16    4   13     -9.87      0.00
  -18    4   15     -3.65      0.00
  -20    4   17      0.75      0.00
  -22    4   19    -10.35      0.00
  -24    4   21      3.17      0.00
  -21    5   24      2.46      0.00
  -19    5   22     -1.23      0.00
  -17    5   20     -1.72      0.00
  -15    5   18      1.69      0.00
  -13    5   16      8.01      0.00
  -11    5   14     -1.29      0.00
   -9    5   12     21.57      0.00
   -7    5   10     12.63      0.00
   -5    5    8    -11.10      0.00
   -3    5    6    -68.59      0.00
   -1    5    4    -47.04      0.00
    1    5    2    -69.11      0.00
    3    5    0   -141.46      0.00
   -5    5    2     -5.45      0.00
   -7    5    4     15.00      0.00
   -9    5    6      4.87      0.00
  -11    5    8    -17.49      0.00
  -13    5   10      3.59      0.00
  -15    5   12     -3.33      0.00
  -17    5   14     -4.22      0.00
  -19    5   16    -19.40      0.00
  -21    5   18     -2.11      0.00
  -23    5   20      8.74      0.00
  -25    5   22     -3.01      0.00
  -20    6   23      5.84      0.00
  -18    6   21      2.98      0.00
  -16    6   19     -4.62      0.00
  -14    6   17     -8.26      0.00
  -12    6   15      5.62      0.00
  -10    6   13     10.66      0.00
   -8    6   11     -7.09      0.00
   -6    6    9     15.68      0.00
   -4    6    7     22.86      0.00
   -2    6    5     77.69      0.00
    0    6    3   -103.27      0.00
    2    6    1    -75.01      0.00
   -4    6    1     11.72      0.00
   -6    6    3     14.40      0.00
   -8    6    5     -3.22      0.00
  -10    6    7      5.65      0.00
  -12    6    9      1.09      0.00
  -14    6   11     -4.41      0.00
  -16    6   13     -6.63      0.00
  -18    6   15     -0.73      0.00
  -20    6   17      7.98      0.00
  -22    6   19     -9.72      0.00
  -24    6   21     -0.88      0.00
  -21    7   24      2.29      0.00
  -19    7   22      0.53      0.00
  -17    7   20      3.40      0.00
  -15    7   18      6.68      0.00
  -13    7   16     16.95      0.00
  -11    7   14      4.95      0.00
   -9    7   12     28.91      0.00
   -7    7   10     20.35      0.00
   -5    7    8     20.59      0.00
   -3    7    6     13.05      0.00
   -1    7    4     28.44      0.00
    1    7    2     -0.85      0.00
    3    7    0    -45.91      0.00
   -5    7    2     25.37      0.00
   -7    7    4     41.86      0.00
   -9    7    6     36.29      0.00
  -11    7    8     -7.68      0.00
  -13    7   10      1.48      0.00
  -15    7   12     -5.23      0.00
  -17    7   14      5.16      0.00
  -19    7   16     -8.76      0.00
  -21    7   18      0.59      0.00
  -23    7   20     11.31      0.00
  -25    7   22      1.32      0.00
  -20    8   23      6.74      0.00
  -18    8   21      3.01      0.00
  -16    8   19      2.10      0.00
  -14    8   17     -4.08      0.00
  -12    8   15      1.21      0.00
  -10    8   13      1.19      0.00
   -8    8   11     -5.59      0.00
   -6    8    9     21.46      0.00
   -4    8    7     19.83      0.00
   -2    8    5     76.72      0.00
    0    8    3      9.48      0.00
    2    8    1     35.17      0.00
   -4    8    1     55.50      0.00
   -6    8    3     56.49      0.00
   -8    8    5     10.63      0.00
  -10    8    7      3.71      0.00
  -12    8    9     -2.02      0.00
  -14    8   11     -1.33      0.00
  -16    8   13      7.95      0.00
  -18    8   15      8.58      0.00
  -20    8   17      7.22      0.00
  -22    8   19     -8.06      0.00
  -24    8   21      4.60      0.00
  -19    9   22     -0.19      0.00
  -17    9   20      0.00      0.00
  -15    9   18     -3.50      0.00
  -13    9   16      5.70      0.00
  -11    9   14     -4.60      0.00
   -9    9   12     11.92      0.00
   -7    9   10     14.32      0.00
   -5    9    8      8.22      0.00
   -3    9    6      6.80      0.00
   -1    9    4     26.25      0.00
    1    9    2     13.74      0.00
    3    9    0     -5.52      0.00
   -5    9    2     36.36      0.00
   -7    9    4     12.80      0.00
   -9    9    6     -7.39      0.00
  -11    9    8    -36.99      0.00
  -13    9   10    -10.19      0.00
  -15    9   12    -10.96      0.00
  -17    9   14      2.25      0.00
  -19    9   16    -10.20      0.00
  -21    9   18     -1.23      0.00
  -23    9   20      7.60      0.00
  -25    9   22      3.86      0.00
  -20   10   23      4.35      0.00
  -18   10   21     -4.90      0.00
  -16   10   19     -2.72      0.00
  -14   10   17     -9.44      0.00
  -12   10   15     -5.96      0.00
  -10   10   13     -4.26      0.00
   -8   10   11     -5.41      0.00
   -6   10    9      4.43      0.00
   -4   10    7    -38.67      0.00
   -2   10    5     -1.57      0.00
    0   10    3     -3.30      0.00
    2   10    1      0.46      0.00
   -4   10    1     -8.22      0.00
   -6   10    3     17.81      0.00
   -8   10    5    -33.79      0.00
  -10   10    7    -17.92      0.00
  -12   10    9    -12.35      0.00
  -14   10   11      0.15      0.00
  -16   10   13      4.89      0.00
  -18   10   15     -0.41      0.00
  -20   10   17      2.04      0.00
  -22   10   19     -4.36      0.00
  -24   10   21      6.80      0.00
  -19   11   22      2.31      0.00
  -17   11   20     -2.79      0.00
  -15   11   18     -7.76      0.00
  -13   11   16      2.42      0.00
  -11   11   14     -0.74      0.00
   -9   11   12      7.60      0.00
   -7   11   10     16.82      0.00
   -5   11    8     14.18      0.00
   -3   11    6     10.71      0.00
   -1   11    4      5.78      0.00
    1   11    2     -5.49      0.00
    3   11    0    -14.50      0.00
   -5   11    2     15.26      0.00
   -7   11    4     -7.65      0.00
   -9   11    6     -8.61      0.00
  -11   11    8    -24.38      0.00
  -13   11   10      0.27      0.00
  -15   11   12     -3.56      0.00
  -17   11   14      5.34      0.00
  -19   11   16     -7.49      0.00
  -21   11   18      0.52      0.00
  -23   11   20      2.79      0.00
  -20   12   23      3.34      0.00
  -18   12   21     -4.02      0.00
  -16   12   19     -0.95      0.00
  -14   12   17     -4.68      0.00
  -12   12   15      0.94      0.00
  -10   12   13     10.62      0.00
   -8   12   11      0.05      0.00
   -6   12    9      9.90      0.00
   -4   12    7     -0.32      0.00
   -2   12    5     32.31      0.00
    0   12    3    -17.14      0.00
    2   12    1    -34.93      0.00
   -4   12    1    -19.41      0.00
   -6   12    3     24.83      0.00
   -8   12    5    -20.08      0.00
  -10   12    7    -16.12      0.00
  -12   12    9     -8.49      0.00
  -14   12   11      5.53      0.00
  -16   12   13      4.19      0.00
  -18   12   15      2.67      0.00
  -20   12   17      3.75      0.00
  -22   12   19     -3.30      0.00
  -24   12   21      3.70      0.00
  -19   13   22     -0.56      0.00
  -17   13   20     -3.19      0.00
  -15   13   18     -1.37      0.00
  -13   13   16      7.49      0.00
  -11   13   14     -6.68      0.00
   -9   13   12     -0.49      0.00
   -7   13   10     12.51      0.00
   -5   13    8     18.22      0.00
   -3   13    6      8.59      0.00
   -1   13    4      2.87      0.00
    1   13    2     14.71      0.00
    3   13    0     -5.11      0.00
   -5   13    2     -0.48      0.00
   -7   13    4     -0.63      0.00
   -9   13    6     13.45      0.00
  -11   13    8     -7.82      0.00
  -13   13   10     -8.70      0.00
  -15   13   12     -8.09      0.00
  -17   13   14     13.63      0.00
  -19   13   16      0.09      0.00
  -21   13   18     -1.90      0.00
  -23   13   20      1.66      0.00
  -20   14   23      0.99      0.00
  -18   14   21     -1.26      0.00
  -16   14   19     -0.95      0.00
  -14   14   17     -9.91      0.00
  -12   14   15     -7.56      0.00
  -10   14   13     -3.79      0.00
   -8   14   11    -22.99      0.00
   -6   14    9    -11.06      0.00
   -4   14    7      1.09      0.00
   -2   14    5     23.47      0.00
    0   14    3    -32.70      0.00
    2   14    1    -30.73      0.00
   -4   14    1      6.87      0.00
   -6   14    3     27.59      0.00
   -8   14    5    -16.47      0.00
  -10   14    7    -20.26      0.00
  -12   14    9    -14.48      0.00
  -14   14   11     -3.84      0.00
  -16   14   13     -3.29      0.00
  -18   14   15     -0.91      0.00
  -20   14   17      0.87      0.00
  -22   14   19     -5.64      0.00
  -24   14   21      0.96      0.00
  -19   15   22     -4.09      0.00
  -17   15   20     -7.26      0.00
  -15   15   18     -3.54      0.00
  -13   15   16      2.63      0.00
  -11   15   14    -19.48      0.00
   -9   15   12     -8.25      0.00
   -7   15   10      3.26      0.00
   -5   15    8      4.76      0.00
   -3   15    6    -14.68      0.00
   -1   15    4    -26.65      0.00
    1   15    2     -6.90      0.00
    3   15    0    -11.76      0.00
   -5   15    2    -20.07      0.00
   -7   15    4    -28.09      0.00
   -9   15    6    -16.32      0.00
  -11   15    8     -8.90      0.00
  -13   15   10     -9.03      0.00
  -15   15   12    -11.02      0.00
  -17   15   14      7.55      0.00
  -19   15   16     -2.12      0.00
  -21   15   18     -1.18      0.00
  -23   15   20      6.72      0.00
  -18   16   21      2.34      0.00
  -16   16   19      0.63      0.00
  -14   16   17    -12.08      0.00
  -12   16   15     -6.07      0.00
  -10   16   13      3.61      0.00
   -8   16   11    -12.07      0.00
   -6   16    9     -4.02      0.00
   -4   16    7     -4.87      0.00
   -2   16    5      1.81      0.00
    0   16    3    -26.78      0.00
    2   16    1    -20.62      0.00
   -4   16    1     13.03      0.00
   -6   16    3     22.46      0.00
   -8   16    5    -15.87      0.00
  -10   16    7    -19.23      0.00
  -12   16    9     -5.01      0.00
  -14   16   11      5.31      0.00
  -16   16   13     -4.61      0.00
  -18   16   15     -7.19      0.00
  -20   16   17      1.89      0.00
  -22   16   19     -3.49      0.00
  -19   17   22     -1.18      0.00
  -17   17   20     -4.96      0.00
  -15   17   18     -1.98      0.00
  -13   17   16      4.48      0.00
  -11   17   14    -13.59      0.00
   -9   17   12     -6.77      0.00
   -7   17   10      9.25      0.00
   -5   17    8      5.10      0.00
   -3   17    6     -7.42      0.00
   -1   17    4     -8.99      0.00
    1   17    2     18.14      0.00
    3   17    0     19.76      0.00
   -5   17    2     -1.25      0.00
   -7   17    4     -0.78      0.00
   -9   17    6      1.96      0.00
  -11   17    8      5.62      0.00
  -13   17   10      6.00      0.00
  -15   17   12     -2.73      0.00
  -17   17   14      9.17      0.00
  -19   17   16     -3.43      0.00
  -21   17   18     -0.27      0.00
  -23   17   20      6.21      0.00
  -18   18   21      2.20      0.00
  -16   18   19      3.00      0.00
  -14   18   17     -4.85      0.00
  -12   18   15     -0.38      0.00
  -10   18   13     11.30      0.00
   -8   18   11     -2.71      0.00
   -6   18    9      0.84      0.00
   -4   18    7      3.35      0.00
   -2   18    5     17.73      0.00
    0   18    3     -3.87      0.00
    2   18    1    -24.62      0.00
   -4   18    1      8.92      0.00
   -6   18    3     32.44      0.00
   -8   18    5      6.61      0.00
  -10   18    7     -5.75      0.00
  -12   18    9    -12.13      0.00
  -14   18   11      3.49      0.00
  -16   18   13      1.35      0.00
  -18   18   15     -2.81      0.00
  -20   18   17      6.09      0.00
  -22   18   19     -0.70      0.00
  -17   19   20     -2.57      0.00
  -15   19   18      4.44      0.00
  -13   19   16      8.27      0.00
  -11   19   14    -12.48      0.00
   -9   19   12    -11.76      0.00
   -7   19   10      7.91      0.00
   -5   19    8     -8.27      0.00
   -3   19    6    -12.67      0.00
   -1   19    4     -9.51      0.00
    1   19    2      9.05      0.00
    3   19    0      7.10      0.00
   -5   19    2    -11.37      0.00
   -7   19    4      1.51      0.00
   -9   19    6     11.72      0.00
  -11   19    8     -2.65      0.00
  -13   19   10     -8.10      0.00
  -15   19   12     -6.90      0.00
  -17   19   14     14.68      0.00
  -19   19   16     -0.13      0.00
  -21   19   18      1.71      0.00
  -23   19   20      4.94      0.00
  -18   20   21      0.26      0.00
  -16   20   19      2.36      0.00
  -14   20   17     -0.79      0.00
  -12   20   15     -6.00      0.00
  -10   20   13      1.58      0.00
   -8   20   11    -16.02      0.00
   -6   20    9    -14.80      0.00
   -4   20    7      2.53      0.00
   -2   20    5     13.14      0.00
    0   20    3     -9.98      0.00
    2   20    1    -32.50      0.00
   -4   20    1      7.98      0.00
   -6   20    3     18.57      0.00
   -8   20    5     -4.31      0.00
  -10   20    7      0.27      0.00
  -12   20    9    -20.34      0.00
  -14   20   11    -10.37      0.00
  -16   20   13     -4.78      0.00
  -18   20   15     -5.40      0.00
  -20   20   17      3.79      0.00
  -22   20   19     -1.79      0.00
  -17   21   20     -2.77      0.00
  -15   21   18      0.30      0.00
  -13   21   16      7.74      0.00
  -11   21   14     -4.86      0.00
   -9   21   12     -2.35      0.00
   -7   21   10     10.91      0.00
   -5   21    8     -0.76      0.00
   -3   21    6     -5.27      0.00
   -1   21    4     -3.93      0.00
    1   21    2     10.52      0.00
    3   21    0     11.52      0.00
   -5   21    2     -0.46      0.00
   -7   21    4      5.40      0.00
   -9   21    6      3.45      0.00
  -11   21    8      3.09      0.00
  -13   21   10      4.83      0.00
  -15   21   12     -6.51      0.00
  -17   21   14      7.56      0.00
  -19   21   16     -1.58      0.00
  -21   21   18     -0.11      0.00
  -18   22   21      0.98      0.00
  -16   22   19      0.78      0.00
  -14   22   17     -0.58      0.00
  -12   22   15      1.19      0.00
  -10   22   13     14.05      0.00
   -8   22   11      0.50      0.00
   -6   22    9      4.22      0.00
   -4   22    7     13.46      0.00
   -2   22    5      8.77      0.00
    0   22    3      3.71      0.00
    2   22    1     -3.47      0.00
   -4   22    1     22.08      0.00
   -6   22    3     16.79      0.00
   -8   22    5     -0.58      0.00
  -10   22    7     12.59      0.00
  -12   22    9      0.76      0.00
  -14   22   11      2.48      0.00
  -16   22   13     -0.25      0.00
  -18   22   15     -1.06      0.00
  -20   22   17      4.86      0.00
  -22   22   19     -2.76      0.00
  -17   23   20     -4.39      0.00
  -15   23   18     -3.74      0.00
  -13   23   16      7.26      0.00
  -11   23   14      3.80      0.00
   -9   23   12      8.40      0.00
   -7   23   10     19.56      0.00
   -5   23    8      7.45      0.00
   -3   23    6     -4.64      0.00
   -1   23    4     -1.55      0.00
    1   23    2     13.70      0.00
    3   23    0     13.22      0.00
   -5   23    2     -2.43      0.00
   -7   23    4     11.99      0.00
   -9   23    6      0.93      0.00
  -11   23    8      0.04      0.00
  -13   23   10      9.40      0.00
  -15   23   12     -3.25      0.00
  -17   23   14      3.51      0.00
  -19   23   16     -5.74      0.00
  -21   23   18     -2.94      0.00
  -16   24   19      0.38      0.00
  -14   24   17     -1.67      0.00
  -12   24   15      0.29      0.00
  -10   24   13      6.64      0.00
   -8   24   11      4.33      0.00
   -6   24    9      4.67      0.00
   -4   24    7     -4.38      0.00
   -2   24    5     -6.65      0.00
    0   24    3     -3.51      0.00
    2   24    1     -8.10      0.00
   -4   24    1     10.49      0.00
   -6   24    3      7.27      0.00
   -8   24    5      2.55      0.00
  -10   24    7      6.32      0.00
  -12   24    9    -10.25      0.00
  -14   24   11     -0.33      0.00
  -16   24   13      1.20      0.00
  -18   24   15     -0.95      0.00
  -20   24   17      1.52      0.00
  -15   25   18      0.96      0.00
  -13   25   16      5.59      0.00
  -11   25   14     -4.22      0.00
   -9   25   12     -0.82      0.00
   -7   25   10      7.70      0.00
   -5   25    8     -1.71      0.00
   -3   25    6      0.86      0.00
   -1   25    4      1.83      0.00
    1   25    2      7.12      0.00
    3   25    0      4.38      0.00
   -5   25    2     -7.17      0.00
   -7   25    4      5.77      0.00
   -9   25    6     -3.53      0.00
  -11   25    8    -12.17      0.00
  -13   25   10     -1.93      0.00
  -15   25   12     -4.60      0.00
  -17   25   14      4.71      0.00
  -19   25   16     -5.96      0.00
  -21   25   18     -1.53      0.00
  -16   26   19      0.45      0.00
  -14   26   17      0.77      0.00
  -12   26   15      3.31      0.00
  -10   26   13      1.46      0.00
   -8   26   11     -3.98      0.00
   -6   26    9      0.89      0.00
   -4   26    7      0.68      0.00
   -2   26    5     -1.28      0.00
    0   26    3     -6.09      0.00
    2   26    1    -11.58      0.00
   -4   26    1      8.94      0.00
   -6   26    3      6.01      0.00
   -8   26    5      0.36      0.00
  -10   26    7      6.54      0.00
  -12   26    9    -11.04      0.00
  -14   26   11     -3.24      0.00
  -16   26   13     -0.68      0.00
  -18   26   15     -0.78      0.00
  -20   26   17      0.69      0.00
  -15   27   18      1.14      0.00
  -13   27   16      5.16      0.00
  -11   27   14     -4.59      0.00
   -9   27   12     -0.16      0.00
   -7   27   10     -0.06      0.00
   -5   27    8      0.82      0.00
   -3   27    6      9.45      0.00
   -1   27    4      2.23      0.00
    1   27    2      2.66      0.00
    3   27    0     -0.42      0.00
   -5   27    2      1.89      0.00
   -7   27    4      9.95      0.00
   -9   27    6      1.06      0.00
  -11   27    8     -0.36      0.00
  -13   27   10      3.77      0.00
  -15   27   12     -2.65      0.00
  -17   27   14      4.65      0.00
  -19   27   16     -0.52      0.00
  -14   28   17     -2.34      0.00
  -12   28   15      4.32      0.00
  -10   28   13      8.79      0.00
   -8   28   11     -2.02      0.00
   -6   28    9      4.90      0.00
   -4   28    7      7.75      0.00
   -2   28    5      0.88      0.00
    0   28    3     -7.15      0.00
    2   28    1     -9.01      0.00
   -4   28    1     10.14      0.00
   -6   28    3      4.34      0.00
   -8   28    5     -3.85      0.00
  -10   28    7      8.99      0.00
  -12   28    9      1.80      0.00
  -14   28   11      1.62      0.00
  -16   28   13     -0.03      0.00
  -18   28   15      1.09      0.00
  -15   29   18      0.12      0.00
  -13   29   16      3.97      0.00
  -11   29   14     -2.98      0.00
   -9   29   12      6.60      0.00
   -7   29   10      5.71      0.00
   -5   29    8     -0.55      0.00
   -3   29    6     -1.67      0.00
   -1   29    4     -6.46      0.00
    1   29    2     -1.90      0.00
    3   29    0    -10.16      0.00
   -5   29    2    -11.92      0.00
   -7   29    4      0.68      0.00
   -9   29    6     -1.46      0.00
  -11   29    8     -0.40      0.00
  -13   29   10      3.23      0.00
  -15   29   12      1.60      0.00
  -17   29   14      6.72      0.00
  -19   29   16      2.41      0.00
  -14   30   17     -1.41      0.00
  -12   30   15     -0.55      0.00
  -10   30   13      4.54      0.00
   -8   30   11      0.65      0.00
   -6   30    9      4.31      0.00
   -4   30    7     -1.65      0.00
   -2   30    5     -3.36      0.00
    0   30    3     -9.08      0.00
    2   30    1    -10.28      0.00
   -4   30    1      4.02      0.00
   -6   30    3     -3.03      0.00
   -8   30    5     -8.52      0.00
  -10   30    7     -2.38      0.00
  -12   30    9     -6.32      0.00
  -14   30   11     -2.26      0.00
  -16   30   13     -2.61      0.00
  -18   30   15     -1.53      0.00
  -13   31   16      4.68      0.00
  -11   31   14     -3.04      0.00
   -9   31   12      1.52      0.00
   -7   31   10      0.39      0.00
   -5   31    8     -7.05      0.00
   -3   31    6     -3.89      0.00
   -1   31    4     -1.39      0.00
    1   31    2      3.74      0.00
    3   31    0     -4.20      0.00
   -5   31    2     -7.97      0.00
   -7   31    4      5.19      0.00
   -9   31    6     -2.53      0.00
  -11   31    8     -7.63      0.00
  -13   31   10     -0.43      0.00
  -15   31   12     -1.20      0.00
  -17   31   14      2.00      0.00
  -12   32   15      2.34      0.00
  -10   32   13      0.83      0.00
   -8   32   11      0.99      0.00
   -6   32    9      7.64      0.00
   -4   32    7      1.93      0.00
   -2   32    5      2.49      0.00
    0   32    3      1.04      0.00
    2   32    1      1.40      0.00
   -4   32    1      8.54      0.00
   -6   32    3      2.25      0.00
   -8   32    5     -0.06      0.00
  -10   32    7      1.62      0.00
  -12   32    9     -5.61      0.00
  -14   32   11      2.08      0.00
  -16   32   13      1.90      0.00
  -11   33   14     -0.38      0.00
   -9   33   12      2.72      0.00
   -7   33   10     -0.82      0.00
   -5   33    8     -1.56      0.00
   -3   33    6      1.34      0.00
   -1   33    4      1.16      0.00
    1   33    2      1.01      0.00
    3   33    0     -2.85      0.00
   -5   33    2     -0.21      0.00
   -7   33    4     10.35      0.00
   -9   33    6     -2.54      0.00
  -11   33    8     -2.58      0.00
  -13   33   10      4.87      0.00
  -15   33   12     -0.06      0.00
  -17   33   14     -0.66      0.00
  -12   34   15      0.15      0.00
  -10   34   13      0.00      0.00
   -8   34   11      0.92      0.00
   -6   34    9      2.97      0.00
   -4   34    7      0.08      0.00
   -2   34    5     -0.50      0.00
    0   34    3     -5.47      0.00
    2   34    1     -4.97      0.00
   -4   34    1      0.14      0.00
   -6   34    3     -3.04      0.00
   -8   34    5     -2.99      0.00
  -10   34    7      2.19      0.00
  -12   34    9     -4.53      0.00
  -14   34   11      1.02      0.00
  -16   34   13      2.84      0.00
  -11   35   14     -3.28      0.00
   -9   35   12      3.98      0.00
   -7   35   10     -0.88      0.00
   -5   35    8     -5.98      0.00
   -3   35    6     -8.47      0.00
   -1   35    4     -5.64      0.00
    1   35    2      0.18      0.00
    3   35    0     -6.38      0.00
   -5   35    2     -5.50      0.00
   -7   35    4      1.91      0.00
   -9   35    6     -5.40      0.00
  -11   35    8     -1.85      0.00
  -13   35   10      5.02      0.00
  -15   35   12      0.78      0.00
  -10   36   13      2.01      0.00
   -8   36   11      2.28      0.00
   -6   36    9      1.17      0.00
   -4   36    7      1.08      0.00
   -2   36    5      2.76      0.00
    0   36    3     -2.74      0.00
    2   36    1     -2.60      0.00
   -4   36    1      2.37      0.00
   -6   36    3     -0.31      0.00
   -8   36    5     -2.16      0.00
  -10   36    7      1.34      0.00
  -12   36    9     -2.37      0.00
  -14   36   11     -0.41      0.00
   -9   37   12      1.65      0.00
   -7   37   10     -1.38      0.00
   -5   37    8     -5.20      0.00
   -3   37    6     -7.70      0.00
   -1   37    4     -4.78      0.00
    1   37    2      7.69      0.00
    3   37    0      3.53      0.00
   -5   37    2      4.80      0.00
   -7   37    4      4.14      0.00
   -9   37    6     -2.04      0.00
  -11   37    8     -0.60      0.00
  -13   37   10      4.49      0.00
   -8   38   11     -6.61      0.00
   -6   38    9      0.08      0.00
   -4   38    7      4.90      0.00
   -2   38    5      4.32      0.00
    0   38    3     -0.60      0.00
    2   38    1     -0.46      0.00
   -4   38    1      4.44      0.00
   -6   38    3      3.10      0.00
   -8   38    5      0.36      0.00
  -10   38    7      1.10      0.00
  -12   38    9     -2.09      0.00
   -7   39   10      0.76      0.00
   -5   39    8     -0.20      0.00
   -3   39    6     -0.79      0.00
   -1   39    4     -1.80      0.00
    1   39    2      4.98      0.00
    3   39    0      1.53      0.00
   -5   39    2     -0.10      0.00
   -7   39    4      0.74      0.00
   -9   39    6     -0.64      0.00
  -11   39    8      1.95      0.00
   -6   40    9     -0.50      0.00
   -4   40    7      3.88      0.00
   -2   40    5      5.64      0.00
    0   40    3     -0.67      0.00
    2   40    1     -8.10      0.00
   -4   40    1     -7.19      0.00
   -6   40    3     -0.70      0.00
   -8   40    5      0.59      0.00
  -10   40    7     -3.08      0.00
   -3   41    6     -0.66      0.00
   -1   41    4      1.25      0.00
    1   41    2      5.69      0.00
    3   41    0      1.46      0.00
   -5   41    2     -4.11      0.00
   -7   41    4      1.45      0.00
   -9   41    6      2.73      0.00
   -2   42    5      5.39      0.00
    0   42    3      3.53      0.00
    2   42    1     -3.29      0.00
   -4   42    1     -3.24      0.00
   -6   42    3      0.61      0.00
  -20    0   24      5.10      0.00
  -18    0   22      4.70      0.00
  -16    0   20      6.84      0.00
  -14    0   18      7.51      0.00
  -12    0   16     31.28      0.00
  -10    0   14      7.34      0.00
   -8    0   12    -13.81      0.00
   -6    0   10     14.24      0.00
   -4    0    8      5.56      0.00
   -2    0    6    -92.65      0.00
    0    0    4     85.21      0.00
    2    0    2     73.93      0.00
    4    0    0     87.05      0.00
   -6    0    2     44.06      0.00
   -8    0    4      9.43      0.00
  -10    0    6     13.94      0.00
  -12    0    8     12.08      0.00
  -14    0   10     19.48      0.00
  -16    0   12      7.16      0.00
  -18    0   14      2.46      0.00
  -20    0   16     -7.36      0.00
  -22    0   18    -10.09      0.00
  -24    0   20      5.07      0.00
  -26    0   22      3.48      0.00
  -19    1   23      5.76      0.00
  -17    1   21     -0.55      0.00
  -15    1   19      5.36      0.00
  -13    1   17     -1.73      0.00
  -11    1   15      4.20      0.00
   -9    1   13     13.40      0.00
   -7    1   11     -5.13      0.00
   -5    1    9    -48.98      0.00
   -3    1    7     24.89      0.00
   -1    1    5     15.06      0.00
    1    1    3     17.85      0.00
    3    1    1    315.01      0.00
   -5    1    1     68.65      0.00
   -7    1    3     11.88      0.00
   -9    1    5    -24.70      0.00
  -11    1    7     -4.84      0.00
  -13    1    9      4.76      0.00
  -15    1   11     17.46      0.00
  -17    1   13     -4.55      0.00
  -19    1   15    -12.12      0.00
  -21    1   17     -1.73      0.00
  -23    1   19      3.13      0.00
  -25    1   21     -3.06      0.00
  -20    2   24      2.65      0.00
  -18    2   22     -0.88      0.00
  -16    2   20      1.43      0.00
  -14    2   18      4.80      0.00
  -12    2   16     26.08      0.00
  -10    2   14      4.15      0.00
   -8    2   12     -5.34      0.00
   -6    2   10      3.36      0.00
   -4    2    8    -22.25      0.00
   -2    2    6    -77.66      0.00
    0    2    4     27.55      0.00
    2    2    2   -118.79      0.00
    4    2    0    -25.16      0.00
   -6    2    2      7.31      0.00
   -8    2    4    -32.59      0.00
  -10    2    6    -11.24      0.00
  -12    2    8      1.89      0.00
  -14    2   10      8.27      0.00
  -16    2   12      0.02      0.00
  -18    2   14      1.06      0.00
  -20    2   16    -11.30      0.00
  -22    2   18     -7.92      0.00
  -24    2   20      5.13      0.00
  -26    2   22     -1.01      0.00
  -19    3   23      1.87      0.00
  -17    3   21     -4.21      0.00
  -15    3   19      7.28      0.00
  -13    3   17     -5.96      0.00
  -11    3   15     -6.69      0.00
   -9    3   13     13.06      0.00
   -7    3   11     14.44      0.00
   -5    3    9    -63.16      0.00
   -3    3    7     -6.07      0.00
   -1    3    5     57.78      0.00
    1    3    3    -19.48      0.00
    3    3    1     36.49      0.00
   -5    3    1    -29.61      0.00
   -7    3    3     31.93      0.00
   -9    3    5    -24.67      0.00
  -11    3    7     -7.77      0.00
  -13    3    9     11.50      0.00
  -15    3   11     19.44      0.00
  -17    3   13     -1.28      0.00
  -19    3   15    -14.69      0.00
  -21    3   17     -2.48      0.00
  -23    3   19      4.19      0.00
  -25    3   21     -8.69      0.00
  -20    4   24      3.09      0.00
  -18    4   22     -0.81      0.00
  -16    4   20     -2.92      0.00
  -14    4   18      5.97      0.00
  -12    4   16     26.59      0.00
  -10    4   14      5.88      0.00
   -8    4   12     -5.48      0.00
   -6    4   10     -8.16      0.00
   -4    4    8     -3.39      0.00
   -2    4    6      8.81      0.00
    0    4    4     20.17      0.00
    2    4    2   -158.90      0.00
    4    4    0     33.81      0.00
   -6    4    2     41.45      0.00
   -8    4    4    -19.09      0.00
  -10    4    6     -1.78      0.00
  -12    4    8      3.69      0.00
  -14    4   10     10.34      0.00
  -16    4   12      2.03      0.00
  -18    4   14      3.72      0.00
  -20    4   16     -6.75      0.00
  -22    4   18     -6.85      0.00
  -24    4   20      2.88      0.00
  -26    4   22     -0.40      0.00
  -19    5   23      3.69      0.00
  -17    5   21     -3.06      0.00
  -15    5   19     10.08      0.00
  -13    5   17      4.28      0.00
  -11    5   15      2.85      0.00
   -9    5   13     11.28      0.00
   -7    5   11     20.35      0.00
   -5    5    9    -31.92      0.00
   -3    5    7    -27.55      0.00
   -1    5    5     12.08      0.00
    1    5    3     62.42      0.00
    3    5    1     90.11      0.00
   -5    5    1    -30.95      0.00
   -7    5    3     17.27      0.00
   -9    5    5    -27.40      0.00
  -11    5    7     -4.47      0.00
  -13    5    9      8.22      0.00
  -15    5   11     11.58      0.00
  -17    5   13     -1.28      0.00
  -19    5   15      1.20      0.00
  -21    5   17      5.55      0.00
  -23    5   19      3.75      0.00
  -25    5   21     -5.28      0.00
  -20    6   24      5.40      0.00
  -18    6   22      5.37      0.00
  -16    6   20     -3.04      0.00
  -14    6   18     -0.27      0.00
  -12    6   16     19.20      0.00
  -10    6   14      9.81      0.00
   -8    6   12    -14.91      0.00
   -6    6   10    -13.63      0.00
   -4    6    8     22.81      0.00
   -2    6    6     30.88      0.00
    0    6    4     10.50      0.00
    2    6    2    -76.70      0.00
    4    6    0     95.00      0.00
   -6    6    2     36.58      0.00
   -8    6    4    -14.76      0.00
  -10    6    6    -23.76      0.00
  -12    6    8    -17.07      0.00
  -14    6   10      4.45      0.00
  -16    6   12      2.78      0.00
  -18    6   14     -0.98      0.00
  -20    6   16     -5.56      0.00
  -22    6   18     -9.27      0.00
  -24    6   20      1.50      0.00
  -26    6   22      4.97      0.00
  -19    7   23      3.98      0.00
  -17    7   21     -4.36      0.00
  -15    7   19      3.94      0.00
  -13    7   17      0.14      0.00
  -11    7   15     -2.81      0.00
   -9    7   13      7.85      0.00
   -7    7   11     12.83      0.00
   -5    7    9    -30.85      0.00
   -3    7    7    -69.05      0.00
   -1    7    5    -70.87      0.00
    1    7    3     30.40      0.00
    3    7    1     73.75      0.00
   -5    7    1    -83.19      0.00
   -7    7    3    -38.62      0.00
   -9    7    5    -61.26      0.00
  -11    7    7    -20.04      0.00
  -13    7    9     -5.76      0.00
  -15    7   11     -3.94      0.00
  -17    7   13     -8.56      0.00
  -19    7   15     -0.24      0.00
  -21    7   17      0.95      0.00
  -23    7   19      4.24      0.00
  -25    7   21      0.55      0.00
  -20    8   24      2.64      0.00
  -18    8   22      6.55      0.00
  -16    8   20     -0.28      0.00
  -14    8   18     -3.81      0.00
  -12    8   16     13.59      0.00
  -10    8   14      7.71      0.00
   -8    8   12     -5.89      0.00
   -6    8   10      1.71      0.00
   -4    8    8     21.82      0.00
   -2    8    6     15.32      0.00
    0    8    4      9.98      0.00
    2    8    2   -103.05      0.00
    4    8    0     12.58      0.00
   -6    8    2     -9.02      0.00
   -8    8    4    -41.21      0.00
  -10    8    6    -34.98      0.00
  -12    8    8    -12.08      0.00
  -14    8   10     10.12      0.00
  -16    8   12     10.67      0.00
  -18    8   14     -2.54      0.00
  -20    8   16     -7.75      0.00
  -22    8   18     -3.43      0.00
  -24    8   20      7.19      0.00
  -19    9   23      2.13      0.00
  -17    9   21     -1.45      0.00
  -15    9   19      7.73      0.00
  -13    9   17      2.82      0.00
  -11    9   15     -6.38      0.00
   -9    9   13     12.98      0.00
   -7    9   11     16.91      0.00
   -5    9    9    -28.68      0.00
   -3    9    7     -8.52      0.00
   -1    9    5      3.64      0.00
    1    9    3     -4.78      0.00
    3    9    1      6.29      0.00
   -5    9    1    -62.99      0.00
   -7    9    3    -23.33      0.00
   -9    9    5    -43.65      0.00
  -11    9    7     -7.38      0.00
  -13    9    9      5.85      0.00
  -15    9   11      6.83      0.00
  -17    9   13     -3.95      0.00
  -19    9   15     -2.28      0.00
  -21    9   17      1.05      0.00
  -23    9   19      3.88      0.00
  -25    9   21     -1.93      0.00
  -18   10   22      1.38      0.00
  -16   10   20     -0.28      0.00
  -14   10   18      1.33      0.00
  -12   10   16     18.08      0.00
  -10   10   14     -1.03      0.00
   -8   10   12     -9.20      0.00
   -6   10   10      9.99      0.00
   -4   10    8     22.04      0.00
   -2   10    6     26.46      0.00
    0   10    4     59.37      0.00
    2   10    2    -35.97      0.00
    4   10    0     41.89      0.00
   -6   10    2     10.13      0.00
   -8   10    4    -23.10      0.00
  -10   10    6      0.33      0.00
  -12   10    8     10.07      0.00
  -14   10   10     18.43      0.00
  -16   10   12     12.62      0.00
  -18   10   14      2.17      0.00
  -20   10   16     -0.86      0.00
  -22   10   18      1.59      0.00
  -24   10   20      7.51      0.00
  -19   11   23      1.58      0.00
  -17   11   21     -0.76      0.00
  -15   11   19      9.42      0.00
  -13   11   17     -0.18      0.00
  -11   11   15    -12.74      0.00
   -9   11   13     -3.40      0.00
   -7   11   11     -6.73      0.00
   -5   11    9    -42.74      0.00
   -3   11    7     13.62      0.00
   -1   11    5     28.98      0.00
    1   11    3      1.94      0.00
    3   11    1     20.21      0.00
   -5   11    1     -4.53      0.00
   -7   11    3      1.90      0.00
   -9   11    5    -31.27      0.00
  -11   11    7     -0.24      0.00
  -13   11    9     13.09      0.00
  -15   11   11     11.34      0.00
  -17   11   13     -1.25      0.00
  -19   11   15      1.62      0.00
  -21   11   17      3.58      0.00
  -23   11   19     -1.23      0.00
  -25   11   21     -6.83      0.00
  -18   12   22      0.00      0.00
  -16   12   20     -4.53      0.00
  -14   12   18     -5.24      0.00
  -12   12   16      9.04      0.00
  -10   12   14     -7.69      0.00
   -8   12   12    -19.59      0.00
   -6   12   10      5.29      0.00
   -4   12    8      2.95      0.00
   -2   12    6    -10.60      0.00
    0   12    4     31.76      0.00
    2   12    2    -11.28      0.00
    4   12    0     22.76      0.00
   -6   12    2    -25.83      0.00
   -8   12    4    -34.23      0.00
  -10   12    6    -17.23      0.00
  -12   12    8     -9.60      0.00
  -14   12   10      4.26      0.00
  -16   12   12      5.72      0.00
  -18   12   14      2.87      0.00
  -20   12   16     -5.60      0.00
  -22   12   18     -4.69      0.00
  -24   12   20      5.55      0.00
  -19   13   23      4.43      0.00
  -17   13   21      1.31      0.00
  -15   13   19      7.06      0.00
  -13   13   17     -2.03      0.00
  -11   13   15    -11.95      0.00
   -9   13   13     -0.49      0.00
   -7   13   11      0.52      0.00
   -5   13    9    -28.74      0.00
   -3   13    7    -14.83      0.00
   -1   13    5    -11.41      0.00
    1   13    3      4.79      0.00
    3   13    1      8.50      0.00
   -5   13    1    -18.31      0.00
   -7   13    3     -5.08      0.00
   -9   13    5    -34.77      0.00
  -11   13    7     -2.11      0.00
  -13   13    9     15.09      0.00
  -15   13   11     17.71      0.00
  -17   13   13     -2.54      0.00
  -19   13   15     -6.00      0.00
  -21   13   17     -3.35      0.00
  -23   13   19     -2.53      0.00
  -25   13   21     -5.27      0.00
  -18   14   22      4.40      0.00
  -16   14   20      1.58      0.00
  -14   14   18     -3.51      0.00
  -12   14   16      9.14      0.00
  -10   14   14      0.06      0.00
   -8   14   12    -16.26      0.00
   -6   14   10     11.12      0.00
   -4   14    8     16.67      0.00
   -2   14    6     -6.93      0.00
    0   14    4     15.45      0.00
    2   14    2      8.88      0.00
    4   14    0     40.42      0.00
   -6   14    2    -20.12      0.00
   -8   14    4    -10.04      0.00
  -10   14    6     11.10      0.00
  -12   14    8     10.82      0.00
  -14   14   10     12.85      0.00
  -16   14   12     15.05      0.00
  -18   14   14      7.61      0.00
  -20   14   16     -9.61      0.00
  -22   14   18    -10.20      0.00
  -24   14   20      1.16      0.00
  -19   15   23      1.18      0.00
  -17   15   21      0.63      0.00
  -15   15   19      6.47      0.00
  -13   15   17      4.94      0.00
  -11   15   15     -1.92      0.00
   -9   15   13     12.15      0.00
   -7   15   11     12.55      0.00
   -5   15    9     -1.78      0.00
   -3   15    7      5.95      0.00
   -1   15    5     12.88      0.00
    1   15    3     25.15      0.00
    3   15    1      6.74      0.00
   -5   15    1     -5.85      0.00
   -7   15    3     24.81      0.00
   -9   15    5     -7.50      0.00
  -11   15    7     15.13      0.00
  -13   15    9     23.11      0.00
  -15   15   11     23.47      0.00
  -17   15   13     -4.17      0.00
  -19   15   15     -5.91      0.00
  -21   15   17     -1.05      0.00
  -23   15   19      1.15      0.00
  -18   16   22      1.21      0.00
  -16   16   20      0.74      0.00
  -14   16   18      0.53      0.00
  -12   16   16     11.48      0.00
  -10   16   14     -2.41      0.00
   -8   16   12    -17.54      0.00
   -6   16   10      4.66      0.00
   -4   16    8     10.12      0.00
   -2   16    6     -6.94      0.00
    0   16    4     -3.32      0.00
    2   16    2     -5.64      0.00
    4   16    0     39.14      0.00
   -6   16    2    -12.96      0.00
   -8   16    4     -7.53      0.00
  -10   16    6     21.68      0.00
  -12   16    8     17.02      0.00
  -14   16   10     -0.43      0.00
  -16   16   12      5.97      0.00
  -18   16   14      8.49      0.00
  -20   16   16     -2.87      0.00
  -22   16   18     -8.48      0.00
  -24   16   20     -3.04      0.00
  -17   17   21     -3.15      0.00
  -15   17   19      2.86      0.00
  -13   17   17     -1.07      0.00
  -11   17   15     -8.57      0.00
   -9   17   13     -2.20      0.00
   -7   17   11     -8.10      0.00
   -5   17    9    -20.24      0.00
   -3   17    7      0.82      0.00
   -1   17    5     10.92      0.00
    1   17    3     11.74      0.00
    3   17    1     -6.64      0.00
   -5   17    1     -2.16      0.00
   -7   17    3     32.83      0.00
   -9   17    5     -6.59      0.00
  -11   17    7      6.92      0.00
  -13   17    9     12.66      0.00
  -15   17   11      7.76      0.00
  -17   17   13    -11.46      0.00
  -19   17   15     -6.36      0.00
  -21   17   17      0.21      0.00
  -23   17   19      1.96      0.00
  -18   18   22      2.18      0.00
  -16   18   20     -3.09      0.00
  -14   18   18     -2.14      0.00
  -12   18   16      6.86      0.00
  -10   18   14     -5.51      0.00
   -8   18   12     -4.06      0.00
   -6   18   10      6.61      0.00
   -4   18    8     -6.28      0.00
   -2   18    6    -10.94      0.00
    0   18    4     -0.79      0.00
    2   18    2    -10.88      0.00
    4   18    0     19.52      0.00
   -6   18    2    -22.61      0.00
   -8   18    4    -15.71      0.00
  -10   18    6      9.41      0.00
  -12   18    8      5.80      0.00
  -14   18   10     -0.64      0.00
  -16   18   12      5.58      0.00
  -18   18   14      1.57      0.00
  -20   18   16     -2.65      0.00
  -22   18   18     -7.09      0.00
  -24   18   20      0.35      0.00
  -17   19   21     -1.48      0.00
  -15   19   19      6.58      0.00
  -13   19   17     -0.55      0.00
  -11   19   15      1.06      0.00
   -9   19   13     10.06      0.00
   -7   19   11      4.82      0.00
   -5   19    9     -6.47      0.00
   -3   19    7      8.93      0.00
   -1   19    5      5.89      0.00
    1   19    3     12.82      0.00
    3   19    1      5.75      0.00
   -5   19    1      0.23      0.00
   -7   19    3     24.55      0.00
   -9   19    5      3.45      0.00
  -11   19    7      5.04      0.00
  -13   19    9     16.52      0.00
  -15   19   11     15.29      0.00
  -17   19   13     -4.06      0.00
  -19   19   15     -6.22      0.00
  -21   19   17      0.37      0.00
  -23   19   19     -0.01      0.00
  -16   20   20     -1.19      0.00
  -14   20   18     -0.61      0.00
  -12   20   16     11.15      0.00
  -10   20   14      5.40      0.00
   -8   20   12      2.36      0.00
   -6   20   10      8.71      0.00
   -4   20    8      0.49      0.00
   -2   20    6     -8.47      0.00
    0   20    4     -3.49      0.00
    2   20    2     -3.65      0.00
    4   20    0     27.49      0.00
   -6   20    2    -15.96      0.00
   -8   20    4    -10.45      0.00
  -10   20    6     14.39      0.00
  -12   20    8      8.97      0.00
  -14   20   10      8.65      0.00
  -16   20   12      7.24      0.00
  -18   20   14     -2.38      0.00
  -20   20   16     -2.26      0.00
  -22   20   18     -7.96      0.00
  -17   21   21     -4.50      0.00
  -15   21   19      3.90      0.00
  -13   21   17      3.85      0.00
  -11   21   15      8.53      0.00
   -9   21   13      9.93      0.00
   -7   21   11      1.60      0.00
   -5   21    9      0.47      0.00
   -3   21    7      2.23      0.00
   -1   21    5     -4.97      0.00
    1   21    3      2.60      0.00
    3   21    1     -3.85      0.00
   -5   21    1     -7.51      0.00
   -7   21    3     16.10      0.00
   -9   21    5      6.15      0.00
  -11   21    7      6.44      0.00
  -13   21    9     10.99      0.00
  -15   21   11      8.23      0.00
  -17   21   13     -2.01      0.00
  -19   21   15     -3.71      0.00
  -21   21   17      0.29      0.00
  -23   21   19      0.90      0.00
  -16   22   20     -4.57      0.00
  -14   22   18     -0.39      0.00
  -12   22   16     12.92      0.00
  -10   22   14      1.45      0.00
   -8   22   12    -10.17      0.00
   -6   22   10      0.12      0.00
   -4   22    8     -0.72      0.00
   -2   22    6     -6.10      0.00
    0   22    4     -7.26      0.00
    2   22    2    -15.01      0.00
    4   22    0     10.00      0.00
   -6   22    2    -14.52      0.00
   -8   22    4    -17.13      0.00
  -10   22    6     -0.62      0.00
  -12   22    8      0.33      0.00
  -14   22   10     -2.37      0.00
  -16   22   12     -1.01      0.00
  -18   22   14      1.33      0.00
  -20   22   16      3.44      0.00
  -22   22   18     -4.92      0.00
  -15   23   19      1.92      0.00
  -13   23   17      3.08      0.00
  -11   23   15      0.65      0.00
   -9   23   13      2.51      0.00
   -7   23   11     -2.33      0.00
   -5   23    9     -7.53      0.00
   -3   23    7     -2.69      0.00
   -1   23    5      3.52      0.00
    1   23    3      4.54      0.00
    3   23    1    -11.84      0.00
   -5   23    1    -17.97      0.00
   -7   23    3      6.89      0.00
   -9   23    5     -1.46      0.00
  -11   23    7      0.36      0.00
  -13   23    9     -1.17      0.00
  -15   23   11     -3.77      0.00
  -17   23   13     -4.58      0.00
  -19   23   15     -6.29      0.00
  -21   23   17     -0.47      0.00
  -16   24   20     -1.29      0.00
  -14   24   18     -1.47      0.00
  -12   24   16      7.91      0.00
  -10   24   14     -1.72      0.00
   -8   24   12     -0.91      0.00
   -6   24   10      2.14      0.00
   -4   24    8     -1.18      0.00
   -2   24    6      8.40      0.00
    0   24    4     10.32      0.00
    2   24    2     -6.69      0.00
    4   24    0      5.33      0.00
   -6   24    2     -0.47      0.00
   -8   24    4     -1.34      0.00
  -10   24    6     -2.01      0.00
  -12   24    8     -1.40      0.00
  -14   24   10      2.09      0.00
  -16   24   12      1.73      0.00
  -18   24   14      0.94      0.00
  -20   24   16      2.94      0.00
  -22   24   18     -2.40      0.00
  -15   25   19      3.13      0.00
  -13   25   17      0.11      0.00
  -11   25   15     -1.29      0.00
   -9   25   13      9.90      0.00
   -7   25   11      6.56      0.00
   -5   25    9     -4.06      0.00
   -3   25    7      5.61      0.00
   -1   25    5      8.70      0.00
    1   25    3     14.00      0.00
    3   25    1      5.11      0.00
   -5   25    1    -10.30      0.00
   -7   25    3      1.31      0.00
   -9   25    5      2.58      0.00
  -11   25    7      2.66      0.00
  -13   25    9      5.89      0.00
  -15   25   11      5.33      0.00
  -17   25   13      0.94      0.00
  -19   25   15     -4.48      0.00
  -21   25   17      4.61      0.00
  -14   26   18     -1.11      0.00
  -12   26   16      7.09      0.00
  -10   26   14      0.71      0.00
   -8   26   12      0.65      0.00
   -6   26   10      5.86      0.00
   -4   26    8      4.59      0.00
   -2   26    6      0.56      0.00
    0   26    4     -1.59      0.00
    2   26    2     -8.71      0.00
    4   26    0      5.51      0.00
   -6   26    2     -2.81      0.00
   -8   26    4     -6.68      0.00
  -10   26    6     -4.36      0.00
  -12   26    8     -2.30      0.00
  -14   26   10      1.48      0.00
  -16   26   12      0.17      0.00
  -18   26   14      2.86      0.00
  -20   26   16      4.93      0.00
  -15   27   19      2.14      0.00
  -13   27   17      1.33      0.00
  -11   27   15     -1.64      0.00
   -9   27   13     -0.62      0.00
   -7   27   11     -5.17      0.00
   -5   27    9     -7.89      0.00
   -3   27    7     -7.74      0.00
   -1   27    5    -12.31      0.00
    1   27    3      2.05      0.00
    3   27    1      0.65      0.00
   -5   27    1    -13.22      0.00
   -7   27    3    -10.28      0.00
   -9   27    5     -5.15      0.00
  -11   27    7     -4.22      0.00
  -13   27    9     -1.87      0.00
  -15   27   11      0.05      0.00
  -17   27   13     -2.79      0.00
  -19   27   15     -2.48      0.00
  -21   27   17      3.57      0.00
  -14   28   18      2.47      0.00
  -12   28   16      7.84      0.00
  -10   28   14     -2.40      0.00
   -8   28   12    -13.83      0.00
   -6   28   10     -2.60      0.00
   -4   28    8      1.92      0.00
   -2   28    6     -0.93      0.00
    0   28    4     -0.09      0.00
    2   28    2     -5.32      0.00
    4   28    0      8.80      0.00
   -6   28    2      0.71      0.00
   -8   28    4     -7.41      0.00
  -10   28    6     -4.96      0.00
  -12   28    8     -5.05      0.00
  -14   28   10     -5.11      0.00
  -16   28   12     -5.04      0.00
  -18   28   14      1.83      0.00
  -20   28   16      6.92      0.00
  -13   29   17      2.73      0.00
  -11   29   15     -0.78      0.00
   -9   29   13     -0.72      0.00
   -7   29   11     -2.19      0.00
   -5   29    9     -5.44      0.00
   -3   29    7     -1.41      0.00
   -1   29    5     -0.78      0.00
    1   29    3     11.64      0.00
    3   29    1      6.46      0.00
   -5   29    1     -6.41      0.00
   -7   29    3     -1.13      0.00
   -9   29    5      0.46      0.00
  -11   29    7     -1.48      0.00
  -13   29    9     -4.32      0.00
  -15   29   11      1.58      0.00
  -17   29   13      1.20      0.00
  -19   29   15     -0.53      0.00
  -12   30   16      4.39      0.00
  -10   30   14      0.68      0.00
   -8   30   12     -5.64      0.00
   -6   30   10      0.67      0.00
   -4   30    8      4.52      0.00
   -2   30    6     10.25      0.00
    0   30    4      8.12      0.00
    2   30    2     -4.63      0.00
    4   30    0      7.44      0.00
   -6   30    2      8.80      0.00
   -8   30    4      4.68      0.00
  -10   30    6     -0.74      0.00
  -12   30    8     -1.14      0.00
  -14   30   10      0.89      0.00
  -16   30   12     -3.10      0.00
  -18   30   14     -1.55      0.00
  -13   31   17     -2.03      0.00
  -11   31   15     -4.27      0.00
   -9   31   13      3.91      0.00
   -7   31   11      6.30      0.00
   -5   31    9     -5.88      0.00
   -3   31    7      1.55      0.00
   -1   31    5      3.83      0.00
    1   31    3     10.89      0.00
    3   31    1      3.60      0.00
   -5   31    1     -7.42      0.00
   -7   31    3      2.56      0.00
   -9   31    5      1.28      0.00
  -11   31    7     -0.05      0.00
  -13   31    9     -0.79      0.00
  -15   31   11      1.53      0.00
  -17   31   13      1.30      0.00
  -12   32   16     -0.04      0.00
  -10   32   14      1.78      0.00
   -8   32   12     -0.72      0.00
   -6   32   10      3.79      0.00
   -4   32    8      3.33      0.00
   -2   32    6      4.39      0.00
    0   32    4      0.65      0.00
    2   32    2     -7.80      0.00
    4   32    0      2.25      0.00
   -6   32    2     -0.02      0.00
   -8   32    4     -5.52      0.00
  -10   32    6     -5.28      0.00
  -12   32    8      0.71      0.00
  -14   32   10      4.17      0.00
  -16   32   12     -5.06      0.00
  -18   32   14     -2.87      0.00
  -11   33   15     -3.99      0.00
   -9   33   13      1.32      0.00
   -7   33   11      3.68      0.00
   -5   33    9     -3.79      0.00
   -3   33    7      1.68      0.00
   -1   33    5      3.67      0.00
    1   33    3     10.06      0.00
    3   33    1      3.98      0.00
   -5   33    1     -5.03      0.00
   -7   33    3      3.00      0.00
   -9   33    5     -0.17      0.00
  -11   33    7      1.21      0.00
  -13   33    9     -0.54      0.00
  -15   33   11     -3.41      0.00
  -17   33   13     -4.18      0.00
  -10   34   14      2.76      0.00
   -8   34   12     -3.05      0.00
   -6   34   10     -0.95      0.00
   -4   34    8     -0.91      0.00
   -2   34    6      1.16      0.00
    0   34    4      2.43      0.00
    2   34    2     -0.21      0.00
    4   34    0      7.46      0.00
   -6   34    2      3.88      0.00
   -8   34    4     -2.09      0.00
  -10   34    6     -1.35      0.00
  -12   34    8      0.44      0.00
  -14   34   10      1.76      0.00
  -16   34   12     -6.02      0.00
   -9   35   13     -3.79      0.00
   -7   35   11     -3.08      0.00
   -5   35    9     -2.03      0.00
   -3   35    7      5.03      0.00
   -1   35    5      4.80      0.00
    1   35    3     11.08      0.00
    3   35    1      6.50      0.00
   -5   35    1      1.25      0.00
   -7   35    3      5.92      0.00
   -9   35    5      2.49      0.00
  -11   35    7      1.84      0.00
  -13   35    9     -1.14      0.00
  -15   35   11     -2.38      0.00
   -8   36   12     -1.49      0.00
   -6   36   10      1.50      0.00
   -4   36    8      1.69      0.00
   -2   36    6      2.79      0.00
    0   36    4      5.08      0.00
    2   36    2     -1.66      0.00
    4   36    0      1.90      0.00
   -6   36    2     -0.45      0.00
   -8   36    4     -1.39      0.00
  -10   36    6     -3.10      0.00
  -12   36    8     -2.80      0.00
  -14   36   10     -0.52      0.00
   -7   37   11     -3.16      0.00
   -5   37    9     -1.21      0.00
   -3   37    7      1.99      0.00
   -1   37    5     -1.81      0.00
    1   37    3      0.37      0.00
    3   37    1     -5.24      0.00
   -5   37    1     -7.26      0.00
   -7   37    3     -2.73      0.00
   -9   37    5     -2.81      0.00
  -11   37    7     -4.69      0.00
  -13   37    9     -5.14      0.00
   -6   38   10      1.64      0.00
   -4   38    8     -2.33      0.00
   -2   38    6     -6.21      0.00
    0   38    4     -2.32      0.00
    2   38    2     -4.76      0.00
    4   38    0      0.01      0.00
   -6   38    2     -6.25      0.00
   -8   38    4     -8.21      0.00
  -10   38    6     -4.54      0.00
  -12   38    8     -4.44      0.00
   -5   39    9      1.48      0.00
   -3   39    7      1.77      0.00
   -1   39    5     -0.35      0.00
    1   39    3      1.10      0.00
    3   39    1     -0.56      0.00
   -5   39    1     -2.62      0.00
   -7   39    3      0.94      0.00
   -9   39    5     -2.19      0.00
  -11   39    7     -1.49      0.00
   -4   40    8     -3.42      0.00
   -2   40    6     -2.36      0.00
    0   40    4      1.23      0.00
    2   40    2     -0.35      0.00
    4   40    0      4.42      0.00
   -6   40    2      4.96      0.00
   -8   40    4     -1.08      0.00
  -10   40    6     -1.84      0.00
   -3   41    7      3.53      0.00
   -1   41    5      1.93      0.00
    1   41    3      0.41      0.00
    3   41    1      0.49      0.00
   -5   41    1     -0.74      0.00
   -7   41    3      5.59      0.00
   -9   41    5     -0.40      0.00
    0   42    4     -0.04      0.00
    2   42    2     -3.79      0.00
    4   42    0     -1.99      0.00
   -6   42    2      0.42      0.00
  -18    0   23     -3.27      0.00
  -16    0   21     -2.83      0.00
  -14    0   19     -0.56      0.00
  -12    0   17      9.60      0.00
  -10    0   15     -0.23      0.00
   -8    0   13     -1.76      0.00
   -6    0   11     25.33      0.00
   -4    0    9    -40.72      0.00
   -2    0    7    -33.08      0.00
    0    0    5    -69.08      0.00
    2    0    3    -92.49      0.00
    4    0    1   -238.75      0.00
   -6    0    1    -79.61      0.00
   -8    0    3     15.32      0.00
  -10    0    5    -12.64      0.00
  -12    0    7    -41.29      0.00
  -14    0    9     -4.35      0.00
  -16    0   11      7.95      0.00
  -18    0   13    -10.45      0.00
  -20    0   15    -13.45      0.00
  -22    0   17     -8.42      0.00
  -24    0   19     14.72      0.00
  -26    0   21      2.89      0.00
  -19    1   24      6.26      0.00
  -17    1   22      1.88      0.00
  -15    1   20     -7.91      0.00
  -13    1   18     -0.75      0.00
  -11    1   16     -3.89      0.00
   -9    1   14     21.06      0.00
   -7    1   12      0.30      0.00
   -5    1   10    -20.34      0.00
   -3    1    8    -41.17      0.00
   -1    1    6    -43.19      0.00
    1    1    4     -2.70      0.00
    3    1    2     50.48      0.00
    5    1    0    -23.26      0.00
   -7    1    2    -70.97      0.00
   -9    1    4     -8.86      0.00
  -11    1    6     18.45      0.00
  -13    1    8     11.74      0.00
  -15    1   10    -24.87      0.00
  -17    1   12     -6.43      0.00
  -19    1   14     -3.09      0.00
  -21    1   16     -0.54      0.00
  -23    1   18     -4.17      0.00
  -25    1   20      0.15      0.00
  -18    2   23     -0.40      0.00
  -16    2   21      1.93      0.00
  -14    2   19     -0.77      0.00
  -12    2   17      7.76      0.00
  -10    2   15     10.28      0.00
   -8    2   13     13.34      0.00
   -6    2   11     14.52      0.00
   -4    2    9    -44.43      0.00
   -2    2    7     -6.04      0.00
    0    2    5    -81.94      0.00
    2    2    3    -62.85      0.00
    4    2    1    -27.08      0.00
   -6    2    1     51.27      0.00
   -8    2    3     17.02      0.00
  -10    2    5    -17.72      0.00
  -12    2    7    -26.23      0.00
  -14    2    9     11.32      0.00
  -16    2   11     13.70      0.00
  -18    2   13     -9.88      0.00
  -20    2   15     -6.73      0.00
  -22    2   17     -0.78      0.00
  -24    2   19     10.71      0.00
  -26    2   21      1.03      0.00
  -19    3   24      3.07      0.00
  -17    3   22      5.84      0.00
  -15    3   20      0.32      0.00
  -13    3   18     -4.60      0.00
  -11    3   16     -3.29      0.00
   -9    3   14     34.33      0.00
   -7    3   12      7.24      0.00
   -5    3   10    -38.93      0.00
   -3    3    8    -38.64      0.00
   -1    3    6     -5.87      0.00
    1    3    4     28.84      0.00
    3    3    2     76.73      0.00
    5    3    0     86.29      0.00
   -7    3    2    -19.85      0.00
   -9    3    4     -6.27      0.00
  -11    3    6     26.67      0.00
  -13    3    8     36.73      0.00
  -15    3   10     -2.07      0.00
  -17    3   12      5.21      0.00
  -19    3   14     -3.88      0.00
  -21    3   16      3.73      0.00
  -23    3   18     -4.25      0.00
  -25    3   20     -3.29      0.00
  -18    4   23      0.92      0.00
  -16    4   21     -0.65      0.00
  -14    4   19     -2.91      0.00
  -12    4   17      1.10      0.00
  -10    4   15      4.71      0.00
   -8    4   13     12.74      0.00
   -6    4   11      7.83      0.00
   -4    4    9    -46.89      0.00
   -2    4    7    -15.97      0.00
    0    4    5   -141.03      0.00
    2    4    3    -65.64      0.00
    4    4    1     98.95      0.00
   -6    4    1     89.28      0.00
   -8    4    3     13.57      0.00
  -10    4    5     -7.28      0.00
  -12    4    7    -18.53      0.00
  -14    4    9      9.60      0.00
  -16    4   11      8.73      0.00
  -18    4   13     -6.61      0.00
  -20    4   15      0.90      0.00
  -22    4   17     -3.50      0.00
  -24    4   19      2.37      0.00
  -26    4   21      0.40      0.00
  -19    5   24     -0.91      0.00
  -17    5   22      1.03      0.00
  -15    5   20     -0.96      0.00
  -13    5   18     -0.78      0.00
  -11    5   16      1.07      0.00
   -9    5   14     27.51      0.00
   -7    5   12      8.90      0.00
   -5    5   10    -17.36      0.00
   -3    5    8    -34.25      0.00
   -1    5    6    -33.68      0.00
    1    5    4      2.01      0.00
    3    5    2    -33.93      0.00
    5    5    0    -11.25      0.00
   -7    5    2    -35.89      0.00
   -9    5    4    -25.63      0.00
  -11    5    6      2.21      0.00
  -13    5    8     23.39      0.00
  -15    5   10    -13.31      0.00
  -17    5   12     -0.45      0.00
  -19    5   14      1.36      0.00
  -21    5   16      3.38      0.00
  -23    5   18     -2.07      0.00
  -25    5   20     -0.06      0.00
  -18    6   23      1.15      0.00
  -16    6   21     -2.04      0.00
  -14    6   19      4.94      0.00
  -12    6   17      6.00      0.00
  -10    6   15     -0.55      0.00
   -8    6   13      6.36      0.00
   -6    6   11     28.82      0.00
   -4    6    9    -16.22      0.00
   -2    6    7      7.00      0.00
    0    6    5    -75.19      0.00
    2    6    3    -23.53      0.00
    4    6    1     32.72      0.00
   -6    6    1     45.68      0.00
   -8    6    3     43.72      0.00
  -10    6    5     23.30      0.00
  -12    6    7    -11.07      0.00
  -14    6    9     -6.62      0.00
  -16    6   11      5.65      0.00
  -18    6   13      3.56      0.00
  -20    6   15      5.31      0.00
  -22    6   17     -8.17      0.00
  -24    6   19      2.45      0.00
  -26    6   21      0.03      0.00
  -19    7   24      0.95      0.00
  -17    7   22      2.34      0.00
  -15    7   20     -2.01      0.00
  -13    7   18      4.72      0.00
  -11    7   16      8.14      0.00
   -9    7   14     25.11      0.00
   -7    7   12      2.02      0.00
   -5    7   10     -5.57      0.00
   -3    7    8    -10.06      0.00
   -1    7    6     11.45      0.00
    1    7    4     55.10      0.00
    3    7    2      8.89      0.00
    5    7    0     37.41      0.00
   -7    7    2     31.53      0.00
   -9    7    4     12.15      0.00
  -11    7    6     14.13      0.00
  -13    7    8     19.89      0.00
  -15    7   10    -14.16      0.00
  -17    7   12      1.55      0.00
  -19    7   14      0.78      0.00
  -21    7   16      3.78      0.00
  -23    7   18      5.31      0.00
  -25    7   20      1.11      0.00
  -18    8   23      3.82      0.00
  -16    8   21      0.32      0.00
  -14    8   19      7.09      0.00
  -12    8   17      5.76      0.00
  -10    8   15     -2.05      0.00
   -8    8   13      4.33      0.00
   -6    8   11     18.14      0.00
   -4    8    9    -15.35      0.00
   -2    8    7     27.55      0.00
    0    8    5     -1.85      0.00
    2    8    3     35.11      0.00
    4    8    1     73.43      0.00
   -8    8    3     50.83      0.00
  -10    8    5     18.57      0.00
  -12    8    7     -8.85      0.00
  -14    8    9     -9.24      0.00
  -16    8   11      4.82      0.00
  -18    8   13      2.78      0.00
  -20    8   15     11.14      0.00
  -22    8   17      0.09      0.00
  -24    8   19      7.67      0.00
  -26    8   21      0.14      0.00
  -19    9   24      2.64      0.00
  -17    9   22      6.20      0.00
  -15    9   20     -6.38      0.00
  -13    9   18     -8.28      0.00
  -11    9   16     -5.20      0.00
   -9    9   14     21.27      0.00
   -7    9   12     -4.71      0.00
   -5    9   10    -19.02      0.00
   -3    9    8     -9.34      0.00
   -1    9    6      3.47      0.00
    1    9    4     27.06      0.00
    3    9    2     43.12      0.00
    5    9    0     55.95      0.00
   -7    9    2     -0.27      0.00
   -9    9    4     12.64      0.00
  -11    9    6     -3.29      0.00
  -13    9    8     -7.57      0.00
  -15    9   10    -23.05      0.00
  -17    9   12     -4.70      0.00
  -19    9   14     -6.88      0.00
  -21    9   16      3.56      0.00
  -23    9   18     -0.36      0.00
  -25    9   20     -3.97      0.00
  -18   10   23      4.10      0.00
  -16   10   21     -1.74      0.00
  -14   10   19     -1.78      0.00
  -12   10   17     -2.28      0.00
  -10   10   15     -9.76      0.00
   -8   10   13      3.28      0.00
   -6   10   11     12.08      0.00
   -4   10    9    -15.90      0.00
   -2   10    7     -6.36      0.00
    0   10    5    -50.91      0.00
    2   10    3      4.01      0.00
    4   10    1     62.52      0.00
   -6   10    1     57.00      0.00
   -8   10    3     -7.07      0.00
  -10   10    5    -12.78      0.00
  -12   10    7    -19.55      0.00
  -14   10    9     -9.13      0.00
  -16   10   11     -5.27      0.00
  -18   10   13     -4.38      0.00
  -20   10   15      8.91      0.00
  -22   10   17     -4.35      0.00
  -24   10   19      7.95      0.00
  -26   10   21      7.33      0.00
  -17   11   22      5.85      0.00
  -15   11   20     -3.08      0.00
  -13   11   18    -10.98      0.00
  -11   11   16     -7.91      0.00
   -9   11   14     17.50      0.00
   -7   11   12      1.60      0.00
   -5   11   10     -3.29      0.00
   -3   11    8     15.48      0.00
   -1   11    6      2.75      0.00
    1   11    4      1.65      0.00
    3   11    2      9.47      0.00
    5   11    0     17.34      0.00
   -7   11    2    -27.95      0.00
   -9   11    4      6.16      0.00
  -11   11    6      1.07      0.00
  -13   11    8      4.20      0.00
  -15   11   10    -10.82      0.00
  -17   11   12      5.01      0.00
  -19   11   14     -1.18      0.00
  -21   11   16      5.19      0.00
  -23   11   18     -5.10      0.00
  -25   11   20     -4.66      0.00
  -18   12   23      0.92      0.00
  -16   12   21     -1.98      0.00
  -14   12   19     -0.11      0.00
  -12   12   17      2.41      0.00
  -10   12   15     -3.77      0.00
   -8   12   13     12.22      0.00
   -6   12   11     29.82      0.00
   -4   12    9      7.46      0.00
   -2   12    7     19.52      0.00
    0   12    5    -16.14      0.00
    2   12    3      1.36      0.00
    4   12    1     20.51      0.00
   -6   12    1     30.29      0.00
   -8   12    3     -6.33      0.00
  -10   12    5    -11.15      0.00
  -12   12    7    -14.46      0.00
  -14   12    9     -0.91      0.00
  -16   12   11      1.39      0.00
  -18   12   13      1.46      0.00
  -20   12   15      2.51      0.00
  -22   12   17     -6.43      0.00
  -24   12   19     11.21      0.00
  -17   13   22      1.25      0.00
  -15   13   20     -2.54      0.00
  -13   13   18     -2.51      0.00
  -11   13   16     -4.22      0.00
   -9   13   14      9.74      0.00
   -7   13   12      4.33      0.00
   -5   13   10      3.62      0.00
   -3   13    8      6.74      0.00
   -1   13    6     10.81      0.00
    1   13    4     20.78      0.00
    3   13    2     -9.50      0.00
    5   13    0     10.19      0.00
   -7   13    2      0.02      0.00
   -9   13    4      5.86      0.00
  -11   13    6      5.60      0.00
  -13   13    8      6.47      0.00
  -15   13   10     -8.92      0.00
  -17   13   12      7.30      0.00
  -19   13   14     -2.34      0.00
  -21   13   16      5.70      0.00
  -23   13   18      0.81      0.00
  -25   13   20     -2.22      0.00
  -18   14   23      0.85      0.00
  -16   14   21     -1.12      0.00
  -14   14   19     -1.77      0.00
  -12   14   17     -4.98      0.00
  -10   14   15    -11.38      0.00
   -8   14   13     -6.18      0.00
   -6   14   11      5.05      0.00
   -4   14    9    -18.79      0.00
   -2   14    7     -0.10      0.00
    0   14    5    -16.89      0.00
    2   14    3    -15.20      0.00
    4   14    1     -4.01      0.00
   -6   14    1     12.08      0.00
   -8   14    3     -2.22      0.00
  -10   14    5    -11.11      0.00
  -12   14    7    -21.46      0.00
  -14   14    9     -6.81      0.00
  -16   14   11     -4.29      0.00
  -18   14   13     -2.94      0.00
  -20   14   15      0.99      0.00
  -22   14   17     -1.44      0.00
  -24   14   19      9.27      0.00
  -17   15   22      0.24      0.00
  -15   15   20     -6.66      0.00
  -13   15   18     -3.47      0.00
  -11   15   16    -11.96      0.00
   -9   15   14     -0.38      0.00
   -7   15   12      7.33      0.00
   -5   15   10      7.24      0.00
   -3   15    8    -22.11      0.00
   -1   15    6    -22.28      0.00
    1   15    4     17.45      0.00
    3   15    2      3.07      0.00
    5   15    0     -7.06      0.00
   -7   15    2    -21.33      0.00
   -9   15    4    -12.94      0.00
  -11   15    6     -1.35      0.00
  -13   15    8    -12.78      0.00
  -15   15   10    -21.24      0.00
  -17   15   12     -0.58      0.00
  -19   15   14     -4.35      0.00
  -21   15   16      3.24      0.00
  -23   15   18      1.28      0.00
  -25   15   20      1.04      0.00
  -18   16   23      2.12      0.00
  -16   16   21      1.16      0.00
  -14   16   19     -2.43      0.00
  -12   16   17     -3.98      0.00
  -10   16   15     -1.03      0.00
   -8   16   13     -1.37      0.00
   -6   16   11      7.18      0.00
   -4   16    9     -5.43      0.00
   -2   16    7    -10.18      0.00
    0   16    5    -37.75      0.00
    2   16    3    -24.85      0.00
    4   16    1      0.17      0.00
   -6   16    1     -2.39      0.00
   -8   16    3    -18.19      0.00
  -10   16    5    -11.39      0.00
  -12   16    7    -17.32      0.00
  -14   16    9     -3.29      0.00
  -16   16   11     -2.60      0.00
  -18   16   13     -2.48      0.00
  -20   16   15      4.04      0.00
  -22   16   17     -1.89      0.00
  -24   16   19      2.22      0.00
  -17   17   22      0.90      0.00
  -15   17   20     -0.55      0.00
  -13   17   18      1.99      0.00
  -11   17   16     -5.85      0.00
   -9   17   14      6.50      0.00
   -7   17   12     11.31      0.00
   -5   17   10      4.85      0.00
   -3   17    8     -7.64      0.00
   -1   17    6    -10.47      0.00
    1   17    4     18.13      0.00
    3   17    2     23.72      0.00
    5   17    0     15.35      0.00
   -7   17    2      2.08      0.00
   -9   17    4      0.83      0.00
  -11   17    6     11.63      0.00
  -13   17    8     -2.27      0.00
  -15   17   10    -12.24      0.00
  -17   17   12      4.98      0.00
  -19   17   14     -0.33      0.00
  -21   17   16      1.12      0.00
  -23   17   18     -1.60      0.00
  -16   18   21     -0.85      0.00
  -14   18   19     -2.19      0.00
  -12   18   17      3.53      0.00
  -10   18   15     11.34      0.00
   -8   18   13      7.76      0.00
   -6   18   11      6.62      0.00
   -4   18    9      8.20      0.00
   -2   18    7      4.61      0.00
    0   18    5    -20.33      0.00
    2   18    3    -22.63      0.00
    4   18    1     -2.47      0.00
   -6   18    1      4.51      0.00
   -8   18    3     -0.08      0.00
  -10   18    5     -2.52      0.00
  -12   18    7    -14.82      0.00
  -14   18    9      5.76      0.00
  -16   18   11      6.88      0.00
  -18   18   13      0.30      0.00
  -20   18   15      6.04      0.00
  -22   18   17     -2.27      0.00
  -24   18   19      3.57      0.00
  -17   19   22     -0.63      0.00
  -15   19   20      0.75      0.00
  -13   19   18      2.16      0.00
  -11   19   16     -1.28      0.00
   -9   19   14      3.59      0.00
   -7   19   12      1.19      0.00
   -5   19   10     -8.64      0.00
   -3   19    8     -3.24      0.00
   -1   19    6     -1.17      0.00
    1   19    4      5.76      0.00
    3   19    2      6.81      0.00
    5   19    0      5.15      0.00
   -7   19    2     10.49      0.00
   -9   19    4      3.05      0.00
  -11   19    6     -3.24      0.00
  -13   19    8     -7.41      0.00
  -15   19   10    -15.94      0.00
  -17   19   12      2.46      0.00
  -19   19   14      0.76      0.00
  -21   19   16      3.43      0.00
  -23   19   18     -1.38      0.00
  -16   20   21     -1.74      0.00
  -14   20   19     -0.16      0.00
  -12   20   17      1.46      0.00
  -10   20   15     -1.32      0.00
   -8   20   13     -6.01      0.00
   -6   20   11     -0.94      0.00
   -4   20    9     -1.70      0.00
   -2   20    7     -6.68      0.00
    0   20    5    -14.93      0.00
    2   20    3    -20.28      0.00
    4   20    1     -8.14      0.00
   -6   20    1     -9.03      0.00
   -8   20    3     -1.42      0.00
  -10   20    5      2.19      0.00
  -12   20    7    -14.33      0.00
  -14   20    9     -0.62      0.00
  -16   20   11      0.21      0.00
  -18   20   13     -1.05      0.00
  -20   20   15      4.34      0.00
  -22   20   17     -4.51      0.00
  -24   20   19      4.18      0.00
  -15   21   20     -1.04      0.00
  -13   21   18      0.66      0.00
  -11   21   16     -0.78      0.00
   -9   21   14      0.35      0.00
   -7   21   12      6.42      0.00
   -5   21   10      5.41      0.00
   -3   21    8     -4.31      0.00
   -1   21    6      0.34      0.00
    1   21    4     15.24      0.00
    3   21    2     17.80      0.00
    5   21    0      4.58      0.00
   -7   21    2      7.13      0.00
   -9   21    4      4.02      0.00
  -11   21    6      8.22      0.00
  -13   21    8      3.01      0.00
  -15   21   10    -12.06      0.00
  -17   21   12      6.16      0.00
  -19   21   14      1.63      0.00
  -21   21   16      1.13      0.00
  -23   21   18     -2.87      0.00
  -16   22   21     -6.05      0.00
  -14   22   19      2.16      0.00
  -12   22   17      4.82      0.00
  -10   22   15     -0.04      0.00
   -8   22   13      3.70      0.00
   -6   22   11     18.94      0.00
   -4   22    9     11.80      0.00
   -2   22    7      5.14      0.00
    0   22    5      1.59      0.00
    2   22    3      0.68      0.00
    4   22    1     12.23      0.00
   -6   22    1     -1.39      0.00
   -8   22    3     -2.16      0.00
  -10   22    5     15.78      0.00
  -12   22    7      2.61      0.00
  -14   22    9      5.71      0.00
  -16   22   11      8.99      0.00
  -18   22   13      7.77      0.00
  -20   22   15      4.98      0.00
  -22   22   17     -3.61      0.00
  -15   23   20     -3.37      0.00
  -13   23   18     -2.30      0.00
  -11   23   16      0.04      0.00
   -9   23   14     12.32      0.00
   -7   23   12     11.22      0.00
   -5   23   10      7.95      0.00
   -3   23    8      6.01      0.00
   -1   23    6      3.65      0.00
    1   23    4      3.22      0.00
    3   23    2      6.51      0.00
    5   23    0     10.97      0.00
   -7   23    2     16.51      0.00
   -9   23    4     -3.91      0.00
  -11   23    6      5.66      0.00
  -13   23    8     10.13      0.00
  -15   23   10     -4.98      0.00
  -17   23   12      3.96      0.00
  -19   23   14     -1.33      0.00
  -21   23   16      1.75      0.00
  -23   23   18     -3.26      0.00
  -14   24   19     -1.66      0.00
  -12   24   17      4.88      0.00
  -10   24   15      3.04      0.00
   -8   24   13      3.30      0.00
   -6   24   11      6.87      0.00
   -4   24    9      4.00      0.00
   -2   24    7      1.40      0.00
    0   24    5     -4.78      0.00
    2   24    3     -6.50      0.00
    4   24    1      3.02      0.00
   -6   24    1     -4.21      0.00
   -8   24    3      0.23      0.00
  -10   24    5      6.89      0.00
  -12   24    7     -8.46      0.00
  -14   24    9      0.86      0.00
  -16   24   11      4.79      0.00
  -18   24   13     -0.56      0.00
  -20   24   15      0.76      0.00
  -22   24   17     -3.07      0.00
  -15   25   20     -0.23      0.00
  -13   25   18     -2.71      0.00
  -11   25   16     -3.49      0.00
   -9   25   14      8.43      0.00
   -7   25   12     -6.59      0.00
   -5   25   10     -8.13      0.00
   -3   25    8      7.27      0.00
   -1   25    6      2.55      0.00
    1   25    4     -4.70      0.00
    3   25    2     -6.17      0.00
    5   25    0      5.63      0.00
   -7   25    2     14.19      0.00
   -9   25    4    -11.18      0.00
  -11   25    6    -10.15      0.00
  -13   25    8      2.64      0.00
  -15   25   10     -8.54      0.00
  -17   25   12     -1.68      0.00
  -19   25   14     -3.60      0.00
  -21   25   16      3.99      0.00
  -14   26   19      6.41      0.00
  -12   26   17      7.82      0.00
  -10   26   15     -1.10      0.00
   -8   26   13     -4.32      0.00
   -6   26   11      6.51      0.00
   -4   26    9      2.85      0.00
   -2   26    7     -1.16      0.00
    0   26    5      4.31      0.00
    2   26    3      2.64      0.00
    4   26    1      2.46      0.00
   -6   26    1     -8.01      0.00
   -8   26    3      4.62      0.00
  -10   26    5      7.77      0.00
  -12   26    7     -9.84      0.00
  -14   26    9     -4.20      0.00
  -16   26   11     -1.34      0.00
  -18   26   13     -0.91      0.00
  -20   26   15     -1.52      0.00
  -22   26   17     -5.96      0.00
  -13   27   18      3.41      0.00
  -11   27   16     -2.90      0.00
   -9   27   14      4.14      0.00
   -7   27   12     -2.50      0.00
   -5   27   10     -2.48      0.00
   -3   27    8      1.11      0.00
   -1   27    6     -1.32      0.00
    1   27    4     -0.32      0.00
    3   27    2     -5.00      0.00
    5   27    0      2.61      0.00
   -7   27    2     10.32      0.00
   -9   27    4      0.42      0.00
  -11   27    6      1.38      0.00
  -13   27    8      2.91      0.00
  -15   27   10     -5.62      0.00
  -17   27   12      4.68      0.00
  -19   27   14      0.81      0.00
  -21   27   16      1.51      0.00
  -12   28   17      6.25      0.00
  -10   28   15     -1.31      0.00
   -8   28   13     -0.79      0.00
   -6   28   11     16.11      0.00
   -4   28    9      2.34      0.00
   -2   28    7     -2.55      0.00
    0   28    5      6.60      0.00
    2   28    3      4.77      0.00
    4   28    1      2.86      0.00
   -6   28    1     -8.33      0.00
   -8   28    3      4.85      0.00
  -10   28    5     12.86      0.00
  -12   28    7     -2.27      0.00
  -14   28    9      1.40      0.00
  -16   28   11      2.41      0.00
  -18   28   13      4.43      0.00
  -20   28   15      0.98      0.00
  -13   29   18     -1.05      0.00
  -11   29   16     -1.32      0.00
   -9   29   14      9.34      0.00
   -7   29   12      4.19      0.00
   -5   29   10      0.19      0.00
   -3   29    8      1.61      0.00
   -1   29    6     -6.52      0.00
    1   29    4    -10.69      0.00
    3   29    2    -14.24      0.00
    5   29    0     -3.77      0.00
   -7   29    2      1.80      0.00
   -9   29    4     -9.52      0.00
  -11   29    6     -4.28      0.00
  -13   29    8     -1.00      0.00
  -15   29   10     -3.60      0.00
  -17   29   12      4.09      0.00
  -19   29   14      3.57      0.00
  -12   30   17      4.27      0.00
  -10   30   15      1.81      0.00
   -8   30   13      0.32      0.00
   -6   30   11      6.31      0.00
   -4   30    9     -2.55      0.00
   -2   30    7     -3.72      0.00
    0   30    5     -1.92      0.00
    2   30    3     -1.84      0.00
    4   30    1     -0.53      0.00
   -6   30    1     -8.41      0.00
   -8   30    3     -1.16      0.00
  -10   30    5      1.94      0.00
  -12   30    7     -7.32      0.00
  -14   30    9     -0.26      0.00
  -16   30   11     -2.69      0.00
  -18   30   13     -3.47      0.00
  -20   30   15     -0.27      0.00
  -11   31   16      4.46      0.00
   -9   31   14     10.15      0.00
   -7   31   12     -4.26      0.00
   -5   31   10     -8.87      0.00
   -3   31    8      1.76      0.00
   -1   31    6     -4.02      0.00
    1   31    4     -6.65      0.00
    3   31    2     -9.13      0.00
    5   31    0      3.20      0.00
   -7   31    2     10.58      0.00
   -9   31    4     -6.47      0.00
  -11   31    6     -4.30      0.00
  -13   31    8      0.08      0.00
  -15   31   10     -7.17      0.00
  -17   31   12     -0.99      0.00
  -19   31   14      1.90      0.00
  -10   32   15     -2.04      0.00
   -8   32   13     -1.09      0.00
   -6   32   11      4.79      0.00
   -4   32    9     -0.55      0.00
   -2   32    7      2.26      0.00
    0   32    5      3.67      0.00
    2   32    3      6.99      0.00
    4   32    1      9.62      0.00
   -6   32    1      2.45      0.00
   -8   32    3      2.70      0.00
  -10   32    5      4.59      0.00
  -12   32    7     -2.87      0.00
  -14   32    9      1.69      0.00
  -16   32   11     -0.39      0.00
  -18   32   13      1.60      0.00
  -11   33   16      5.74      0.00
   -9   33   14      7.73      0.00
   -7   33   12     -4.42      0.00
   -5   33   10     -2.23      0.00
   -3   33    8      5.89      0.00
   -1   33    6      2.65      0.00
    1   33    4      1.88      0.00
    3   33    2     -5.61      0.00
    5   33    0      3.40      0.00
   -7   33    2     13.19      0.00
   -9   33    4      3.41      0.00
  -11   33    6      2.84      0.00
  -13   33    8      2.71      0.00
  -15   33   10     -4.90      0.00
  -17   33   12      2.09      0.00
  -10   34   15     -6.56      0.00
   -8   34   13     -2.39      0.00
   -6   34   11      6.75      0.00
   -4   34    9     -0.70      0.00
   -2   34    7     -0.34      0.00
    0   34    5     -1.65      0.00
    2   34    3      0.79      0.00
    4   34    1      1.42      0.00
   -6   34    1     -4.63      0.00
   -8   34    3     -2.27      0.00
  -10   34    5      3.85      0.00
  -12   34    7     -2.93      0.00
  -14   34    9      1.42      0.00
  -16   34   11      3.60      0.00
   -9   35   14      5.89      0.00
   -7   35   12     -4.43      0.00
   -5   35   10     -1.17      0.00
   -3   35    8      1.95      0.00
   -1   35    6     -0.98      0.00
    1   35    4     -1.31      0.00
    3   35    2    -11.08      0.00
    5   35    0     -2.93      0.00
   -7   35    2      2.00      0.00
   -9   35    4     -5.15      0.00
  -11   35    6     -1.35      0.00
  -13   35    8      2.44      0.00
  -15   35   10     -1.89      0.00
   -8   36   13      0.95      0.00
   -6   36   11      4.71      0.00
   -4   36    9     -0.95      0.00
   -2   36    7      1.53      0.00
    0   36    5      0.32      0.00
    2   36    3      0.16      0.00
    4   36    1      2.99      0.00
   -6   36    1     -1.94      0.00
   -8   36    3      0.41      0.00
  -10   36    5     -0.30      0.00
  -12   36    7     -1.03      0.00
  -14   36    9      3.86      0.00
   -7   37   12      0.27      0.00
   -5   37   10     -2.03      0.00
   -3   37    8     -4.82      0.00
   -1   37    6     -1.96      0.00
    1   37    4      4.89      0.00
    3   37    2     -1.66      0.00
    5   37    0      1.97      0.00
   -7   37    2      3.18      0.00
   -9   37    4     -0.68      0.00
  -11   37    6      0.93      0.00
  -13   37    8      0.70      0.00
  -15   37   10     -3.10      0.00
   -6   38   11      0.14      0.00
   -4   38    9     -3.18      0.00
   -2   38    7      0.46      0.00
    0   38    5     -0.39      0.00
    2   38    3     -0.34      0.00
    4   38    1      5.87      0.00
   -6   38    1      2.69      0.00
   -8   38    3      3.96      0.00
  -10   38    5     -0.90      0.00
  -12   38    7     -1.53      0.00
  -14   38    9      0.47      0.00
   -5   39   10      1.10      0.00
   -3   39    8     -0.06      0.00
   -1   39    6      1.39      0.00
    1   39    4      6.33      0.00
    3   39    2     -0.07      0.00
    5   39    0     -2.32      0.00
   -7   39    2     -1.22      0.00
   -9   39    4      0.24      0.00
  -11   39    6      0.97      0.00
   -4   40    9      1.42      0.00
   -2   40    7      2.87      0.00
    0   40    5     -2.10      0.00
    2   40    3     -2.96      0.00
    4   40    1      0.58      0.00
   -6   40    1      2.07      0.00
   -8   40    3      1.20      0.00
  -10   40    5     -2.22      0.00
   -1   41    6      1.96      0.00
    1   41    4      1.38      0.00
    3   41    2     -1.00      0.00
    5   41    0      3.40      0.00
   -7   41    2      3.71      0.00
   -9   41    4     -1.62      0.00
    0   42    5     -1.87      0.00
    2   42    3      1.59      0.00
    4   42    1      5.28      0.00
   -6   42    1      5.59      0.00
  -18    0   24      2.34      0.00
  -16    0   22      4.52      0.00
  -14    0   20      2.56      0.00
  -12    0   18      4.79      0.00
  -10    0   16     -8.08      0.00
   -8    0   14      9.55      0.00
   -6    0   12     27.86      0.00
   -4    0   10      5.11      0.00
   -2    0    8    -41.50      0.00
    0    0    6     89.20      0.00
    2    0    4     53.24      0.00
    4    0    2    -10.48      0.00
    6    0    0     41.91      0.00
   -8    0    2    -28.51      0.00
  -10    0    4    -35.44      0.00
  -12    0    6      8.26      0.00
  -14    0    8     36.46      0.00
  -16    0   10     10.34      0.00
  -18    0   12      1.44      0.00
  -20    0   14      1.76      0.00
  -22    0   16      1.84      0.00
  -24    0   18     -0.12      0.00
  -26    0   20     -3.01      0.00
  -17    1   23      6.55      0.00
  -15    1   21      4.94      0.00
  -13    1   19     -3.51      0.00
  -11    1   17     -6.02      0.00
   -9    1   15      6.78      0.00
   -7    1   13      4.49      0.00
   -5    1   11    -41.62      0.00
   -3    1    9     -1.64      0.00
   -1    1    7     40.28      0.00
    1    1    5      1.32      0.00
    3    1    3    110.72      0.00
    5    1    1     -8.57      0.00
   -7    1    1     30.27      0.00
   -9    1    3     -2.39      0.00
  -11    1    5    -11.18      0.00
  -13    1    7    -23.73      0.00
  -15    1    9      9.89      0.00
  -17    1   11      8.82      0.00
  -19    1   13     -8.34      0.00
  -21    1   15     -9.28      0.00
  -23    1   17      6.36      0.00
  -25    1   19      2.60      0.00
  -27    1   21      5.27      0.00
  -18    2   24      1.01      0.00
  -16    2   22     -0.57      0.00
  -14    2   20     -7.01      0.00
  -12    2   18      3.73      0.00
  -10    2   16     -0.54      0.00
   -8    2   14      6.71      0.00
   -6    2   12      0.55      0.00
   -4    2   10      6.80      0.00
   -2    2    8     -2.79      0.00
    0    2    6     42.57      0.00
    2    2    4    -40.43      0.00
    4    2    2    -24.06      0.00
    6    2    0    -13.39      0.00
   -8    2    2    -64.79      0.00
  -10    2    4    -36.03      0.00
  -12    2    6      9.21      0.00
  -14    2    8     29.22      0.00
  -16    2   10     -1.29      0.00
  -18    2   12     -5.70      0.00
  -20    2   14      2.20      0.00
  -22    2   16      2.01      0.00
  -24    2   18     -1.76      0.00
  -26    2   20     -4.37      0.00
  -17    3   23      1.09      0.00
  -15    3   21     -0.02      0.00
  -13    3   19     -6.53      0.00
  -11    3   17      4.09      0.00
   -9    3   15      6.99      0.00
   -7    3   13     -8.38      0.00
   -5    3   11    -31.21      0.00
   -3    3    9     20.27      0.00
   -1    3    7     34.25      0.00
    1    3    5     13.68      0.00
    3    3    3     71.86      0.00
    5    3    1   -128.35      0.00
   -7    3    1    -86.51      0.00
   -9    3    3    -24.84      0.00
  -11    3    5     23.76      0.00
  -13    3    7      3.77      0.00
  -15    3    9      3.09      0.00
  -17    3   11      4.25      0.00
  -19    3   13     -1.00      0.00
  -21    3   15     -5.66      0.00
  -23    3   17     -2.74      0.00
  -25    3   19      0.50      0.00
  -27    3   21      5.82      0.00
  -18    4   24      0.05      0.00
  -16    4   22     -2.16      0.00
  -14    4   20     -5.80      0.00
  -12    4   18      4.90      0.00
  -10    4   16      2.96      0.00
   -8    4   14      9.46      0.00
   -6    4   12    -18.47      0.00
   -4    4   10     -4.71      0.00
   -2    4    8     27.55      0.00
    0    4    6     30.87      0.00
    2    4    4    -48.02      0.00
    4    4    2     66.99      0.00
    6    4    0     20.59      0.00
   -8    4    2    -31.75      0.00
  -10    4    4     -2.95      0.00
  -12    4    6     20.66      0.00
  -14    4    8     33.29      0.00
  -16    4   10      9.20      0.00
  -18    4   12      7.80      0.00
  -20    4   14      3.69      0.00
  -22    4   16     -1.50      0.00
  -24    4   18      0.77      0.00
  -26    4   20     -2.62      0.00
  -17    5   23      0.02      0.00
  -15    5   21      3.85      0.00
  -13    5   19     -1.76      0.00
  -11    5   17      6.80      0.00
   -9    5   15      3.88      0.00
   -7    5   13      2.47      0.00
   -5    5   11     -8.17      0.00
   -3    5    9      1.27      0.00
   -1    5    7      8.23      0.00
    1    5    5     82.97      0.00
    3    5    3    104.77      0.00
    5    5    1    -90.58      0.00
   -7    5    1    -32.02      0.00
   -9    5    3    -27.66      0.00
  -11    5    5      7.38      0.00
  -13    5    7     -2.97      0.00
  -15    5    9      1.37      0.00
  -17    5   11      6.90      0.00
  -19    5   13      7.09      0.00
  -21    5   15     -3.98      0.00
  -23    5   17     -0.54      0.00
  -25    5   19      4.70      0.00
  -27    5   21      7.03      0.00
  -18    6   24     -2.51      0.00
  -16    6   22     -1.29      0.00
  -14    6   20      0.59      0.00
  -12    6   18     -0.97      0.00
  -10    6   16     -6.78      0.00
   -8    6   14      7.80      0.00
   -6    6   12    -13.75      0.00
   -4    6   10    -34.87      0.00
   -2    6    8     -7.88      0.00
    0    6    6     21.60      0.00
    2    6    4    -38.15      0.00
    4    6    2     86.91      0.00
    6    6    0     39.69      0.00
   -8    6    2    -37.42      0.00
  -10    6    4    -22.74      0.00
  -12    6    6    -10.43      0.00
  -14    6    8      8.27      0.00
  -16    6   10     14.13      0.00
  -18    6   12     10.07      0.00
  -20    6   14     -5.03      0.00
  -22    6   16     -2.46      0.00
  -24    6   18      3.20      0.00
  -26    6   20     -2.14      0.00
  -17    7   23      0.08      0.00
  -15    7   21      0.23      0.00
  -13    7   19     -6.31      0.00
  -11    7   17      1.22      0.00
   -9    7   15     -1.59      0.00
   -7    7   13     -7.32      0.00
   -5    7   11    -11.94      0.00
   -3    7    9    -19.64      0.00
   -1    7    7    -42.77      0.00
    1    7    5      6.21      0.00
    3    7    3     47.57      0.00
    5    7    1    -55.00      0.00
   -7    7    1    -16.53      0.00
   -9    7    3    -61.85      0.00
  -11    7    5    -19.10      0.00
  -13    7    7    -20.74      0.00
  -15    7    9     -9.53      0.00
  -17    7   11     -6.66      0.00
  -19    7   13     -1.07      0.00
  -21    7   15     -5.72      0.00
  -23    7   17     -1.80      0.00
  -25    7   19     -0.25      0.00
  -27    7   21      8.11      0.00
  -18    8   24     -5.07      0.00
  -16    8   22     -5.15      0.00
  -14    8   20     -0.55      0.00
  -12    8   18     -0.75      0.00
  -10    8   16     -4.30      0.00
   -8    8   14      6.21      0.00
   -6    8   12    -11.87      0.00
   -4    8   10    -33.78      0.00
   -2    8    8     -6.05      0.00
    0    8    6     21.45      0.00
    2    8    4    -66.26      0.00
    4    8    2      7.88      0.00
    6    8    0    -23.53      0.00
   -8    8    2    -56.50      0.00
  -10    8    4    -38.24      0.00
  -12    8    6    -28.59      0.00
  -14    8    8      7.83      0.00
  -16    8   10     15.79      0.00
  -18    8   12     -4.14      0.00
  -20    8   14     -8.20      0.00
  -22    8   16      4.23      0.00
  -24    8   18      7.03      0.00
  -26    8   20     -1.98      0.00
  -17    9   23     -1.78      0.00
  -15    9   21     -2.69      0.00
  -13    9   19     -1.22      0.00
  -11    9   17      7.99      0.00
   -9    9   15      9.58      0.00
   -7    9   13     -6.58      0.00
   -5    9   11     -0.13      0.00
   -3    9    9     24.01      0.00
   -1    9    7     -8.95      0.00
    1    9    5     -2.49      0.00
    3    9    3     51.07      0.00
    5    9    1    -37.92      0.00
   -7    9    1    -25.54      0.00
   -9    9    3    -27.98      0.00
  -11    9    5     13.23      0.00
  -13    9    7      1.10      0.00
  -15    9    9     -8.16      0.00
  -17    9   11     -7.60      0.00
  -19    9   13      6.99      0.00
  -21    9   15     -3.73      0.00
  -23    9   17     -8.17      0.00
  -25    9   19     -3.02      0.00
  -18   10   24     -3.25      0.00
  -16   10   22     -4.81      0.00
  -14   10   20     -1.03      0.00
  -12   10   18      7.41      0.00
  -10   10   16      1.66      0.00
   -8   10   14      7.52      0.00
   -6   10   12     -3.48      0.00
   -4   10   10    -19.29      0.00
   -2   10    8     -9.83      0.00
    0   10    6     42.12      0.00
    2   10    4      6.51      0.00
    4   10    2     34.33      0.00
    6   10    0     -9.15      0.00
   -8   10    2      7.35      0.00
  -10   10    4      8.04      0.00
  -12   10    6     -7.74      0.00
  -14   10    8     25.78      0.00
  -16   10   10     19.47      0.00
  -18   10   12     -1.02      0.00
  -20   10   14     -7.07      0.00
  -22   10   16      1.44      0.00
  -24   10   18     13.92      0.00
  -26   10   20      4.03      0.00
  -17   11   23     -1.86      0.00
  -15   11   21     -1.34      0.00
  -13   11   19      0.05      0.00
  -11   11   17      4.72      0.00
   -9   11   15      4.22      0.00
   -7   11   13    -13.50      0.00
   -5   11   11    -17.67      0.00
   -3   11    9     12.88      0.00
   -1   11    7     -4.55      0.00
    1   11    5     14.02      0.00
    3   11    3     52.26      0.00
    5   11    1     -5.32      0.00
   -7   11    1      2.73      0.00
   -9   11    3      0.83      0.00
  -11   11    5     35.39      0.00
  -13   11    7     14.71      0.00
  -15   11    9     -5.81      0.00
  -17   11   11      0.22      0.00
  -19   11   13     12.82      0.00
  -21   11   15      1.06      0.00
  -23   11   17     -3.68      0.00
  -25   11   19      1.48      0.00
  -16   12   22     -1.04      0.00
  -14   12   20     -4.22      0.00
  -12   12   18     -1.47      0.00
  -10   12   16     -8.47      0.00
   -8   12   14      2.71      0.00
   -6   12   12      3.39      0.00
   -4   12   10    -21.83      0.00
   -2   12    8    -38.84      0.00
    0   12    6      2.17      0.00
    2   12    4      9.54      0.00
    4   12    2     49.88      0.00
    6   12    0    -13.11      0.00
   -8   12    2    -15.68      0.00
  -10   12    4     -5.23      0.00
  -12   12    6    -13.86      0.00
  -14   12    8     10.98      0.00
  -16   12   10      8.07      0.00
  -18   12   12     -5.63      0.00
  -20   12   14    -14.96      0.00
  -22   12   16     -2.28      0.00
  -24   12   18     11.29      0.00
  -26   12   20      2.69      0.00
  -17   13   23      1.70      0.00
  -15   13   21     -0.24      0.00
  -13   13   19     -5.01      0.00
  -11   13   17      0.99      0.00
   -9   13   15      7.53      0.00
   -7   13   13     -7.23      0.00
   -5   13   11    -21.27      0.00
   -3   13    9      0.10      0.00
   -1   13    7    -12.30      0.00
    1   13    5    -14.62      0.00
    3   13    3     -5.02      0.00
    5   13    1     -1.67      0.00
   -7   13    1     10.82      0.00
   -9   13    3    -23.37      0.00
  -11   13    5     20.14      0.00
  -13   13    7     13.31      0.00
  -15   13    9      5.75      0.00
  -17   13   11      1.04      0.00
  -19   13   13      1.27      0.00
  -21   13   15      1.72      0.00
  -23   13   17     -2.22      0.00
  -25   13   19     -1.68      0.00
  -16   14   22      3.11      0.00
  -14   14   20      2.06      0.00
  -12   14   18     -1.20      0.00
  -10   14   16     -6.60      0.00
   -8   14   14      8.90      0.00
   -6   14   12     11.50      0.00
   -4   14   10    -21.04      0.00
   -2   14    8    -19.45      0.00
    0   14    6     13.31      0.00
    2   14    4      5.80      0.00
    4   14    2     38.49      0.00
    6   14    0    -17.11      0.00
   -8   14    2     -6.57      0.00
  -10   14    4      7.78      0.00
  -12   14    6     -1.38      0.00
  -14   14    8     23.22      0.00
  -16   14   10     18.41      0.00
  -18   14   12     -0.24      0.00
  -20   14   14    -11.63      0.00
  -22   14   16     -3.48      0.00
  -24   14   18      0.36      0.00
  -26   14   20     -3.57      0.00
  -17   15   23      1.33      0.00
  -15   15   21     -2.81      0.00
  -13   15   19     -4.15      0.00
  -11   15   17      8.67      0.00
   -9   15   15     16.65      0.00
   -7   15   13      3.95      0.00
   -5   15   11      0.26      0.00
   -3   15    9     12.23      0.00
   -1   15    7      6.79      0.00
    1   15    5     14.39      0.00
    3   15    3      2.89      0.00
    5   15    1     -3.06      0.00
   -7   15    1     24.11      0.00
   -9   15    3      1.10      0.00
  -11   15    5     29.93      0.00
  -13   15    7     10.87      0.00
  -15   15    9     12.20      0.00
  -17   15   11      6.59      0.00
  -19   15   13      4.75      0.00
  -21   15   15     -1.53      0.00
  -23   15   17     -7.07      0.00
  -25   15   19     -1.01      0.00
  -16   16   22      1.34      0.00
  -14   16   20      4.20      0.00
  -12   16   18      2.35      0.00
  -10   16   16     -6.67      0.00
   -8   16   14      5.58      0.00
   -6   16   12     10.76      0.00
   -4   16   10    -20.79      0.00
   -2   16    8    -12.58      0.00
    0   16    6     24.57      0.00
    2   16    4      9.36      0.00
    4   16    2     17.42      0.00
    6   16    0    -23.60      0.00
   -8   16    2      7.03      0.00
  -10   16    4     20.29      0.00
  -12   16    6     -3.13      0.00
  -14   16    8      8.61      0.00
  -16   16   10      7.12      0.00
  -18   16   12      1.39      0.00
  -20   16   14     -7.79      0.00
  -22   16   16     -6.21      0.00
  -24   16   18     -2.77      0.00
  -15   17   21     -3.09      0.00
  -13   17   19     -3.88      0.00
  -11   17   17      4.61      0.00
   -9   17   15      1.74      0.00
   -7   17   13    -15.19      0.00
   -5   17   11     -9.10      0.00
   -3   17    9      0.34      0.00
   -1   17    7    -13.71      0.00
    1   17    5      5.72      0.00
    3   17    3     -0.76      0.00
    5   17    1    -12.53      0.00
   -7   17    1     11.06      0.00
   -9   17    3     -4.16      0.00
  -11   17    5     19.87      0.00
  -13   17    7      0.99      0.00
  -15   17    9     -0.57      0.00
  -17   17   11     -2.92      0.00
  -19   17   13      1.37      0.00
  -21   17   15     -5.84      0.00
  -23   17   17     -4.86      0.00
  -25   17   19      2.30      0.00
  -16   18   22      1.34      0.00
  -14   18   20      0.70      0.00
  -12   18   18      1.32      0.00
  -10   18   16    -10.92      0.00
   -8   18   14      1.51      0.00
   -6   18   12     12.74      0.00
   -4   18   10     -5.11      0.00
   -2   18    8    -11.72      0.00
    0   18    6      7.47      0.00
    2   18    4      7.06      0.00
    4   18    2     25.84      0.00
    6   18    0    -16.97      0.00
   -8   18    2     -9.84      0.00
  -10   18    4      0.43      0.00
  -12   18    6     -1.97      0.00
  -14   18    8     11.09      0.00
  -16   18   10      1.38      0.00
  -18   18   12     -5.41      0.00
  -20   18   14     -5.94      0.00
  -22   18   16     -3.80      0.00
  -24   18   18      2.14      0.00
  -15   19   21     -2.99      0.00
  -13   19   19     -3.66      0.00
  -11   19   17      9.59      0.00
   -9   19   15     11.25      0.00
   -7   19   13     -4.96      0.00
   -5   19   11      3.67      0.00
   -3   19    9     19.26      0.00
   -1   19    7     -2.64      0.00
    1   19    5      3.18      0.00
    3   19    3      2.54      0.00
    5   19    1     -5.17      0.00
   -7   19    1      7.42      0.00
   -9   19    3    -13.91      0.00
  -11   19    5      6.99      0.00
  -13   19    7     10.76      0.00
  -15   19    9      9.31      0.00
  -17   19   11      2.54      0.00
  -19   19   13      1.62      0.00
  -21   19   15     -4.25      0.00
  -23   19   17     -3.01      0.00
  -16   20   22      0.61      0.00
  -14   20   20     -0.42      0.00
  -12   20   18      4.41      0.00
  -10   20   16     -6.82      0.00
   -8   20   14      8.44      0.00
   -6   20   12     20.91      0.00
   -4   20   10     -1.95      0.00
   -2   20    8     -8.73      0.00
    0   20    6      4.03      0.00
    2   20    4      6.11      0.00
    4   20    2     22.23      0.00
    6   20    0    -10.04      0.00
   -8   20    2      7.10      0.00
  -10   20    4     10.28      0.00
  -12   20    6      3.57      0.00
  -14   20    8     18.88      0.00
  -16   20   10     10.97      0.00
  -18   20   12     -3.72      0.00
  -20   20   14     -3.51      0.00
  -22   20   16     -3.05      0.00
  -24   20   18      2.75      0.00
  -15   21   21     -5.06      0.00
  -13   21   19     -3.79      0.00
  -11   21   17      9.46      0.00
   -9   21   15     15.15      0.00
   -7   21   13      2.25      0.00
   -5   21   11      2.05      0.00
   -3   21    9      9.10      0.00
   -1   21    7     -2.32      0.00
    1   21    5      2.34      0.00
    3   21    3     -3.31      0.00
    5   21    1    -14.90      0.00
   -7   21    1      0.69      0.00
   -9   21    3     -3.51      0.00
  -11   21    5     10.62      0.00
  -13   21    7      1.99      0.00
  -15   21    9      6.72      0.00
  -17   21   11     11.63      0.00
  -19   21   13      1.55      0.00
  -21   21   15     -5.99      0.00
  -23   21   17     -4.96      0.00
  -14   22   20     -0.27      0.00
  -12   22   18      2.11      0.00
  -10   22   16    -11.84      0.00
   -8   22   14     -2.23      0.00
   -6   22   12      5.56      0.00
   -4   22   10    -17.17      0.00
   -2   22    8     -7.83      0.00
    0   22    6      4.13      0.00
    2   22    4     -4.14      0.00
    4   22    2      1.96      0.00
    6   22    0    -15.30      0.00
   -8   22    2      5.65      0.00
  -10   22    4      9.34      0.00
  -12   22    6     -9.91      0.00
  -14   22    8     -2.75      0.00
  -16   22   10      1.97      0.00
  -18   22   12     -3.18      0.00
  -20   22   14     -2.27      0.00
  -22   22   16     -2.60      0.00
  -24   22   18      3.25      0.00
  -15   23   21     -3.24      0.00
  -13   23   19      0.35      0.00
  -11   23   17      3.57      0.00
   -9   23   15      3.26      0.00
   -7   23   13     -9.60      0.00
   -5   23   11     -2.29      0.00
   -3   23    9      5.67      0.00
   -1   23    7     -4.97      0.00
    1   23    5      1.41      0.00
    3   23    3     -6.03      0.00
    5   23    1    -15.84      0.00
   -7   23    1    -10.04      0.00
   -9   23    3    -13.19      0.00
  -11   23    5      6.29      0.00
  -13   23    7     -3.50      0.00
  -15   23    9     -3.92      0.00
  -17   23   11      1.45      0.00
  -19   23   13     -1.67      0.00
  -21   23   15     -3.40      0.00
  -23   23   17     -4.87      0.00
  -14   24   20      0.83      0.00
  -12   24   18      3.32      0.00
  -10   24   16     -6.00      0.00
   -8   24   14     -4.86      0.00
   -6   24   12     -1.31      0.00
   -4   24   10     -6.95      0.00
   -2   24    8     -0.26      0.00
    0   24    6      1.26      0.00
    2   24    4     -5.15      0.00
    4   24    2      8.13      0.00
    6   24    0     -2.99      0.00
   -8   24    2      0.94      0.00
  -10   24    4      0.57      0.00
  -12   24    6     -1.99      0.00
  -14   24    8     -0.93      0.00
  -16   24   10     -4.66      0.00
  -18   24   12     -3.13      0.00
  -20   24   14      2.38      0.00
  -22   24   16     -2.15      0.00
  -13   25   19     -2.03      0.00
  -11   25   17      2.67      0.00
   -9   25   15      4.17      0.00
   -7   25   13     -6.45      0.00
   -5   25   11      7.75      0.00
   -3   25    9     14.39      0.00
   -1   25    7     -0.47      0.00
    1   25    5      8.07      0.00
    3   25    3      4.38      0.00
    5   25    1     -3.87      0.00
   -7   25    1     -7.37      0.00
   -9   25    3    -13.18      0.00
  -11   25    5      6.47      0.00
  -13   25    7      7.37      0.00
  -15   25    9      0.71      0.00
  -17   25   11      0.56      0.00
  -19   25   13      1.85      0.00
  -21   25   15      4.06      0.00
  -12   26   18     -0.22      0.00
  -10   26   16     -3.52      0.00
   -8   26   14      3.33      0.00
   -6   26   12      9.61      0.00
   -4   26   10      0.63      0.00
   -2   26    8     -1.24      0.00
    0   26    6     -1.08      0.00
    2   26    4    -10.15      0.00
    4   26    2      0.97      0.00
    6   26    0     -4.43      0.00
   -8   26    2      1.17      0.00
  -10   26    4     -8.50      0.00
  -12   26    6     -6.65      0.00
  -14   26    8     -1.70      0.00
  -16   26   10     -4.28      0.00
  -18   26   12     -2.63      0.00
  -20   26   14      1.04      0.00
  -22   26   16     -1.21      0.00
  -13   27   19     -2.58      0.00
  -11   27   17      1.00      0.00
   -9   27   15      3.11      0.00
   -7   27   13     -3.40      0.00
   -5   27   11     -3.35      0.00
   -3   27    9     -0.41      0.00
   -1   27    7     -5.58      0.00
    1   27    5      0.87      0.00
    3   27    3     -3.03      0.00
    5   27    1     -8.36      0.00
   -7   27    1     -8.90      0.00
   -9   27    3     -8.87      0.00
  -11   27    5     -1.87      0.00
  -13   27    7     -5.47      0.00
  -15   27    9     -3.67      0.00
  -17   27   11     -1.79      0.00
  -19   27   13     -4.41      0.00
  -21   27   15      0.05      0.00
  -12   28   18      4.06      0.00
  -10   28   16     -0.90      0.00
   -8   28   14      1.10      0.00
   -6   28   12      3.60      0.00
   -4   28   10     -6.43      0.00
   -2   28    8     -0.97      0.00
    0   28    6      3.20      0.00
    2   28    4     -5.53      0.00
    4   28    2      1.58      0.00
    6   28    0     -1.94      0.00
   -8   28    2      5.60      0.00
  -10   28    4     -5.20      0.00
  -12   28    6     -9.61      0.00
  -14   28    8     -1.01      0.00
  -16   28   10     -3.90      0.00
  -18   28   12     -3.25      0.00
  -20   28   14     -2.25      0.00
  -11   29   17      5.55      0.00
   -9   29   15      0.63      0.00
   -7   29   13     -4.70      0.00
   -5   29   11     -5.37      0.00
   -3   29    9      4.78      0.00
   -1   29    7      6.03      0.00
    1   29    5     12.13      0.00
    3   29    3      4.98      0.00
    5   29    1      0.34      0.00
   -7   29    1      3.46      0.00
   -9   29    3     -0.51      0.00
  -11   29    5     -0.86      0.00
  -13   29    7     -6.99      0.00
  -15   29    9     -1.37      0.00
  -17   29   11     -0.70      0.00
  -19   29   13     -2.47      0.00
  -21   29   15      1.08      0.00
  -12   30   18      7.51      0.00
  -10   30   16      5.42      0.00
   -8   30   14      0.90      0.00
   -6   30   12      1.50      0.00
   -4   30   10      5.15      0.00
   -2   30    8      7.23      0.00
    0   30    6      4.91      0.00
    2   30    4     -0.81      0.00
    4   30    2      9.38      0.00
    6   30    0      4.98      0.00
   -8   30    2      5.44      0.00
  -10   30    4      1.97      0.00
  -12   30    6      2.13      0.00
  -14   30    8      4.17      0.00
  -16   30   10     -4.76      0.00
  -18   30   12     -2.13      0.00
  -20   30   14      1.38      0.00
  -11   31   17      1.77      0.00
   -9   31   15     -1.67      0.00
   -7   31   13     -3.14      0.00
   -5   31   11     -1.93      0.00
   -3   31    9      6.50      0.00
   -1   31    7      1.96      0.00
    1   31    5      8.98      0.00
    3   31    3      2.99      0.00
    5   31    1     -1.22      0.00
   -7   31    1      2.37      0.00
   -9   31    3     -2.54      0.00
  -11   31    5      3.38      0.00
  -13   31    7     -1.22      0.00
  -15   31    9     -1.85      0.00
  -17   31   11      1.51      0.00
  -19   31   13      0.34      0.00
  -10   32   16     -1.13      0.00
   -8   32   14      0.25      0.00
   -6   32   12      3.03      0.00
   -4   32   10      6.73      0.00
   -2   32    8      6.85      0.00
    0   32    6      3.07      0.00
    2   32    4     -3.98      0.00
    4   32    2      5.78      0.00
    6   32    0      0.74      0.00
   -8   32    2     -3.64      0.00
  -10   32    4     -4.23      0.00
  -12   32    6      0.80      0.00
  -14   32    8      2.12      0.00
  -16   32   10     -6.71      0.00
  -18   32   12     -3.21      0.00
   -9   33   15      0.16      0.00
   -7   33   13      1.08      0.00
   -5   33   11     -3.58      0.00
   -3   33    9      1.63      0.00
   -1   33    7     -0.30      0.00
    1   33    5      8.56      0.00
    3   33    3      3.53      0.00
    5   33    1      0.70      0.00
   -7   33    1      3.63      0.00
   -9   33    3      0.73      0.00
  -11   33    5      3.28      0.00
  -13   33    7     -1.53      0.00
  -15   33    9     -2.34      0.00
  -17   33   11      0.74      0.00
   -8   34   14     -3.26      0.00
   -6   34   12      0.89      0.00
   -4   34   10      0.25      0.00
   -2   34    8      1.21      0.00
    0   34    6      3.04      0.00
    2   34    4      0.45      0.00
    4   34    2      9.00      0.00
    6   34    0      4.70      0.00
   -8   34    2      4.42      0.00
  -10   34    4      2.53      0.00
  -12   34    6      2.86      0.00
  -14   34    8      3.44      0.00
  -16   34   10     -5.96      0.00
  -18   34   12     -3.84      0.00
   -7   35   13     -3.24      0.00
   -5   35   11     -4.67      0.00
   -3   35    9      0.89      0.00
   -1   35    7     -0.43      0.00
    1   35    5      7.10      0.00
    3   35    3      2.90      0.00
    5   35    1      5.25      0.00
   -7   35    1      8.45      0.00
   -9   35    3      1.89      0.00
  -11   35    5      0.68      0.00
  -13   35    7     -2.20      0.00
  -15   35    9     -0.79      0.00
  -17   35   11     -2.29      0.00
   -6   36   12     -1.95      0.00
   -4   36   10      0.64      0.00
   -2   36    8      3.63      0.00
    0   36    6      4.12      0.00
    2   36    4     -0.96      0.00
    4   36    2      4.59      0.00
    6   36    0     -2.62      0.00
   -8   36    2      1.54      0.00
  -10   36    4      1.22      0.00
  -12   36    6      3.08      0.00
  -14   36    8     -1.21      0.00
  -16   36   10     -7.23      0.00
   -5   37   11     -4.91      0.00
   -3   37    9      1.47      0.00
   -1   37    7     -1.64      0.00
    1   37    5     -1.88      0.00
    3   37    3     -5.46      0.00
    5   37    1     -4.11      0.00
   -7   37    1     -0.51      0.00
   -9   37    3     -5.18      0.00
  -11   37    5     -4.12      0.00
  -13   37    7     -5.74      0.00
  -15   37    9     -4.42      0.00
   -4   38   10     -5.39      0.00
   -2   38    8     -1.31      0.00
    0   38    6      0.18      0.00
    2   38    4     -6.07      0.00
    4   38    2     -3.53      0.00
    6   38    0     -7.22      0.00
   -8   38    2     -0.89      0.00
  -10   38    4     -2.34      0.00
  -12   38    6     -1.14      0.00
  -14   38    8     -3.77      0.00
   -3   39    9      0.04      0.00
   -1   39    7     -2.53      0.00
    1   39    5      0.08      0.00
    3   39    3      1.34      0.00
    5   39    1      2.67      0.00
   -7   39    1      3.84      0.00
   -9   39    3     -0.16      0.00
  -11   39    5     -2.12      0.00
  -13   39    7     -3.07      0.00
   -2   40    8     -4.61      0.00
    0   40    6     -2.48      0.00
    2   40    4      0.52      0.00
    4   40    2      4.99      0.00
    6   40    0      4.14      0.00
   -8   40    2      0.67      0.00
  -10   40    4      0.03      0.00
   -1   41    7     -5.27      0.00
    1   41    5     -0.33      0.00
    3   41    3      2.60      0.00
    5   41    1      6.17      0.00
   -7   41    1      4.41      0.00
   -9   41    3     -0.01      0.00
    2   42    4      1.31      0.00
    4   42    2      0.60      0.00
    6   42    0     -2.96      0.00
  -16    0   23      2.79      0.00
  -14    0   21     -0.42      0.00
  -12    0   19    -10.12      0.00
  -10    0   17      5.27      0.00
   -8    0   15     24.36      0.00
   -6    0   13     -2.18      0.00
   -4    0   11    -59.07      0.00
   -2    0    9     30.84      0.00
    0    0    7     34.19      0.00
    2    0    5    -48.06      0.00
    4    0    3   -190.48      0.00
    6    0    1    -57.12      0.00
   -8    0    1    -28.49      0.00
  -10    0    3    -36.38      0.00
  -12    0    5    -17.21      0.00
  -14    0    7     11.98      0.00
  -16    0    9     -1.47      0.00
  -18    0   11    -11.29      0.00
  -20    0   13     -6.72      0.00
  -22    0   15     -6.41      0.00
  -24    0   17      5.56      0.00
  -26    0   19      1.31      0.00
  -17    1   24      4.19      0.00
  -15    1   22     -6.89      0.00
  -13    1   20     -3.88      0.00
  -11    1   18     -4.51      0.00
   -9    1   16     11.87      0.00
   -7    1   14      2.10      0.00
   -5    1   12      0.41      0.00
   -3    1   10     -7.24      0.00
   -1    1    8    -39.64      0.00
    1    1    6    -48.52      0.00
    3    1    4     -4.82      0.00
    5    1    2     38.23      0.00
    7    1    0    -44.66      0.00
   -9    1    2    -20.81      0.00
  -11    1    4    -12.43      0.00
  -13    1    6    -13.42      0.00
  -15    1    8    -20.89      0.00
  -17    1   10     -2.65      0.00
  -19    1   12      3.62      0.00
  -21    1   14      9.57      0.00
  -23    1   16     -2.42      0.00
  -25    1   18     -1.35      0.00
  -27    1   20      9.77      0.00
  -16    2   23      6.54      0.00
  -14    2   21      1.19      0.00
  -12    2   19     -3.76      0.00
  -10    2   17      7.70      0.00
   -8    2   15     21.73      0.00
   -6    2   13      6.71      0.00
   -4    2   11    -27.44      0.00
   -2    2    9     33.72      0.00
    0    2    7     -1.88      0.00
    2    2    5    -11.48      0.00
    4    2    3    -59.81      0.00
    6    2    1     20.46      0.00
   -8    2    1     38.28      0.00
  -10    2    3     11.26      0.00
  -12    2    5     -5.30      0.00
  -14    2    7      7.23      0.00
  -16    2    9      4.10      0.00
  -18    2   11     -2.93      0.00
  -20    2   13     -0.89      0.00
  -22    2   15     -3.94      0.00
  -24    2   17      5.98      0.00
  -26    2   19     -0.05      0.00
  -17    3   24      1.98      0.00
  -15    3   22     -6.10      0.00
  -13    3   20     -0.86      0.00
  -11    3   18      1.47      0.00
   -9    3   16     10.54      0.00
   -7    3   14     -3.58      0.00
   -5    3   12     15.52      0.00
   -3    3   10      8.86      0.00
   -1    3    8    -57.76      0.00
    1    3    6    -24.12      0.00
    3    3    4     59.08      0.00
    5    3    2     72.59      0.00
    7    3    0     -5.84      0.00
   -9    3    2      3.38      0.00
  -11    3    4      6.44      0.00
  -13    3    6      8.13      0.00
  -15    3    8     -9.48      0.00
  -17    3   10     11.65      0.00
  -19    3   12     11.74      0.00
  -21    3   14     11.23      0.00
  -23    3   16     -4.15      0.00
  -25    3   18     -0.90      0.00
  -27    3   20      8.68      0.00
  -16    4   23      6.88      0.00
  -14    4   21     -1.11      0.00
  -12    4   19     -7.89      0.00
  -10    4   17      0.41      0.00
   -8    4   15     17.63      0.00
   -6    4   13      7.68      0.00
   -4    4   11    -20.33      0.00
   -2    4    9     11.85      0.00
    0    4    7    -59.32      0.00
    2    4    5    -37.69      0.00
    4    4    3     -8.30      0.00
    6    4    1     28.49      0.00
   -8    4    1     51.02      0.00
  -10    4    3     32.58      0.00
  -12    4    5      1.30      0.00
  -14    4    7     -0.21      0.00
  -16    4    9      2.74      0.00
  -18    4   11      0.28      0.00
  -20    4   13     -1.21      0.00
  -22    4   15     -4.17      0.00
  -24    4   17      5.64      0.00
  -26    4   19     -4.87      0.00
  -17    5   24     -2.31      0.00
  -15    5   22     -8.90      0.00
  -13    5   20     -8.29      0.00
  -11    5   18     -5.28      0.00
   -9    5   16      8.92      0.00
   -7    5   14     -0.38      0.00
   -5    5   12      2.51      0.00
   -3    5   10     -7.58      0.00
   -1    5    8    -29.36      0.00
    1    5    6      8.27      0.00
    3    5    4    -30.86      0.00
    5    5    2    -35.39      0.00
    7    5    0    -31.48      0.00
   -9    5    2     -8.48      0.00
  -11    5    4    -12.38      0.00
  -13    5    6     -4.97      0.00
  -15    5    8     -5.27      0.00
  -17    5   10     11.95      0.00
  -19    5   12     -0.15      0.00
  -21    5   14     -0.13      0.00
  -23    5   16      1.15      0.00
  -25    5   18      5.64      0.00
  -27    5   20      2.65      0.00
  -16    6   23      1.58      0.00
  -14    6   21     -2.22      0.00
  -12    6   19     -8.25      0.00
  -10    6   17      0.71      0.00
   -8    6   15     18.37      0.00
   -6    6   13     13.97      0.00
   -4    6   11    -21.22      0.00
   -2    6    9     17.28      0.00
    0    6    7    -33.73      0.00
    2    6    5    -33.86      0.00
    4    6    3    -18.02      0.00
    6    6    1    -14.42      0.00
   -8    6    1    -12.65      0.00
  -10    6    3     15.80      0.00
  -12    6    5      9.03      0.00
  -14    6    7     -1.15      0.00
  -16    6    9     -5.89      0.00
  -18    6   11     -7.98      0.00
  -20    6   13      1.00      0.00
  -22    6   15     -0.83      0.00
  -24    6   17      1.82      0.00
  -26    6   19     -7.76      0.00
  -17    7   24     -1.03      0.00
  -15    7   22     -5.18      0.00
  -13    7   20     -3.85      0.00
  -11    7   18     -0.30      0.00
   -9    7   16     13.15      0.00
   -7    7   14     -0.85      0.00
   -5    7   12     -5.29      0.00
   -3    7   10     -8.26      0.00
   -1    7    8      1.93      0.00
    1    7    6     25.72      0.00
    3    7    4    -12.91      0.00
    5    7    2     13.11      0.00
    7    7    0     16.64      0.00
   -9    7    2     37.52      0.00
  -11    7    4     14.35      0.00
  -13    7    6      5.59      0.00
  -15    7    8     11.16      0.00
  -17    7   10     15.26      0.00
  -19    7   12      1.07      0.00
  -21    7   14      0.74      0.00
  -23    7   16      3.61      0.00
  -25    7   18      6.92      0.00
  -27    7   20      1.35      0.00
  -16    8   23     -0.83      0.00
  -14    8   21      0.41      0.00
  -12    8   19     -0.49      0.00
  -10    8   17      6.80      0.00
   -8    8   15     12.46      0.00
   -6    8   13     13.58      0.00
   -4    8   11    -17.76      0.00
   -2    8    9      6.81      0.00
    0    8    7    -16.37      0.00
    2    8    5     31.68      0.00
    4    8    3     47.02      0.00
    6    8    1     23.88      0.00
   -8    8    1      5.99      0.00
  -10    8    3     16.75      0.00
  -12    8    5     12.12      0.00
  -14    8    7     -3.02      0.00
  -16    8    9    -15.83      0.00
  -18    8   11    -13.36      0.00
  -20    8   13     11.77      0.00
  -22    8   15      3.97      0.00
  -24    8   17      1.14      0.00
  -26    8   19     -2.75      0.00
  -17    9   24     -0.67      0.00
  -15    9   22     -3.55      0.00
  -13    9   20     -1.07      0.00
  -11    9   18     -3.34      0.00
   -9    9   16     13.54      0.00
   -7    9   14     -4.75      0.00
   -5    9   12     -1.67      0.00
   -3    9   10     -5.95      0.00
   -1    9    8    -25.65      0.00
    1    9    6    -13.58      0.00
    3    9    4     14.31      0.00
    5    9    2     56.49      0.00
    7    9    0     33.68      0.00
   -9    9    2     42.45      0.00
  -11    9    4     -1.85      0.00
  -13    9    6     -6.49      0.00
  -15    9    8     -6.37      0.00
  -17    9   10      5.80      0.00
  -19    9   12      1.04      0.00
  -21    9   14     -1.89      0.00
  -23    9   16      0.79      0.00
  -25    9   18      3.42      0.00
  -27    9   20     -0.42      0.00
  -16   10   23      0.09      0.00
  -14   10   21     -0.84      0.00
  -12   10   19     -2.54      0.00
  -10   10   17      3.76      0.00
   -8   10   15     14.35      0.00
   -6   10   13     14.69      0.00
   -4   10   11    -19.34      0.00
   -2   10    9    -17.53      0.00
    0   10    7    -24.41      0.00
    2   10    5     26.90      0.00
    4   10    3     20.43      0.00
    6   10    1     20.39      0.00
   -8   10    1     20.77      0.00
  -10   10    3     -3.57      0.00
  -12   10    5     -8.46      0.00
  -14   10    7     -9.67      0.00
  -16   10    9    -17.34      0.00
  -18   10   11    -11.29      0.00
  -20   10   13      6.18      0.00
  -22   10   15     -2.70      0.00
  -24   10   17      4.71      0.00
  -26   10   19      1.06      0.00
  -17   11   24     -0.99      0.00
  -15   11   22     -4.58      0.00
  -13   11   20     -0.11      0.00
  -11   11   18     -2.39      0.00
   -9   11   16     16.88      0.00
   -7   11   14      2.20      0.00
   -5   11   12      4.48      0.00
   -3   11   10     -0.45      0.00
   -1   11    8    -17.05      0.00
    1   11    6      1.77      0.00
    3   11    4     -2.31      0.00
    5   11    2     13.43      0.00
    7   11    0     -0.10      0.00
   -9   11    2     34.68      0.00
  -11   11    4     -0.90      0.00
  -13   11    6     -8.56      0.00
  -15   11    8     -1.20      0.00
  -17   11   10     20.65      0.00
  -19   11   12     -0.08      0.00
  -21   11   14     -1.19      0.00
  -23   11   16      5.91      0.00
  -25   11   18      3.47      0.00
  -27   11   20     -3.11      0.00
  -16   12   23     -1.02      0.00
  -14   12   21     -3.93      0.00
  -12   12   19     -2.04      0.00
  -10   12   17      7.91      0.00
   -8   12   15     20.46      0.00
   -6   12   13     20.00      0.00
   -4   12   11     -2.00      0.00
   -2   12    9     13.77      0.00
    0   12    7      7.64      0.00
    2   12    5     32.12      0.00
    4   12    3     30.55      0.00
    6   12    1     18.33      0.00
   -8   12    1      1.26      0.00
  -10   12    3     -3.20      0.00
  -12   12    5     -1.23      0.00
  -14   12    7     -1.61      0.00
  -16   12    9    -11.79      0.00
  -18   12   11     -6.65      0.00
  -20   12   13      9.55      0.00
  -22   12   15     -0.46      0.00
  -24   12   17      4.13      0.00
  -26   12   19     -1.42      0.00
  -15   13   22     -8.02      0.00
  -13   13   20      0.42      0.00
  -11   13   18      2.32      0.00
   -9   13   16     15.74      0.00
   -7   13   14     -0.42      0.00
   -5   13   12     -3.13      0.00
   -3   13   10     -3.95      0.00
   -1   13    8     -4.85      0.00
    1   13    6     13.38      0.00
    3   13    4    -11.97      0.00
    5   13    2     -1.66      0.00
    7   13    0     -2.92      0.00
   -9   13    2     32.21      0.00
  -11   13    4     11.21      0.00
  -13   13    6     -6.77      0.00
  -15   13    8     -2.16      0.00
  -17   13   10     12.50      0.00
  -19   13   12     -5.31      0.00
  -21   13   14      4.42      0.00
  -23   13   16      3.93      0.00
  -25   13   18      1.97      0.00
  -16   14   23     -4.97      0.00
  -14   14   21     -7.30      0.00
  -12   14   19     -6.43      0.00
  -10   14   17      1.12      0.00
   -8   14   15      2.26      0.00
   -6   14   13     -4.10      0.00
   -4   14   11    -24.21      0.00
   -2   14    9      1.02      0.00
    0   14    7     -8.85      0.00
    2   14    5      7.90      0.00
    4   14    3     24.30      0.00
    6   14    1      2.11      0.00
   -8   14    1    -19.61      0.00
  -10   14    3    -13.15      0.00
  -12   14    5     -8.33      0.00
  -14   14    7     -1.94      0.00
  -16   14    9    -18.69      0.00
  -18   14   11    -11.71      0.00
  -20   14   13     11.09      0.00
  -22   14   15      0.22      0.00
  -24   14   17      2.53      0.00
  -26   14   19     -1.23      0.00
  -15   15   22    -11.73      0.00
  -13   15   20     -3.00      0.00
  -11   15   18     -5.55      0.00
   -9   15   16      0.56      0.00
   -7   15   14     -3.30      0.00
   -5   15   12     -0.51      0.00
   -3   15   10    -11.05      0.00
   -1   15    8    -16.64      0.00
    1   15    6     -8.17      0.00
    3   15    4    -25.25      0.00
    5   15    2     -5.83      0.00
    7   15    0      3.31      0.00
   -9   15    2      4.65      0.00
  -11   15    4    -16.46      0.00
  -13   15    6    -26.61      0.00
  -15   15    8    -14.78      0.00
  -17   15   10      0.66      0.00
  -19   15   12    -11.49      0.00
  -21   15   14     -4.20      0.00
  -23   15   16     -1.97      0.00
  -25   15   18      5.30      0.00
  -16   16   23     -3.46      0.00
  -14   16   21     -6.82      0.00
  -12   16   19    -11.18      0.00
  -10   16   17      1.52      0.00
   -8   16   15     11.41      0.00
   -6   16   13      6.57      0.00
   -4   16   11    -14.62      0.00
   -2   16    9      4.96      0.00
    0   16    7      1.87      0.00
    2   16    5      1.10      0.00
    4   16    3      4.12      0.00
    6   16    1     -9.27      0.00
   -8   16    1    -19.37      0.00
  -10   16    3    -19.99      0.00
  -12   16    5    -25.40      0.00
  -14   16    7     -3.34      0.00
  -16   16    9     -6.61      0.00
  -18   16   11     -3.90      0.00
  -20   16   13      5.57      0.00
  -22   16   15     -2.11      0.00
  -24   16   17      1.23      0.00
  -26   16   19     -1.87      0.00
  -15   17   22     -8.12      0.00
  -13   17   20      0.33      0.00
  -11   17   18     -1.93      0.00
   -9   17   16      0.44      0.00
   -7   17   14      7.18      0.00
   -5   17   12     16.87      0.00
   -3   17   10     -3.69      0.00
   -1   17    8    -13.35      0.00
    1   17    6      1.70      0.00
    3   17    4     -4.86      0.00
    5   17    2      0.01      0.00
    7   17    0      4.27      0.00
   -9   17    2      7.81      0.00
  -11   17    4     -2.02      0.00
  -13   17    6    -18.40      0.00
  -15   17    8     -9.49      0.00
  -17   17   10     12.94      0.00
  -19   17   12     -2.55      0.00
  -21   17   14     -4.87      0.00
  -23   17   16     -0.69      0.00
  -25   17   18      3.33      0.00
  -14   18   21     -6.90      0.00
  -12   18   19     -8.18      0.00
  -10   18   17      8.38      0.00
   -8   18   15     21.56      0.00
   -6   18   13     11.52      0.00
   -4   18   11      1.43      0.00
   -2   18    9     13.95      0.00
    0   18    7     13.99      0.00
    2   18    5     10.01      0.00
    4   18    3     10.03      0.00
    6   18    1      0.54      0.00
   -8   18    1     -5.59      0.00
  -10   18    3     -5.34      0.00
  -12   18    5    -11.15      0.00
  -14   18    7      5.15      0.00
  -16   18    9     -0.59      0.00
  -18   18   11      3.86      0.00
  -20   18   13     13.08      0.00
  -22   18   15      1.96      0.00
  -24   18   17     -1.31      0.00
  -15   19   22    -10.35      0.00
  -13   19   20      1.30      0.00
  -11   19   18      0.34      0.00
   -9   19   16     -4.97      0.00
   -7   19   14     -1.96      0.00
   -5   19   12      7.65      0.00
   -3   19   10     -9.25      0.00
   -1   19    8    -10.32      0.00
    1   19    6     11.93      0.00
    3   19    4      6.52      0.00
    5   19    2     -9.61      0.00
    7   19    0     -2.12      0.00
   -9   19    2      4.94      0.00
  -11   19    4      3.03      0.00
  -13   19    6    -13.08      0.00
  -15   19    8    -21.24      0.00
  -17   19   10      3.88      0.00
  -19   19   12      3.10      0.00
  -21   19   14      2.55      0.00
  -23   19   16      0.27      0.00
  -25   19   18     -2.58      0.00
  -14   20   21     -4.08      0.00
  -12   20   19     -2.52      0.00
  -10   20   17     -0.06      0.00
   -8   20   15      4.65      0.00
   -6   20   13     -2.64      0.00
   -4   20   11     -9.10      0.00
   -2   20    9      1.12      0.00
    0   20    7      2.23      0.00
    2   20    5      3.81      0.00
    4   20    3      1.68      0.00
    6   20    1     -4.16      0.00
   -8   20    1     -0.83      0.00
  -10   20    3     -3.90      0.00
  -12   20    5    -10.96      0.00
  -14   20    7      6.98      0.00
  -16   20    9     -0.97      0.00
  -18   20   11     -2.57      0.00
  -20   20   13      9.90      0.00
  -22   20   15     -0.19      0.00
  -24   20   17     -1.68      0.00
  -13   21   20      1.18      0.00
  -11   21   18     -2.99      0.00
   -9   21   16     -4.48      0.00
   -7   21   14     -2.08      0.00
   -5   21   12      1.39      0.00
   -3   21   10     -6.71      0.00
   -1   21    8      0.60      0.00
    1   21    6     14.63      0.00
    3   21    4      8.98      0.00
    5   21    2     -1.53      0.00
    7   21    0     11.60      0.00
   -9   21    2      5.51      0.00
  -11   21    4      1.90      0.00
  -13   21    6     -4.01      0.00
  -15   21    8     -6.40      0.00
  -17   21   10     10.02      0.00
  -19   21   12      2.06      0.00
  -21   21   14      4.58      0.00
  -23   21   16      1.17      0.00
  -14   22   21     -0.86      0.00
  -12   22   19     -3.76      0.00
  -10   22   17     -3.06      0.00
   -8   22   15      6.53      0.00
   -6   22   13      9.46      0.00
   -4   22   11      0.49      0.00
   -2   22    9     10.69      0.00
    0   22    7      9.86      0.00
    2   22    5     10.99      0.00
    4   22    3     13.20      0.00
    6   22    1      5.13      0.00
   -8   22    1      4.89      0.00
  -10   22    3      5.95      0.00
  -12   22    5     -9.04      0.00
  -14   22    7     11.85      0.00
  -16   22    9     11.85      0.00
  -18   22   11      1.70      0.00
  -20   22   13      6.11      0.00
  -22   22   15     -1.53      0.00
  -24   22   17     -1.97      0.00
  -13   23   20     -2.86      0.00
  -11   23   18     -6.40      0.00
   -9   23   16      0.67      0.00
   -7   23   14      0.65      0.00
   -5   23   12     10.10      0.00
   -3   23   10      6.51      0.00
   -1   23    8     -1.53      0.00
    1   23    6      0.77      0.00
    3   23    4      2.91      0.00
    5   23    2      2.14      0.00
    7   23    0      8.86      0.00
   -9   23    2      3.24      0.00
  -11   23    4      5.92      0.00
  -13   23    6     -2.89      0.00
  -15   23    8     -1.95      0.00
  -17   23   10     13.16      0.00
  -19   23   12      1.09      0.00
  -21   23   14      2.29      0.00
  -23   23   16     -1.32      0.00
  -12   24   19     -2.27      0.00
  -10   24   17     -0.63      0.00
   -8   24   15      1.53      0.00
   -6   24   13      7.37      0.00
   -4   24   11     -3.29      0.00
   -2   24    9     -4.36      0.00
    0   24    7     -4.11      0.00
    2   24    5     -3.08      0.00
    4   24    3      6.52      0.00
    6   24    1     -2.41      0.00
   -8   24    1     -3.20      0.00
  -10   24    3      2.13      0.00
  -12   24    5    -10.81      0.00
  -14   24    7     -3.96      0.00
  -16   24    9     -2.64      0.00
  -18   24   11     -1.89      0.00
  -20   24   13      2.96      0.00
  -22   24   15     -5.73      0.00
  -13   25   20     -2.74      0.00
  -11   25   18     -3.54      0.00
   -9   25   16     -2.40      0.00
   -7   25   14    -11.52      0.00
   -5   25   12      0.75      0.00
   -3   25   10      0.62      0.00
   -1   25    8     -7.23      0.00
    1   25    6     -2.42      0.00
    3   25    4      0.58      0.00
    5   25    2     -1.82      0.00
    7   25    0      1.26      0.00
   -9   25    2     -3.00      0.00
  -11   25    4      3.78      0.00
  -13   25    6     -8.22      0.00
  -15   25    8    -13.37      0.00
  -17   25   10      5.32      0.00
  -19   25   12     -0.65      0.00
  -21   25   14     -0.86      0.00
  -23   25   16     -7.00      0.00
  -12   26   19      2.86      0.00
  -10   26   17      1.96      0.00
   -8   26   15     -2.63      0.00
   -6   26   13      3.88      0.00
   -4   26   11     -5.81      0.00
   -2   26    9     -2.43      0.00
    0   26    7      7.63      0.00
    2   26    5      4.81      0.00
    4   26    3      4.29      0.00
    6   26    1     -5.20      0.00
   -8   26    1      4.07      0.00
  -10   26    3      2.53      0.00
  -12   26    5     -9.12      0.00
  -14   26    7     -6.79      0.00
  -16   26    9     -6.04      0.00
  -18   26   11     -1.85      0.00
  -20   26   13      2.42      0.00
  -22   26   15     -3.92      0.00
  -11   27   18      0.46      0.00
   -9   27   16      3.82      0.00
   -7   27   14     -1.79      0.00
   -5   27   12     -0.54      0.00
   -3   27   10      3.07      0.00
   -1   27    8      0.69      0.00
    1   27    6      0.38      0.00
    3   27    4      0.06      0.00
    5   27    2      4.91      0.00
    7   27    0      9.67      0.00
   -9   27    2      1.92      0.00
  -11   27    4      8.03      0.00
  -13   27    6      1.15      0.00
  -15   27    8     -5.91      0.00
  -17   27   10      6.27      0.00
  -19   27   12     -0.87      0.00
  -21   27   14     -0.37      0.00
  -12   28   19     -1.45      0.00
  -10   28   17     -2.23      0.00
   -8   28   15      1.20      0.00
   -6   28   13      9.03      0.00
   -4   28   11      0.87      0.00
   -2   28    9      6.05      0.00
    0   28    7      7.90      0.00
    2   28    5      1.65      0.00
    4   28    3      0.21      0.00
    6   28    1     -4.91      0.00
   -8   28    1      6.41      0.00
  -10   28    3      3.74      0.00
  -12   28    5     -1.88      0.00
  -14   28    7      9.33      0.00
  -16   28    9      1.58      0.00
  -18   28   11      2.63      0.00
  -20   28   13      6.06      0.00
  -22   28   15      1.66      0.00
  -11   29   18     -3.54      0.00
   -9   29   16     -0.82      0.00
   -7   29   14      0.54      0.00
   -5   29   12      6.55      0.00
   -3   29   10      8.73      0.00
   -1   29    8     -1.17      0.00
    1   29    6     -4.80      0.00
    3   29    4     -5.65      0.00
    5   29    2      1.85      0.00
    7   29    0      2.49      0.00
   -9   29    2     -7.12      0.00
  -11   29    4     -0.98      0.00
  -13   29    6     -3.10      0.00
  -15   29    8     -6.00      0.00
  -17   29   10      2.33      0.00
  -19   29   12     -2.42      0.00
  -21   29   14      0.47      0.00
  -10   30   17     -4.29      0.00
   -8   30   15     -0.38      0.00
   -6   30   13      6.75      0.00
   -4   30   11      0.21      0.00
   -2   30    9     -2.83      0.00
    0   30    7     -4.40      0.00
    2   30    5     -7.16      0.00
    4   30    3     -4.13      0.00
    6   30    1     -6.63      0.00
   -8   30    1     -0.59      0.00
  -10   30    3      0.82      0.00
  -12   30    5     -2.22      0.00
  -14   30    7      5.77      0.00
  -16   30    9     -4.69      0.00
  -18   30   11     -2.66      0.00
  -20   30   13      3.95      0.00
   -9   31   16      1.02      0.00
   -7   31   14     -8.13      0.00
   -5   31   12     -1.20      0.00
   -3   31   10      1.53      0.00
   -1   31    8     -7.49      0.00
    1   31    6     -4.72      0.00
    3   31    4     -2.39      0.00
    5   31    2      4.14      0.00
    7   31    0      3.05      0.00
   -9   31    2     -1.62      0.00
  -11   31    4      3.76      0.00
  -13   31    6     -4.37      0.00
  -15   31    8     -8.60      0.00
  -17   31   10      1.13      0.00
  -19   31   12     -2.74      0.00
   -8   32   15     -0.73      0.00
   -6   32   13      1.77      0.00
   -4   32   11     -4.50      0.00
   -2   32    9     -5.21      0.00
    0   32    7     -2.05      0.00
    2   32    5      1.18      0.00
    4   32    3      4.46      0.00
    6   32    1      1.51      0.00
   -8   32    1      7.76      0.00
  -10   32    3      7.91      0.00
  -12   32    5     -0.44      0.00
  -14   32    7      1.59      0.00
  -16   32    9     -1.30      0.00
  -18   32   11      0.11      0.00
   -9   33   16      4.19      0.00
   -7   33   14     -7.39      0.00
   -5   33   12     -4.51      0.00
   -3   33   10      3.54      0.00
   -1   33    8     -0.16      0.00
    1   33    6      0.18      0.00
    3   33    4     -2.92      0.00
    5   33    2      5.44      0.00
    7   33    0      6.09      0.00
   -9   33    2      3.98      0.00
  -11   33    4      6.18      0.00
  -13   33    6     -1.10      0.00
  -15   33    8     -6.28      0.00
  -17   33   10      2.98      0.00
  -19   33   12      1.00      0.00
   -8   34   15     -1.69      0.00
   -6   34   13      3.78      0.00
   -4   34   11     -6.00      0.00
   -2   34    9     -5.94      0.00
    0   34    7     -5.86      0.00
    2   34    5     -6.48      0.00
    4   34    3     -2.94      0.00
    6   34    1     -3.74      0.00
   -8   34    1      2.85      0.00
  -10   34    3      0.12      0.00
  -12   34    5     -3.30      0.00
  -14   34    7      3.24      0.00
  -16   34    9      1.52      0.00
  -18   34   11      3.62      0.00
   -7   35   14     -6.61      0.00
   -5   35   12      0.24      0.00
   -3   35   10      2.53      0.00
   -1   35    8     -0.94      0.00
    1   35    6      0.28      0.00
    3   35    4     -7.42      0.00
    5   35    2     -1.96      0.00
    7   35    0     -2.81      0.00
   -9   35    2     -5.51      0.00
  -11   35    4      1.54      0.00
  -13   35    6     -1.88      0.00
  -15   35    8     -4.55      0.00
  -17   35   10      0.35      0.00
   -6   36   13      5.78      0.00
   -4   36   11     -4.59      0.00
   -2   36    9     -4.96      0.00
    0   36    7     -5.26      0.00
    2   36    5     -4.51      0.00
    4   36    3      1.82      0.00
    6   36    1      0.18      0.00
   -8   36    1      3.88      0.00
  -10   36    3     -2.51      0.00
  -12   36    5     -1.79      0.00
  -14   36    7      2.94      0.00
  -16   36    9     -0.03      0.00
   -5   37   12     -0.07      0.00
   -3   37   10      3.09      0.00
   -1   37    8     -1.82      0.00
    1   37    6      0.88      0.00
    3   37    4      0.46      0.00
    5   37    2      3.72      0.00
    7   37    0      4.39      0.00
   -9   37    2     -0.50      0.00
  -11   37    4      6.74      0.00
  -13   37    6      0.28      0.00
  -15   37    8     -0.76      0.00
   -4   38   11     -5.82      0.00
   -2   38    9     -2.13      0.00
    0   38    7     -4.16      0.00
    2   38    5     -1.68      0.00
    4   38    3      3.22      0.00
    6   38    1      2.64      0.00
   -8   38    1      8.03      0.00
  -10   38    3     -2.11      0.00
  -12   38    5     -4.29      0.00
  -14   38    7      1.04      0.00
   -3   39   10      3.01      0.00
   -1   39    8      2.04      0.00
    1   39    6      4.28      0.00
    3   39    4      1.29      0.00
    5   39    2      0.78      0.00
    7   39    0      0.46      0.00
   -9   39    2     -0.38      0.00
  -11   39    4      5.99      0.00
  -13   39    6     -1.90      0.00
    0   40    7      0.75      0.00
    2   40    5      1.18      0.00
    4   40    3      2.24      0.00
    6   40    1     -1.26      0.00
   -8   40    1     -0.15      0.00
  -10   40    3     -2.36      0.00
  -12   40    5     -2.09      0.00
    1   41    6      3.84      0.00
    3   41    4     -2.37      0.00
    5   41    2     -1.36      0.00
    7   41    0     -0.79      0.00
   -9   41    2      2.52      0.00
  -16    0   24     11.03      0.00
  -14    0   22      0.60      0.00
  -12    0   20      2.05      0.00
  -10    0   18      6.23      0.00
   -8    0   16      3.36      0.00
   -6    0   14    -17.05      0.00
   -4    0   12     25.94      0.00
   -2    0   10     40.15      0.00
    0    0    8     26.67      0.00
    2    0    6     24.73      0.00
    4    0    4     75.15      0.00
    6    0    2     89.12      0.00
    8    0    0    -17.22      0.00
  -10    0    2    -32.60      0.00
  -12    0    4     12.76      0.00
  -14    0    6     32.88      0.00
  -16    0    8     -3.01      0.00
  -18    0   10      8.89      0.00
  -20    0   12      8.32      0.00
  -22    0   14      9.10      0.00
  -24    0   16     -0.87      0.00
  -26    0   18     -5.24      0.00
  -28    0   20      3.76      0.00
  -17    1   25      0.40      0.00
  -15    1   23      9.10      0.00
  -13    1   21      9.95      0.00
  -11    1   19      6.08      0.00
   -9    1   17      7.92      0.00
   -7    1   15      3.94      0.00
   -5    1   13    -20.00      0.00
   -3    1   11      5.70      0.00
   -1    1    9     47.50      0.00
    1    1    7      1.46      0.00
    3    1    5     33.90      0.00
    5    1    3      7.31      0.00
    7    1    1     24.11      0.00
   -9    1    1      0.80      0.00
  -11    1    3     -6.08      0.00
  -13    1    5    -20.76      0.00
  -15    1    7     21.31      0.00
  -17    1    9     15.93      0.00
  -19    1   11     -0.91      0.00
  -21    1   13     -6.74      0.00
  -23    1   15      1.25      0.00
  -25    1   17      5.30      0.00
  -27    1   19      6.73      0.00
  -16    2   24      6.95      0.00
  -14    2   22     -5.40      0.00
  -12    2   20      0.94      0.00
  -10    2   18      1.18      0.00
   -8    2   16     -0.20      0.00
   -6    2   14    -10.89      0.00
   -4    2   12     26.35      0.00
   -2    2   10     26.84      0.00
    0    2    8     24.40      0.00
    2    2    6     28.11      0.00
    4    2    4     36.78      0.00
    6    2    2     -0.65      0.00
    8    2    0    -49.13      0.00
  -10    2    2    -16.91      0.00
  -12    2    4     15.10      0.00
  -14    2    6     12.37      0.00
  -16    2    8    -14.05      0.00
  -18    2   10      6.85      0.00
  -20    2   12      4.85      0.00
  -22    2   14     -0.06      0.00
  -24    2   16     -3.73      0.00
  -26    2   18     -4.21      0.00
  -28    2   20      1.64      0.00
  -15    3   23     -1.79      0.00
  -13    3   21      0.82      0.00
  -11    3   19      5.66      0.00
   -9    3   17      3.78      0.00
   -7    3   15     -1.40      0.00
   -5    3   13     -3.80      0.00
   -3    3   11      0.45      0.00
   -1    3    9     16.21      0.00
    1    3    7     41.84      0.00
    3    3    5     46.02      0.00
    5    3    3    -89.30      0.00
    7    3    1    -38.79      0.00
   -9    3    1    -27.00      0.00
  -11    3    3     -4.98      0.00
  -13    3    5    -12.11      0.00
  -15    3    7     19.32      0.00
  -17    3    9     12.21      0.00
  -19    3   11     -4.82      0.00
  -21    3   13     -7.39      0.00
  -23    3   15     -4.68      0.00
  -25    3   17      0.09      0.00
  -27    3   19      4.98      0.00
  -16    4   24      3.41      0.00
  -14    4   22     -7.67      0.00
  -12    4   20      1.76      0.00
  -10    4   18      1.53      0.00
   -8    4   16      8.84      0.00
   -6    4   14     -6.97      0.00
   -4    4   12     10.53      0.00
   -2    4   10     22.13      0.00
    0    4    8     28.98      0.00
    2    4    6      1.52      0.00
    4    4    4     32.51      0.00
    6    4    2     -5.19      0.00
    8    4    0    -29.88      0.00
  -10    4    2      9.31      0.00
  -12    4    4     20.72      0.00
  -14    4    6     10.07      0.00
  -16    4    8     -8.11      0.00
  -18    4   10     13.51      0.00
  -20    4   12      4.77      0.00
  -22    4   14      0.13      0.00
  -24    4   16      0.41      0.00
  -26    4   18     -3.68      0.00
  -28    4   20     -0.37      0.00
  -15    5   23     -2.11      0.00
  -13    5   21     -6.58      0.00
  -11    5   19      4.28      0.00
   -9    5   17      6.57      0.00
   -7    5   15     -3.22      0.00
   -5    5   13     -2.51      0.00
   -3    5   11      1.03      0.00
   -1    5    9     -0.77      0.00
    1    5    7     46.37      0.00
    3    5    5     61.60      0.00
    5    5    3    -45.94      0.00
    7    5    1     10.59      0.00
   -9    5    1    -14.71      0.00
  -11    5    3     -5.64      0.00
  -13    5    5    -10.30      0.00
  -15    5    7     22.59      0.00
  -17    5    9      8.92      0.00
  -19    5   11     -9.89      0.00
  -21    5   13     -4.11      0.00
  -23    5   15      2.15      0.00
  -25    5   17     -0.51      0.00
  -27    5   19      2.02      0.00
  -16    6   24      0.38      0.00
  -14    6   22     -7.69      0.00
  -12    6   20     -2.98      0.00
  -10    6   18     -2.10      0.00
   -8    6   16     14.03      0.00
   -6    6   14     -9.33      0.00
   -4    6   12    -18.06      0.00
   -2    6   10      9.29      0.00
    0    6    8     -1.89      0.00
    2    6    6    -71.69      0.00
    4    6    4     17.25      0.00
    6    6    2     12.19      0.00
    8    6    0    -32.53      0.00
  -10    6    2    -16.44      0.00
  -12    6    4    -15.29      0.00
  -14    6    6     -3.43      0.00
  -16    6    8    -15.94      0.00
  -18    6   10      1.00      0.00
  -20    6   12     -1.35      0.00
  -22    6   14      4.75      0.00
  -24    6   16      3.01      0.00
  -26    6   18     -3.45      0.00
  -28    6   20      1.25      0.00
  -15    7   23     -0.13      0.00
  -13    7   21     -7.55      0.00
  -11    7   19      0.69      0.00
   -9    7   17     -1.15      0.00
   -7    7   15    -11.02      0.00
   -5    7   13     -8.82      0.00
   -3    7   11     -8.25      0.00
   -1    7    9    -37.20      0.00
    1    7    7    -20.13      0.00
    3    7    5     16.72      0.00
    5    7    3    -51.79      0.00
    7    7    1     -6.19      0.00
   -9    7    1    -22.54      0.00
  -11    7    3    -10.40      0.00
  -13    7    5    -15.93      0.00
  -15    7    7     15.92      0.00
  -17    7    9     -3.03      0.00
  -19    7   11     -9.61      0.00
  -21    7   13     -5.24      0.00
  -23    7   15     -2.10      0.00
  -25    7   17     -1.66      0.00
  -27    7   19      3.35      0.00
  -16    8   24     -2.55      0.00
  -14    8   22     -7.38      0.00
  -12    8   20     -3.96      0.00
  -10    8   18      0.15      0.00
   -8    8   16     11.83      0.00
   -6    8   14     -2.67      0.00
   -4    8   12    -19.86      0.00
   -2    8   10     -4.65      0.00
    0    8    8      0.52      0.00
    2    8    6    -46.40      0.00
    4    8    4    -19.52      0.00
    6    8    2    -62.29      0.00
    8    8    0    -60.99      0.00
  -10    8    2    -24.92      0.00
  -12    8    4    -12.69      0.00
  -14    8    6     -1.25      0.00
  -16    8    8    -13.91      0.00
  -18    8   10      0.45      0.00
  -20    8   12     -6.51      0.00
  -22    8   14     -3.66      0.00
  -24    8   16      1.94      0.00
  -26    8   18      1.76      0.00
  -28    8   20      3.51      0.00
  -15    9   23     -1.86      0.00
  -13    9   21     -0.66      0.00
  -11    9   19      9.58      0.00
   -9    9   17      7.06      0.00
   -7    9   15     -6.60      0.00
   -5    9   13      3.86      0.00
   -3    9   11     15.72      0.00
   -1    9    9     -2.61      0.00
    1    9    7      5.62      0.00
    3    9    5     25.45      0.00
    5    9    3    -31.60      0.00
    7    9    1      6.12      0.00
   -9    9    1    -16.86      0.00
  -11    9    3      4.00      0.00
  -13    9    5     12.54      0.00
  -15    9    7     21.09      0.00
  -17    9    9     -0.83      0.00
  -19    9   11     -2.39      0.00
  -21    9   13     -7.23      0.00
  -23    9   15     -5.22      0.00
  -25    9   17     -0.32      0.00
  -27    9   19      0.91      0.00
  -16   10   24     -0.12      0.00
  -14   10   22     -2.17      0.00
  -12   10   20      4.34      0.00
  -10   10   18     12.79      0.00
   -8   10   16     18.26      0.00
   -6   10   14      2.64      0.00
   -4   10   12    -16.46      0.00
   -2   10   10    -11.15      0.00
    0   10    8     36.81      0.00
    2   10    6     21.83      0.00
    4   10    4     -0.11      0.00
    6   10    2    -44.08      0.00
    8   10    0     -1.65      0.00
  -10   10    2     18.31      0.00
  -12   10    4     21.81      0.00
  -14   10    6     29.34      0.00
  -16   10    8     12.73      0.00
  -18   10   10     10.18      0.00
  -20   10   12     -9.59      0.00
  -22   10   14     -3.62      0.00
  -24   10   16      6.50      0.00
  -26   10   18      2.12      0.00
  -15   11   23     -2.37      0.00
  -13   11   21      2.45      0.00
  -11   11   19     12.82      0.00
   -9   11   17      8.38      0.00
   -7   11   15    -11.08      0.00
   -5   11   13     -7.85      0.00
   -3   11   11      2.90      0.00
   -1   11    9     -3.65      0.00
    1   11    7     12.73      0.00
    3   11    5     26.16      0.00
    5   11    3      9.36      0.00
    7   11    1     29.85      0.00
   -9   11    1     -1.46      0.00
  -11   11    3     20.43      0.00
  -13   11    5     25.51      0.00
  -15   11    7     23.88      0.00
  -17   11    9      5.31      0.00
  -19   11   11     -2.54      0.00
  -21   11   13     -1.48      0.00
  -23   11   15      0.03      0.00
  -25   11   17      0.80      0.00
  -27   11   19     -0.28      0.00
  -16   12   24      3.55      0.00
  -14   12   22     -2.52      0.00
  -12   12   20      0.08      0.00
  -10   12   18      4.39      0.00
   -8   12   16      6.34      0.00
   -6   12   14     -6.75      0.00
   -4   12   12    -17.02      0.00
   -2   12   10    -17.18      0.00
    0   12    8      7.45      0.00
    2   12    6     -3.89      0.00
    4   12    4      8.17      0.00
    6   12    2    -29.30      0.00
    8   12    0      6.54      0.00
  -10   12    2     12.71      0.00
  -12   12    4     -3.99      0.00
  -14   12    6     14.84      0.00
  -16   12    8      3.82      0.00
  -18   12   10     -1.34      0.00
  -20   12   12    -10.25      0.00
  -22   12   14     -2.73      0.00
  -24   12   16      1.51      0.00
  -26   12   18     -2.97      0.00
  -15   13   23     -0.40      0.00
  -13   13   21      2.07      0.00
  -11   13   19      6.38      0.00
   -9   13   17      2.13      0.00
   -7   13   15     -6.63      0.00
   -5   13   13     -3.31      0.00
   -3   13   11      0.44      0.00
   -1   13    9    -17.80      0.00
    1   13    7     -7.21      0.00
    3   13    5      2.00      0.00
    5   13    3     -6.22      0.00
    7   13    1      3.22      0.00
   -9   13    1    -12.13      0.00
  -11   13    3     18.11      0.00
  -13   13    5      9.86      0.00
  -15   13    7     12.11      0.00
  -17   13    9      2.91      0.00
  -19   13   11     -0.08      0.00
  -21   13   13     -0.78      0.00
  -23   13   15     -7.86      0.00
  -25   13   17     -3.96      0.00
  -27   13   19      0.91      0.00
  -14   14   22      0.80      0.00
  -12   14   20     -0.31      0.00
  -10   14   18      2.26      0.00
   -8   14   16      4.41      0.00
   -6   14   14     -5.00      0.00
   -4   14   12     -8.85      0.00
   -2   14   10      2.57      0.00
    0   14    8      1.35      0.00
    2   14    6    -11.02      0.00
    4   14    4     16.53      0.00
    6   14    2    -30.97      0.00
    8   14    0     -9.69      0.00
  -10   14    2      4.64      0.00
  -12   14    4     -2.93      0.00
  -14   14    6     18.70      0.00
  -16   14    8      5.14      0.00
  -18   14   10      6.45      0.00
  -20   14   12     -2.36      0.00
  -22   14   14     -6.09      0.00
  -24   14   16     -3.05      0.00
  -26   14   18     -6.44      0.00
  -15   15   23     -3.12      0.00
  -13   15   21      0.34      0.00
  -11   15   19      5.42      0.00
   -9   15   17      7.17      0.00
   -7   15   15      6.56      0.00
   -5   15   13      6.88      0.00
   -3   15   11     12.39      0.00
   -1   15    9      8.34      0.00
    1   15    7     17.27      0.00
    3   15    5      5.55      0.00
    5   15    3     -2.51      0.00
    7   15    1     22.29      0.00
   -9   15    1      1.97      0.00
  -11   15    3     19.65      0.00
  -13   15    5      6.97      0.00
  -15   15    7     14.15      0.00
  -17   15    9      4.55      0.00
  -19   15   11      0.71      0.00
  -21   15   13     -3.95      0.00
  -23   15   15     -7.43      0.00
  -25   15   17     -1.51      0.00
  -14   16   22     -0.68      0.00
  -12   16   20      1.40      0.00
  -10   16   18      2.29      0.00
   -8   16   16      5.50      0.00
   -6   16   14     -4.11      0.00
   -4   16   12    -17.28      0.00
   -2   16   10      2.28      0.00
    0   16    8     19.89      0.00
    2   16    6      5.95      0.00
    4   16    4     14.26      0.00
    6   16    2    -27.59      0.00
    8   16    0     -3.24      0.00
  -10   16    2      8.99      0.00
  -12   16    4     -1.11      0.00
  -14   16    6     15.59      0.00
  -16   16    8      0.02      0.00
  -18   16   10     -2.25      0.00
  -20   16   12     -9.00      0.00
  -22   16   14     -2.73      0.00
  -24   16   16     -1.34      0.00
  -26   16   18     -8.39      0.00
  -15   17   23     -3.01      0.00
  -13   17   21     -3.28      0.00
  -11   17   19      3.67      0.00
   -9   17   17      1.03      0.00
   -7   17   15     -7.88      0.00
   -5   17   13     -4.95      0.00
   -3   17   11     -1.64      0.00
   -1   17    9     -7.43      0.00
    1   17    7      3.31      0.00
    3   17    5     -4.58      0.00
    5   17    3     -7.59      0.00
    7   17    1     13.27      0.00
   -9   17    1     -4.22      0.00
  -11   17    3      7.37      0.00
  -13   17    5     -4.36      0.00
  -15   17    7      5.21      0.00
  -17   17    9     -0.27      0.00
  -19   17   11     -4.80      0.00
  -21   17   13     -7.94      0.00
  -23   17   15     -4.17      0.00
  -25   17   17      1.83      0.00
  -14   18   22     -0.89      0.00
  -12   18   20      3.24      0.00
  -10   18   18     -3.38      0.00
   -8   18   16     -0.54      0.00
   -6   18   14     -1.81      0.00
   -4   18   12    -11.24      0.00
   -2   18   10     -1.71      0.00
    0   18    8     19.30      0.00
    2   18    6      9.28      0.00
    4   18    4     12.10      0.00
    6   18    2    -18.71      0.00
    8   18    0      1.65      0.00
  -10   18    2      5.16      0.00
  -12   18    4     -1.77      0.00
  -14   18    6     12.03      0.00
  -16   18    8     -0.26      0.00
  -18   18   10     -3.05      0.00
  -20   18   12     -6.51      0.00
  -22   18   14      1.24      0.00
  -24   18   16     -0.42      0.00
  -26   18   18     -5.91      0.00
  -13   19   21     -1.83      0.00
  -11   19   19      0.33      0.00
   -9   19   17      0.75      0.00
   -7   19   15     -1.22      0.00
   -5   19   13      9.69      0.00
   -3   19   11     12.42      0.00
   -1   19    9      1.19      0.00
    1   19    7     12.58      0.00
    3   19    5      6.44      0.00
    5   19    3     -1.06      0.00
    7   19    1     11.12      0.00
   -9   19    1     -9.16      0.00
  -11   19    3      2.39      0.00
  -13   19    5     -1.93      0.00
  -15   19    7      4.95      0.00
  -17   19    9      8.88      0.00
  -19   19   11      7.07      0.00
  -21   19   13     -4.37      0.00
  -23   19   15     -3.42      0.00
  -25   19   17     -0.33      0.00
  -14   20   22      0.46      0.00
  -12   20   20      3.67      0.00
  -10   20   18     -1.68      0.00
   -8   20   16      6.40      0.00
   -6   20   14      6.41      0.00
   -4   20   12      0.24      0.00
   -2   20   10     10.45      0.00
    0   20    8     14.13      0.00
    2   20    6      2.14      0.00
    4   20    4      8.80      0.00
    6   20    2     -7.03      0.00
    8   20    0      8.30      0.00
  -10   20    2     10.47      0.00
  -12   20    4     10.03      0.00
  -14   20    6     21.22      0.00
  -16   20    8     11.25      0.00
  -18   20   10      5.50      0.00
  -20   20   12      1.84      0.00
  -22   20   14     -0.21      0.00
  -24   20   16     -2.18      0.00
  -13   21   21     -5.11      0.00
  -11   21   19     -3.00      0.00
   -9   21   17      5.99      0.00
   -7   21   15      5.80      0.00
   -5   21   13      2.90      0.00
   -3   21   11      3.70      0.00
   -1   21    9      1.07      0.00
    1   21    7     11.56      0.00
    3   21    5     -5.88      0.00
    5   21    3     -9.27      0.00
    7   21    1     14.52      0.00
   -9   21    1     -1.45      0.00
  -11   21    3     -1.98      0.00
  -13   21    5     -4.58      0.00
  -15   21    7      8.19      0.00
  -17   21    9      8.40      0.00
  -19   21   11      3.74      0.00
  -21   21   13     -1.13      0.00
  -23   21   15      0.52      0.00
  -25   21   17     -3.01      0.00
  -12   22   20     -0.55      0.00
  -10   22   18     -1.01      0.00
   -8   22   16      0.14      0.00
   -6   22   14     -6.61      0.00
   -4   22   12    -12.28      0.00
   -2   22   10      3.00      0.00
    0   22    8      2.82      0.00
    2   22    6     -2.19      0.00
    4   22    4      5.65      0.00
    6   22    2    -12.91      0.00
    8   22    0      0.00      0.00
  -10   22    2      7.46      0.00
  -12   22    4     -0.53      0.00
  -14   22    6      7.86      0.00
  -16   22    8      0.03      0.00
  -18   22   10     -5.72      0.00
  -20   22   12     -0.85      0.00
  -22   22   14     -2.78      0.00
  -24   22   16     -4.05      0.00
  -13   23   21     -3.24      0.00
  -11   23   19     -1.16      0.00
   -9   23   17     -0.67      0.00
   -7   23   15     -6.14      0.00
   -5   23   13     -3.34      0.00
   -3   23   11     -4.21      0.00
   -1   23    9     -8.83      0.00
    1   23    7      5.97      0.00
    3   23    5     -5.58      0.00
    5   23    3    -15.34      0.00
    7   23    1     -3.88      0.00
   -9   23    1     -7.28      0.00
  -11   23    3     -7.01      0.00
  -13   23    5    -14.90      0.00
  -15   23    7     -0.36      0.00
  -17   23    9      0.37      0.00
  -19   23   11     -3.83      0.00
  -21   23   13     -2.54      0.00
  -23   23   15      2.12      0.00
  -12   24   20      6.27      0.00
  -10   24   18      1.67      0.00
   -8   24   16     -2.05      0.00
   -6   24   14      0.69      0.00
   -4   24   12     -7.13      0.00
   -2   24   10     -4.12      0.00
    0   24    8      0.86      0.00
    2   24    6      2.82      0.00
    4   24    4      8.68      0.00
    6   24    2    -12.80      0.00
    8   24    0     -1.47      0.00
  -10   24    2      3.12      0.00
  -12   24    4     -0.89      0.00
  -14   24    6      0.57      0.00
  -16   24    8     -5.20      0.00
  -18   24   10     -4.27      0.00
  -20   24   12      0.67      0.00
  -22   24   14     -4.06      0.00
  -24   24   16     -0.80      0.00
  -11   25   19      0.31      0.00
   -9   25   17     -6.03      0.00
   -7   25   15     -4.26      0.00
   -5   25   13      9.02      0.00
   -3   25   11      6.52      0.00
   -1   25    9      1.20      0.00
    1   25    7     10.02      0.00
    3   25    5      1.14      0.00
    5   25    3     -7.34      0.00
    7   25    1     -2.35      0.00
   -9   25    1     -6.10      0.00
  -11   25    3     -2.75      0.00
  -13   25    5    -11.36      0.00
  -15   25    7      4.41      0.00
  -17   25    9      6.56      0.00
  -19   25   11     -1.03      0.00
  -21   25   13      0.49      0.00
  -23   25   15      2.50      0.00
  -12   26   20     -0.14      0.00
  -10   26   18     -2.53      0.00
   -8   26   16      1.00      0.00
   -6   26   14      6.86      0.00
   -4   26   12      3.26      0.00
   -2   26   10      6.12      0.00
    0   26    8      4.49      0.00
    2   26    6     -0.92      0.00
    4   26    4      5.42      0.00
    6   26    2     -8.66      0.00
    8   26    0     -1.92      0.00
  -10   26    2     -7.09      0.00
  -12   26    4     -4.73      0.00
  -14   26    6     -5.73      0.00
  -16   26    8     -4.82      0.00
  -18   26   10      0.63      0.00
  -20   26   12      0.45      0.00
  -22   26   14     -4.52      0.00
  -11   27   19      1.13      0.00
   -9   27   17     -0.69      0.00
   -7   27   15     -0.72      0.00
   -5   27   13      1.99      0.00
   -3   27   11      4.93      0.00
   -1   27    9      2.17      0.00
    1   27    7      1.47      0.00
    3   27    5    -10.18      0.00
    5   27    3     -8.38      0.00
    7   27    1      3.18      0.00
   -9   27    1     -2.49      0.00
  -11   27    3     -5.74      0.00
  -13   27    5    -12.42      0.00
  -15   27    7      2.79      0.00
  -17   27    9      1.14      0.00
  -19   27   11     -8.96      0.00
  -21   27   13     -0.07      0.00
  -23   27   15      2.30      0.00
  -10   28   18     -0.80      0.00
   -8   28   16      3.40      0.00
   -6   28   14     -2.79      0.00
   -4   28   12     -1.31      0.00
   -2   28   10      6.02      0.00
    0   28    8      0.84      0.00
    2   28    6      0.37      0.00
    4   28    4     10.72      0.00
    6   28    2     -3.05      0.00
    8   28    0     -2.67      0.00
  -10   28    2     -6.21      0.00
  -12   28    4     -0.82      0.00
  -14   28    6     -1.78      0.00
  -16   28    8     -6.59      0.00
  -18   28   10      3.25      0.00
  -20   28   12      2.06      0.00
  -22   28   14     -3.51      0.00
   -9   29   17      0.79      0.00
   -7   29   15      0.05      0.00
   -5   29   13      0.38      0.00
   -3   29   11      2.22      0.00
   -1   29    9      4.73      0.00
    1   29    7     11.94      0.00
    3   29    5      3.81      0.00
    5   29    3      2.73      0.00
    7   29    1      9.73      0.00
   -9   29    1      7.52      0.00
  -11   29    3      2.86      0.00
  -13   29    5     -6.05      0.00
  -15   29    7      0.83      0.00
  -17   29    9      0.56      0.00
  -19   29   11     -5.16      0.00
  -21   29   13      0.48      0.00
  -10   30   18      1.47      0.00
   -8   30   16      2.99      0.00
   -6   30   14      0.12      0.00
   -4   30   12      3.48      0.00
   -2   30   10      3.71      0.00
    0   30    8      1.77      0.00
    2   30    6      3.00      0.00
    4   30    4     12.26      0.00
    6   30    2      0.87      0.00
    8   30    0      0.49      0.00
  -10   30    2      2.14      0.00
  -12   30    4      7.37      0.00
  -14   30    6      4.57      0.00
  -16   30    8     -5.75      0.00
  -18   30   10      4.61      0.00
  -20   30   12      6.75      0.00
   -9   31   17     -5.09      0.00
   -7   31   15     -0.94      0.00
   -5   31   13      4.45      0.00
   -3   31   11     -0.49      0.00
   -1   31    9      0.14      0.00
    1   31    7      8.10      0.00
    3   31    5     -0.89      0.00
    5   31    3     -4.97      0.00
    7   31    1      3.08      0.00
   -9   31    1      4.85      0.00
  -11   31    3      2.20      0.00
  -13   31    5     -6.21      0.00
  -15   31    7      1.90      0.00
  -17   31    9      4.01      0.00
  -19   31   11     -3.27      0.00
   -8   32   16     -2.17      0.00
   -6   32   14     -4.13      0.00
   -4   32   12      3.89      0.00
   -2   32   10      2.05      0.00
    0   32    8     -0.44      0.00
    2   32    6     -0.65      0.00
    4   32    4      8.06      0.00
    6   32    2     -1.75      0.00
    8   32    0     -3.73      0.00
  -10   32    2     -5.08      0.00
  -12   32    4      2.25      0.00
  -14   32    6      3.66      0.00
  -16   32    8     -3.15      0.00
  -18   32   10     -0.86      0.00
  -20   32   12      0.69      0.00
   -7   33   15      1.51      0.00
   -5   33   13      2.09      0.00
   -3   33   11     -0.31      0.00
   -1   33    9     -2.19      0.00
    1   33    7      4.90      0.00
    3   33    5     -1.00      0.00
    5   33    3     -2.56      0.00
    7   33    1      4.40      0.00
   -9   33    1      2.66      0.00
  -11   33    3     -1.24      0.00
  -13   33    5     -5.04      0.00
  -15   33    7      1.65      0.00
  -17   33    9      0.10      0.00
  -19   33   11     -8.01      0.00
   -6   34   14     -5.29      0.00
   -4   34   12     -3.81      0.00
   -2   34   10     -1.85      0.00
    0   34    8     -1.70      0.00
    2   34    6     -2.85      0.00
    4   34    4     11.30      0.00
    6   34    2      5.12      0.00
    8   34    0      3.19      0.00
  -10   34    2     -1.75      0.00
  -12   34    4      6.68      0.00
  -14   34    6      9.71      0.00
  -16   34    8      0.70      0.00
  -18   34   10     -0.19      0.00
   -5   35   13     -0.58      0.00
   -3   35   11     -0.96      0.00
   -1   35    9     -1.40      0.00
    1   35    7      5.09      0.00
    3   35    5      3.61      0.00
    5   35    3      2.58      0.00
    7   35    1      4.04      0.00
   -9   35    1      1.53      0.00
  -11   35    3      2.26      0.00
  -13   35    5     -5.72      0.00
  -15   35    7     -2.48      0.00
  -17   35    9     -1.65      0.00
   -4   36   12     -3.46      0.00
   -2   36   10      0.27      0.00
    0   36    8      2.90      0.00
    2   36    6     -1.23      0.00
    4   36    4      7.23      0.00
    6   36    2      1.09      0.00
    8   36    0      0.22      0.00
  -10   36    2     -2.26      0.00
  -12   36    4      5.03      0.00
  -14   36    6      4.49      0.00
  -16   36    8     -1.49      0.00
   -3   37   11      3.62      0.00
   -1   37    9      0.38      0.00
    1   37    7      3.28      0.00
    3   37    5     -0.90      0.00
    5   37    3     -6.35      0.00
    7   37    1     -2.54      0.00
   -9   37    1     -5.74      0.00
  -11   37    3     -1.53      0.00
  -13   37    5     -8.60      0.00
  -15   37    7     -3.15      0.00
   -2   38   10      2.72      0.00
    0   38    8      0.59      0.00
    2   38    6     -1.92      0.00
    4   38    4      0.61      0.00
    6   38    2     -2.16      0.00
    8   38    0     -2.35      0.00
  -10   38    2     -5.52      0.00
  -12   38    4      3.76      0.00
  -14   38    6      4.09      0.00
   -1   39    9     -3.95      0.00
    1   39    7      2.50      0.00
    3   39    5      0.64      0.00
    5   39    3     -1.12      0.00
    7   39    1      3.45      0.00
   -9   39    1      1.24      0.00
  -11   39    3     -0.62      0.00
  -13   39    5     -3.50      0.00
    0   40    8      1.25      0.00
    2   40    6     -0.77      0.00
    4   40    4      4.14      0.00
    6   40    2      5.20      0.00
    8   40    0      5.96      0.00
  -10   40    2      1.81      0.00
  -12   40    4      4.31      0.00
    3   41    5     -1.65      0.00
    5   41    3      0.34      0.00
    7   41    1     -0.62      0.00
   -9   41    1      4.17      0.00
  -16    0   25      1.22      0.00
  -14    0   23     -7.29      0.00
  -12    0   21     -7.20      0.00
  -10    0   19      3.26      0.00
   -8    0   17      3.79      0.00
   -6    0   15     -3.32      0.00
   -4    0   13    -26.07      0.00
   -2    0   11     -2.70      0.00
    0    0    9    -12.83      0.00
    2    0    7     19.82      0.00
    4    0    5    -30.59      0.00
    6    0    3    -13.39      0.00
    8    0    1    -11.75      0.00
  -10    0    1    -28.39      0.00
  -12    0    3     -3.80      0.00
  -14    0    5     12.36      0.00
  -16    0    7    -14.58      0.00
  -18    0    9     -0.88      0.00
  -20    0   11      2.11      0.00
  -22    0   13     -6.84      0.00
  -24    0   15      0.23      0.00
  -26    0   17     -1.78      0.00
  -28    0   19      5.19      0.00
  -15    1   24      5.85      0.00
  -13    1   22      3.14      0.00
  -11    1   20     -1.80      0.00
   -9    1   18      7.43      0.00
   -7    1   16     -8.14      0.00
   -5    1   14      3.01      0.00
   -3    1   12     19.97      0.00
   -1    1   10    -29.03      0.00
    1    1    8    -56.31      0.00
    3    1    6    -19.58      0.00
    5    1    4     22.43      0.00
    7    1    2    -65.87      0.00
    9    1    0    -12.82      0.00
  -11    1    2      7.02      0.00
  -13    1    4     -4.49      0.00
  -15    1    6    -15.95      0.00
  -17    1    8     -3.39      0.00
  -19    1   10     -4.63      0.00
  -21    1   12      8.41      0.00
  -23    1   14     -1.39      0.00
  -25    1   16      2.68      0.00
  -27    1   18      5.28      0.00
  -16    2   25      0.87      0.00
  -14    2   23     -1.29      0.00
  -12    2   21      0.67      0.00
  -10    2   19      2.83      0.00
   -8    2   17      6.41      0.00
   -6    2   15     11.16      0.00
   -4    2   13    -13.03      0.00
   -2    2   11     -0.46      0.00
    0    2    9     -8.99      0.00
    2    2    7     33.96      0.00
    4    2    5      9.89      0.00
    6    2    3     43.86      0.00
    8    2    1     49.82      0.00
  -10    2    1     15.17      0.00
  -12    2    3     -0.63      0.00
  -14    2    5      0.71      0.00
  -16    2    7     -5.44      0.00
  -18    2    9      9.57      0.00
  -20    2   11      2.59      0.00
  -22    2   13     -8.90      0.00
  -24    2   15      3.51      0.00
  -26    2   17     -1.69      0.00
  -28    2   19      3.46      0.00
  -15    3   24      4.10      0.00
  -13    3   22      8.17      0.00
  -11    3   20     -0.13      0.00
   -9    3   18      6.06      0.00
   -7    3   16      1.72      0.00
   -5    3   14     12.27      0.00
   -3    3   12      4.27      0.00
   -1    3   10    -25.55      0.00
    1    3    8    -19.18      0.00
    3    3    6    -25.29      0.00
    5    3    4     22.14      0.00
    7    3    2     31.88      0.00
    9    3    0     52.43      0.00
  -11    3    2      6.49      0.00
  -13    3    4    -22.91      0.00
  -15    3    6    -10.62      0.00
  -17    3    8     11.36      0.00
  -19    3   10     -3.82      0.00
  -21    3   12      4.14      0.00
  -23    3   14     -1.79      0.00
  -25    3   16      3.27      0.00
  -27    3   18      5.03      0.00
  -16    4   25      0.12      0.00
  -14    4   23     -1.65      0.00
  -12    4   21      2.75      0.00
  -10    4   19      3.43      0.00
   -8    4   17      3.96      0.00
   -6    4   15      5.81      0.00
   -4    4   13    -11.85      0.00
   -2    4   11     -5.40      0.00
    0    4    9    -38.72      0.00
    2    4    7    -11.53      0.00
    4    4    5      8.04      0.00
    6    4    3     33.45      0.00
    8    4    1     32.48      0.00
  -10    4    1     21.25      0.00
  -12    4    3     -0.32      0.00
  -14    4    5     -8.31      0.00
  -16    4    7     -6.33      0.00
  -18    4    9      8.20      0.00
  -20    4   11      1.80      0.00
  -22    4   13     -4.18      0.00
  -24    4   15      5.57      0.00
  -26    4   17     -6.29      0.00
  -28    4   19      2.28      0.00
  -15    5   24     -0.27      0.00
  -13    5   22      0.04      0.00
  -11    5   20     -4.78      0.00
   -9    5   18      4.09      0.00
   -7    5   16     -3.62      0.00
   -5    5   14     -1.63      0.00
   -3    5   12     -5.78      0.00
   -1    5   10    -13.95      0.00
    1    5    8     -4.50      0.00
    3    5    6    -44.25      0.00
    5    5    4    -15.74      0.00
    7    5    2      2.37      0.00
    9    5    0     15.10      0.00
  -11    5    2    -17.56      0.00
  -13    5    4    -19.03      0.00
  -15    5    6     -9.16      0.00
  -17    5    8     -3.58      0.00
  -19    5   10    -11.48      0.00
  -21    5   12      4.74      0.00
  -23    5   14     -4.45      0.00
  -25    5   16     -2.31      0.00
  -27    5   18      1.81      0.00
  -14    6   23     -8.68      0.00
  -12    6   21     -2.73      0.00
  -10    6   19      7.84      0.00
   -8    6   17      4.40      0.00
   -6    6   15     -4.33      0.00
   -4    6   13    -11.27      0.00
   -2    6   11      6.57      0.00
    0    6    9    -41.84      0.00
    2    6    7    -17.14      0.00
    4    6    5      7.56      0.00
    6    6    3    -15.42      0.00
    8    6    1    -19.14      0.00
  -10    6    1      2.22      0.00
  -12    6    3      6.40      0.00
  -14    6    5      1.62      0.00
  -16    6    7    -16.28      0.00
  -18    6    9     -2.59      0.00
  -20    6   11      5.49      0.00
  -22    6   13      2.02      0.00
  -24    6   15      3.06      0.00
  -26    6   17     -7.16      0.00
  -28    6   19      2.23      0.00
  -15    7   24      2.34      0.00
  -13    7   22      2.54      0.00
  -11    7   20     -0.66      0.00
   -9    7   18      7.20      0.00
   -7    7   16      3.38      0.00
   -5    7   14      1.49      0.00
   -3    7   12     -4.73      0.00
   -1    7   10     -3.19      0.00
    1    7    8     17.68      0.00
    3    7    6     -9.60      0.00
    5    7    4      1.86      0.00
    7    7    2      9.53      0.00
    9    7    0     35.12      0.00
  -11    7    2      4.99      0.00
  -13    7    4      1.37      0.00
  -15    7    6      5.55      0.00
  -17    7    8     -0.26      0.00
  -19    7   10     -0.40      0.00
  -21    7   12      8.07      0.00
  -23    7   14     -2.82      0.00
  -25    7   16      3.30      0.00
  -27    7   18      5.03      0.00
  -14    8   23     -5.07      0.00
  -12    8   21     -1.48      0.00
  -10    8   19      9.92      0.00
   -8    8   17      4.08      0.00
   -6    8   15      3.79      0.00
   -4    8   13     -5.17      0.00
   -2    8   11      1.28      0.00
    0    8    9    -36.00      0.00
    2    8    7     17.85      0.00
    4    8    5     33.90      0.00
    6    8    3     16.46      0.00
    8    8    1     20.93      0.00
  -10    8    1     23.51      0.00
  -12    8    3     36.52      0.00
  -14    8    5     11.60      0.00
  -16    8    7    -15.47      0.00
  -18    8    9      4.31      0.00
  -20    8   11      9.18      0.00
  -22    8   13      0.15      0.00
  -24    8   15      5.66      0.00
  -26    8   17     -1.88      0.00
  -28    8   19      4.51      0.00
  -15    9   24      4.61      0.00
  -13    9   22      4.69      0.00
  -11    9   20     -4.17      0.00
   -9    9   18      3.66      0.00
   -7    9   16      6.04      0.00
   -5    9   14     10.37      0.00
   -3    9   12      1.45      0.00
   -1    9   10      3.42      0.00
    1    9    8      4.51      0.00
    3    9    6    -27.72      0.00
    5    9    4     18.11      0.00
    7    9    2     43.57      0.00
    9    9    0     51.02      0.00
  -11    9    2      4.06      0.00
  -13    9    4    -15.89      0.00
  -15    9    6    -12.15      0.00
  -17    9    8     -8.26      0.00
  -19    9   10    -11.76      0.00
  -21    9   12     -1.63      0.00
  -23    9   14      2.00      0.00
  -25    9   16      6.04      0.00
  -27    9   18      3.99      0.00
  -14   10   23     -1.49      0.00
  -12   10   21      1.21      0.00
  -10   10   19      7.52      0.00
   -8   10   17      0.10      0.00
   -6   10   15     11.46      0.00
   -4   10   13      3.50      0.00
   -2   10   11     -3.30      0.00
    0   10    9    -30.00      0.00
    2   10    7      4.26      0.00
    4   10    5      6.30      0.00
    6   10    3      6.90      0.00
    8   10    1     17.64      0.00
  -10   10    1     11.37      0.00
  -12   10    3     39.42      0.00
  -14   10    5     12.02      0.00
  -16   10    7    -10.45      0.00
  -18   10    9      4.81      0.00
  -20   10   11      5.19      0.00
  -22   10   13     -1.26      0.00
  -24   10   15      5.17      0.00
  -26   10   17     -4.85      0.00
  -28   10   19      5.13      0.00
  -15   11   24      1.02      0.00
  -13   11   22      2.25      0.00
  -11   11   20     -6.62      0.00
   -9   11   18      6.80      0.00
   -7   11   16      9.63      0.00
   -5   11   14     12.57      0.00
   -3   11   12     11.45      0.00
   -1   11   10     24.01      0.00
    1   11    8      8.63      0.00
    3   11    6    -41.75      0.00
    5   11    4      5.29      0.00
    7   11    2     17.26      0.00
    9   11    0     24.75      0.00
  -11   11    2    -12.86      0.00
  -13   11    4    -14.95      0.00
  -15   11    6     -2.46      0.00
  -17   11    8      0.30      0.00
  -19   11   10    -12.34      0.00
  -21   11   12      3.99      0.00
  -23   11   14      2.85      0.00
  -25   11   16      0.26      0.00
  -27   11   18      2.28      0.00
  -14   12   23     -5.62      0.00
  -12   12   21      1.04      0.00
  -10   12   19      8.13      0.00
   -8   12   17      0.55      0.00
   -6   12   15     16.24      0.00
   -4   12   13     15.75      0.00
   -2   12   11     12.02      0.00
    0   12    9      1.58      0.00
    2   12    7     29.40      0.00
    4   12    5     15.81      0.00
    6   12    3    -14.41      0.00
    8   12    1      8.50      0.00
  -10   12    1     11.06      0.00
  -12   12    3     20.74      0.00
  -14   12    5      8.41      0.00
  -16   12    7     -7.40      0.00
  -18   12    9      5.94      0.00
  -20   12   11     10.61      0.00
  -22   12   13     -4.44      0.00
  -24   12   15      2.07      0.00
  -26   12   17     -1.74      0.00
  -28   12   19      2.85      0.00
  -13   13   22      0.27      0.00
  -11   13   20     -3.01      0.00
   -9   13   18      9.87      0.00
   -7   13   16     10.89      0.00
   -5   13   14      8.37      0.00
   -3   13   12      1.12      0.00
   -1   13   10      8.96      0.00
    1   13    8     18.81      0.00
    3   13    6    -16.40      0.00
    5   13    4     -8.97      0.00
    7   13    2     -6.59      0.00
    9   13    0     19.83      0.00
  -11   13    2     -4.79      0.00
  -13   13    4     -8.13      0.00
  -15   13    6      2.91      0.00
  -17   13    8      5.87      0.00
  -19   13   10     -4.03      0.00
  -21   13   12      4.98      0.00
  -23   13   14     -1.00      0.00
  -25   13   16      0.96      0.00
  -27   13   18      3.63      0.00
  -14   14   23     -4.11      0.00
  -12   14   21     -3.81      0.00
  -10   14   19      3.32      0.00
   -8   14   17     -8.49      0.00
   -6   14   15     -4.68      0.00
   -4   14   13     -1.61      0.00
   -2   14   11     -1.76      0.00
    0   14    9    -25.64      0.00
    2   14    7      5.57      0.00
    4   14    5     13.40      0.00
    6   14    3    -17.78      0.00
    8   14    1    -10.64      0.00
  -10   14    1     -7.83      0.00
  -12   14    3     -2.72      0.00
  -14   14    5     -4.67      0.00
  -16   14    7    -19.77      0.00
  -18   14    9      0.99      0.00
  -20   14   11      8.13      0.00
  -22   14   13    -10.17      0.00
  -24   14   15      2.39      0.00
  -26   14   17      1.24      0.00
  -13   15   22     -1.15      0.00
  -11   15   20     -5.96      0.00
   -9   15   18     -0.12      0.00
   -7   15   16      1.23      0.00
   -5   15   14     -1.29      0.00
   -3   15   12     -7.77      0.00
   -1   15   10     -2.49      0.00
    1   15    8      0.64      0.00
    3   15    6    -27.64      0.00
    5   15    4    -15.60      0.00
    7   15    2      1.07      0.00
    9   15    0      8.11      0.00
  -11   15    2    -18.16      0.00
  -13   15    4    -22.62      0.00
  -15   15    6     -4.98      0.00
  -17   15    8     -0.43      0.00
  -19   15   10    -10.39      0.00
  -21   15   12      0.36      0.00
  -23   15   14      2.90      0.00
  -25   15   16      3.04      0.00
  -27   15   18     -0.24      0.00
  -14   16   23     -2.44      0.00
  -12   16   21     -6.14      0.00
  -10   16   19     -1.04      0.00
   -8   16   17     -4.94      0.00
   -6   16   15     -3.38      0.00
   -4   16   13      4.00      0.00
   -2   16   11     12.92      0.00
    0   16    9    -15.13      0.00
    2   16    7     -1.88      0.00
    4   16    5     15.61      0.00
    6   16    3     -3.42      0.00
    8   16    1    -15.94      0.00
  -10   16    1    -21.36      0.00
  -12   16    3    -16.74      0.00
  -14   16    5     -8.71      0.00
  -16   16    7    -18.76      0.00
  -18   16    9     -2.81      0.00
  -20   16   11      5.17      0.00
  -22   16   13     -2.62      0.00
  -24   16   15      1.36      0.00
  -26   16   17     -5.11      0.00
  -13   17   22      1.04      0.00
  -11   17   20     -3.31      0.00
   -9   17   18      0.98      0.00
   -7   17   16      9.19      0.00
   -5   17   14     10.47      0.00
   -3   17   12     -1.31      0.00
   -1   17   10     11.05      0.00
    1   17    8      3.78      0.00
    3   17    6    -24.02      0.00
    5   17    4     -7.37      0.00
    7   17    2     10.81      0.00
    9   17    0      9.05      0.00
  -11   17    2    -12.63      0.00
  -13   17    4    -14.45      0.00
  -15   17    6      5.41      0.00
  -17   17    8     14.62      0.00
  -19   17   10      2.36      0.00
  -21   17   12     10.17      0.00
  -23   17   14      5.12      0.00
  -25   17   16     -0.70      0.00
  -12   18   21     -6.76      0.00
  -10   18   19     -1.86      0.00
   -8   18   17      4.49      0.00
   -6   18   15      6.50      0.00
   -4   18   13      4.89      0.00
   -2   18   11      8.36      0.00
    0   18    9      4.99      0.00
    2   18    7     22.36      0.00
    4   18    5     19.24      0.00
    6   18    3     -0.58      0.00
    8   18    1      2.81      0.00
  -10   18    1      6.05      0.00
  -12   18    3     -2.04      0.00
  -14   18    5     -6.97      0.00
  -16   18    7    -10.74      0.00
  -18   18    9      5.90      0.00
  -20   18   11     10.08      0.00
  -22   18   13      3.18      0.00
  -24   18   15      1.67      0.00
  -26   18   17     -5.11      0.00
  -13   19   22     -0.14      0.00
  -11   19   20     -4.10      0.00
   -9   19   18     -0.91      0.00
   -7   19   16      3.87      0.00
   -5   19   14      6.24      0.00
   -3   19   12    -11.56      0.00
   -1   19   10      0.03      0.00
    1   19    8      6.49      0.00
    3   19    6     -6.57      0.00
    5   19    4     -0.31      0.00
    7   19    2      8.78      0.00
    9   19    0      6.50      0.00
  -11   19    2     -2.54      0.00
  -13   19    4     -7.99      0.00
  -15   19    6     -3.52      0.00
  -17   19    8     10.49      0.00
  -19   19   10      5.30      0.00
  -21   19   12      8.81      0.00
  -23   19   14      1.66      0.00
  -25   19   16     -3.52      0.00
  -12   20   21     -4.22      0.00
  -10   20   19     -2.17      0.00
   -8   20   17     -1.52      0.00
   -6   20   15     -8.17      0.00
   -4   20   13     -8.21      0.00
   -2   20   11     -0.69      0.00
    0   20    9     -5.86      0.00
    2   20    7      8.43      0.00
    4   20    5      6.86      0.00
    6   20    3      1.74      0.00
    8   20    1      0.93      0.00
  -10   20    1      2.59      0.00
  -12   20    3      0.07      0.00
  -14   20    5     -1.33      0.00
  -16   20    7     -9.67      0.00
  -18   20    9      2.16      0.00
  -20   20   11      8.21      0.00
  -22   20   13     -1.33      0.00
  -24   20   15      0.90      0.00
  -26   20   17     -2.75      0.00
  -11   21   20     -0.18      0.00
   -9   21   18      3.19      0.00
   -7   21   16     -0.78      0.00
   -5   21   14      2.82      0.00
   -3   21   12     -5.75      0.00
   -1   21   10     -2.58      0.00
    1   21    8      2.49      0.00
    3   21    6     -2.74      0.00
    5   21    4      6.31      0.00
    7   21    2     14.12      0.00
    9   21    0      3.66      0.00
  -11   21    2     -7.08      0.00
  -13   21    4     -0.07      0.00
  -15   21    6      6.29      0.00
  -17   21    8      5.75      0.00
  -19   21   10     -0.25      0.00
  -21   21   12      8.44      0.00
  -23   21   14      3.22      0.00
  -25   21   16     -2.15      0.00
  -12   22   21     -0.92      0.00
  -10   22   19      0.53      0.00
   -8   22   17     -3.73      0.00
   -6   22   15     -2.93      0.00
   -4   22   13      4.26      0.00
   -2   22   11     13.75      0.00
    0   22    9      0.78      0.00
    2   22    7      8.49      0.00
    4   22    5     14.05      0.00
    6   22    3     12.81      0.00
    8   22    1      7.08      0.00
  -10   22    1      3.99      0.00
  -12   22    3     -1.82      0.00
  -14   22    5     10.06      0.00
  -16   22    7      1.68      0.00
  -18   22    9      3.31      0.00
  -20   22   11      9.18      0.00
  -22   22   13      0.03      0.00
  -24   22   15      0.48      0.00
  -11   23   20     -5.83      0.00
   -9   23   18      1.03      0.00
   -7   23   16      6.25      0.00
   -5   23   14     11.03      0.00
   -3   23   12      1.71      0.00
   -1   23   10      3.81      0.00
    1   23    8      3.11      0.00
    3   23    6     -7.28      0.00
    5   23    4     -3.98      0.00
    7   23    2      8.19      0.00
    9   23    0      3.65      0.00
  -11   23    2     -8.67      0.00
  -13   23    4     -5.12      0.00
  -15   23    6      4.74      0.00
  -17   23    8      5.78      0.00
  -19   23   10      0.63      0.00
  -21   23   12      6.94      0.00
  -23   23   14     -0.22      0.00
  -25   23   16     -4.26      0.00
  -10   24   19     -1.84      0.00
   -8   24   17     -2.53      0.00
   -6   24   15      7.30      0.00
   -4   24   13     -1.55      0.00
   -2   24   11     -3.47      0.00
    0   24    9     -6.87      0.00
    2   24    7      0.59      0.00
    4   24    5     -1.69      0.00
    6   24    3     -6.67      0.00
    8   24    1      5.08      0.00
  -10   24    1      7.84      0.00
  -12   24    3     -8.06      0.00
  -14   24    5     -3.67      0.00
  -16   24    7     -2.04      0.00
  -18   24    9      0.67      0.00
  -20   24   11      1.41      0.00
  -22   24   13     -2.48      0.00
  -24   24   15      1.30      0.00
  -11   25   20     -6.84      0.00
   -9   25   18     -4.16      0.00
   -7   25   16      1.57      0.00
   -5   25   14      0.08      0.00
   -3   25   12     -7.62      0.00
   -1   25   10      1.37      0.00
    1   25    8      0.40      0.00
    3   25    6     -5.83      0.00
    5   25    4     -4.90      0.00
    7   25    2      2.57      0.00
    9   25    0     -2.36      0.00
  -11   25    2     -5.04      0.00
  -13   25    4    -12.25      0.00
  -15   25    6     -3.96      0.00
  -17   25    8      2.62      0.00
  -19   25   10     -1.21      0.00
  -21   25   12      3.27      0.00
  -23   25   14     -4.39      0.00
  -10   26   19     -0.47      0.00
   -8   26   17     -3.40      0.00
   -6   26   15      2.00      0.00
   -4   26   13     -4.49      0.00
   -2   26   11     -2.73      0.00
    0   26    9     -1.80      0.00
    2   26    7      5.18      0.00
    4   26    5      4.41      0.00
    6   26    3      0.08      0.00
    8   26    1      9.25      0.00
  -10   26    1      5.81      0.00
  -12   26    3     -4.18      0.00
  -14   26    5     -1.26      0.00
  -16   26    7     -2.09      0.00
  -18   26    9     -0.82      0.00
  -20   26   11      2.25      0.00
  -22   26   13      0.14      0.00
   -9   27   18      2.83      0.00
   -7   27   16     -1.23      0.00
   -5   27   14      1.77      0.00
   -3   27   12      4.34      0.00
   -1   27   10      2.42      0.00
    1   27    8      0.07      0.00
    3   27    6      1.73      0.00
    5   27    4      6.56      0.00
    7   27    2      6.50      0.00
    9   27    0      1.12      0.00
  -11   27    2      6.43      0.00
  -13   27    4      1.99      0.00
  -15   27    6      6.11      0.00
  -17   27    8      7.38      0.00
  -19   27   10      0.07      0.00
  -21   27   12      7.95      0.00
  -23   27   14     -0.41      0.00
  -10   28   19     -2.93      0.00
   -8   28   17     -5.54      0.00
   -6   28   15     -0.94      0.00
   -4   28   13      4.00      0.00
   -2   28   11      5.74      0.00
    0   28    9     -0.11      0.00
    2   28    7      3.32      0.00
    4   28    5      2.48      0.00
    6   28    3     -0.33      0.00
    8   28    1      7.97      0.00
  -10   28    1      2.44      0.00
  -12   28    3      1.04      0.00
  -14   28    5      8.97      0.00
  -16   28    7      1.94      0.00
  -18   28    9      5.59      0.00
  -20   28   11      7.03      0.00
  -22   28   13      3.58      0.00
   -9   29   18     -4.15      0.00
   -7   29   16     -5.21      0.00
   -5   29   14      2.26      0.00
   -3   29   12      3.20      0.00
   -1   29   10     -0.03      0.00
    1   29    8     -1.99      0.00
    3   29    6     -2.18      0.00
    5   29    4      4.40      0.00
    7   29    2      0.60      0.00
    9   29    0     -2.42      0.00
  -11   29    2      2.65      0.00
  -13   29    4      0.99      0.00
  -15   29    6      2.11      0.00
  -17   29    8      7.11      0.00
  -19   29   10      0.78      0.00
  -21   29   12      5.29      0.00
   -8   30   17     -4.30      0.00
   -6   30   15      1.18      0.00
   -4   30   13     -1.10      0.00
   -2   30   11     -1.74      0.00
    0   30    9     -6.24      0.00
    2   30    7     -4.10      0.00
    4   30    5     -6.11      0.00
    6   30    3     -8.98      0.00
    8   30    1      2.70      0.00
  -10   30    1      1.00      0.00
  -12   30    3     -2.81      0.00
  -14   30    5      3.18      0.00
  -16   30    7     -2.68      0.00
  -18   30    9      0.92      0.00
  -20   30   11     -0.59      0.00
   -7   31   16     -5.18      0.00
   -5   31   14     -3.21      0.00
   -3   31   12    -11.48      0.00
   -1   31   10     -7.33      0.00
    1   31    8     -5.07      0.00
    3   31    6     -7.92      0.00
    5   31    4      1.85      0.00
    7   31    2      2.03      0.00
    9   31    0      2.12      0.00
  -11   31    2      4.80      0.00
  -13   31    4     -0.66      0.00
  -15   31    6      1.25      0.00
  -17   31    8      3.57      0.00
  -19   31   10     -1.30      0.00
  -21   31   12      3.39      0.00
   -6   32   15      0.35      0.00
   -4   32   13     -3.93      0.00
   -2   32   11     -5.21      0.00
    0   32    9     -6.53      0.00
    2   32    7      1.15      0.00
    4   32    5      3.61      0.00
    6   32    3     -0.07      0.00
    8   32    1      7.78      0.00
  -10   32    1      4.97      0.00
  -12   32    3      3.70      0.00
  -14   32    5      3.55      0.00
  -16   32    7     -3.87      0.00
  -18   32    9     -3.09      0.00
  -20   32   11     -3.11      0.00
   -7   33   16     -6.40      0.00
   -5   33   14     -3.51      0.00
   -3   33   12     -4.58      0.00
   -1   33   10     -1.97      0.00
    1   33    8     -0.64      0.00
    3   33    6     -7.39      0.00
    5   33    4      0.35      0.00
    7   33    2      1.59      0.00
    9   33    0      1.98      0.00
  -11   33    2      7.11      0.00
  -13   33    4      3.25      0.00
  -15   33    6      0.61      0.00
  -17   33    8     -2.40      0.00
  -19   33   10     -1.24      0.00
   -6   34   15      1.22      0.00
   -4   34   13     -1.45      0.00
   -2   34   11     -0.55      0.00
    0   34    9     -5.58      0.00
    2   34    7     -2.83      0.00
    4   34    5     -0.71      0.00
    6   34    3     -8.54      0.00
    8   34    1     -1.56      0.00
  -10   34    1     -2.19      0.00
  -12   34    3      3.23      0.00
  -14   34    5      2.94      0.00
  -16   34    7     -4.68      0.00
  -18   34    9      1.58      0.00
   -5   35   14     -0.29      0.00
   -3   35   12      2.49      0.00
   -1   35   10      3.12      0.00
    1   35    8      0.18      0.00
    3   35    6     -6.70      0.00
    5   35    4     -3.32      0.00
    7   35    2     -6.59      0.00
    9   35    0     -8.33      0.00
  -11   35    2      1.48      0.00
  -13   35    4      1.12      0.00
  -15   35    6      2.03      0.00
  -17   35    8     -1.39      0.00
   -4   36   13      0.34      0.00
   -2   36   11      1.36      0.00
    0   36    9     -2.49      0.00
    2   36    7      1.02      0.00
    4   36    5      3.13      0.00
    6   36    3     -4.39      0.00
    8   36    1      0.64      0.00
  -10   36    1      1.31      0.00
  -12   36    3      0.41      0.00
  -14   36    5      2.64      0.00
  -16   36    7     -0.38      0.00
   -3   37   12      4.23      0.00
   -1   37   10     -0.35      0.00
    1   37    8      1.08      0.00
    3   37    6     -1.65      0.00
    5   37    4      3.11      0.00
    7   37    2      4.35      0.00
    9   37    0     -2.08      0.00
  -11   37    2      5.80      0.00
  -13   37    4      2.12      0.00
  -15   37    6      7.60      0.00
   -2   38   11      1.24      0.00
    0   38    9     -1.29      0.00
    2   38    7      3.41      0.00
    4   38    5      5.29      0.00
    6   38    3      3.08      0.00
    8   38    1      1.48      0.00
  -10   38    1      0.78      0.00
  -12   38    3      1.64      0.00
  -14   38    5      2.67      0.00
    1   39    8      1.73      0.00
    3   39    6     -2.50      0.00
    5   39    4      1.83      0.00
    7   39    2      3.28      0.00
    9   39    0     -3.34      0.00
  -11   39    2      2.11      0.00
  -13   39    4     -0.50      0.00
    2   40    7      5.87      0.00
    4   40    5      4.43      0.00
    6   40    3     -1.70      0.00
    8   40    1     -1.47      0.00
  -10   40    1     -1.11      0.00
    5   41    4     -1.74      0.00
    7   41    2      1.20      0.00
  -14    0   24     -0.72      0.00
  -12    0   22      9.02      0.00
  -10    0   20      8.30      0.00
   -8    0   18     -5.25      0.00
   -6    0   16    -22.68      0.00
   -4    0   14     18.14      0.00
   -2    0   12     11.10      0.00
    0    0   10    -13.84      0.00
    2    0    8     39.49      0.00
    4    0    6     73.11      0.00
    6    0    4     35.63      0.00
    8    0    2     11.63      0.00
   10    0    0     24.19      0.00
  -12    0    2     31.19      0.00
  -14    0    4      6.83      0.00
  -16    0    6    -12.56      0.00
  -18    0    8     19.68      0.00
  -20    0   10     -1.92      0.00
  -22    0   12     -1.94      0.00
  -24    0   14      5.83      0.00
  -26    0   16      3.77      0.00
  -28    0   18      4.50      0.00
  -15    1   25      2.80      0.00
  -13    1   23     -0.23      0.00
  -11    1   21      2.47      0.00
   -9    1   19      1.09      0.00
   -7    1   17      3.24      0.00
   -5    1   15      2.65      0.00
   -3    1   13     -0.94      0.00
   -1    1   11     13.73      0.00
    1    1    9      2.18      0.00
    3    1    7     -6.66      0.00
    5    1    5    -24.53      0.00
    7    1    3     15.43      0.00
    9    1    1     12.09      0.00
  -11    1    1      3.25      0.00
  -13    1    3    -16.41      0.00
  -15    1    5     12.64      0.00
  -17    1    7     12.49      0.00
  -19    1    9      3.40      0.00
  -21    1   11      4.35      0.00
  -23    1   13      4.22      0.00
  -25    1   15      4.17      0.00
  -27    1   17      2.61      0.00
  -29    1   19     -2.41      0.00
  -14    2   24     -0.84      0.00
  -12    2   22      5.96      0.00
  -10    2   20      0.89      0.00
   -8    2   18     -3.65      0.00
   -6    2   16    -19.19      0.00
   -4    2   14      3.67      0.00
   -2    2   12      5.35      0.00
    0    2   10      5.04      0.00
    2    2    8     42.54      0.00
    4    2    6     57.72      0.00
    6    2    4      7.60      0.00
    8    2    2    -28.53      0.00
   10    2    0    -10.38      0.00
  -12    2    2      2.87      0.00
  -14    2    4      6.92      0.00
  -16    2    6     -7.51      0.00
  -18    2    8      5.36      0.00
  -20    2   10    -13.42      0.00
  -22    2   12     -6.39      0.00
  -24    2   14      1.89      0.00
  -26    2   16     -0.22      0.00
  -28    2   18      1.06      0.00
  -15    3   25      5.30      0.00
  -13    3   23     -3.84      0.00
  -11    3   21     -6.83      0.00
   -9    3   19      0.59      0.00
   -7    3   17      3.49      0.00
   -5    3   15     -3.46      0.00
   -3    3   13    -13.20      0.00
   -1    3   11      8.77      0.00
    1    3    9     25.12      0.00
    3    3    7      1.43      0.00
    5    3    5    -58.44      0.00
    7    3    3     -5.44      0.00
    9    3    1     -7.56      0.00
  -11    3    1    -17.54      0.00
  -13    3    3    -19.41      0.00
  -15    3    5     27.42      0.00
  -17    3    7     12.72      0.00
  -19    3    9    -11.49      0.00
  -21    3   11     -2.46      0.00
  -23    3   13      0.04      0.00
  -25    3   15     -1.73      0.00
  -27    3   17      0.77      0.00
  -29    3   19     -4.13      0.00
  -14    4   24      0.37      0.00
  -12    4   22     10.69      0.00
  -10    4   20      0.09      0.00
   -8    4   18     -2.97      0.00
   -6    4   16    -14.54      0.00
   -4    4   14     -0.08      0.00
   -2    4   12      9.26      0.00
    0    4   10     17.10      0.00
    2    4    8     29.99      0.00
    4    4    6     63.65      0.00
    6    4    4      6.31      0.00
    8    4    2    -49.42      0.00
   10    4    0    -21.54      0.00
  -12    4    2     -7.28      0.00
  -14    4    4      8.38      0.00
  -16    4    6     -5.48      0.00
  -18    4    8      2.84      0.00
  -20    4   10     -9.25      0.00
  -22    4   12     -3.38      0.00
  -24    4   14     -1.46      0.00
  -26    4   16     -1.73      0.00
  -28    4   18      3.60      0.00
  -13    5   23     -3.97      0.00
  -11    5   21     -3.47      0.00
   -9    5   19     -0.12      0.00
   -7    5   17     -8.90      0.00
   -5    5   15     -4.34      0.00
   -3    5   13      2.71      0.00
   -1    5   11      1.65      0.00
    1    5    9     10.12      0.00
    3    5    7     19.02      0.00
    5    5    5    -15.88      0.00
    7    5    3     38.77      0.00
    9    5    1      7.87      0.00
  -11    5    1    -10.54      0.00
  -13    5    3     -7.21      0.00
  -15    5    5     21.10      0.00
  -17    5    7      7.51      0.00
  -19    5    9     -3.74      0.00
  -21    5   11      4.83      0.00
  -23    5   13     -1.01      0.00
  -25    5   15     -3.99      0.00
  -27    5   17     -0.78      0.00
  -29    5   19     -1.80      0.00
  -14    6   24     -1.37      0.00
  -12    6   22     10.57      0.00
  -10    6   20     -4.64      0.00
   -8    6   18     -9.66      0.00
   -6    6   16    -14.88      0.00
   -4    6   14     -0.91      0.00
   -2    6   12      5.66      0.00
    0    6   10     -0.08      0.00
    2    6    8     -7.39      0.00
    4    6    6     29.24      0.00
    6    6    4    -10.79      0.00
    8    6    2    -35.86      0.00
   10    6    0     -9.33      0.00
  -12    6    2     -9.37      0.00
  -14    6    4    -11.93      0.00
  -16    6    6    -28.86      0.00
  -18    6    8      2.27      0.00
  -20    6   10     -4.39      0.00
  -22    6   12     -3.87      0.00
  -24    6   14     -2.39      0.00
  -26    6   16     -0.06      0.00
  -28    6   18      7.74      0.00
  -13    7   23     -6.69      0.00
  -11    7   21     -2.10      0.00
   -9    7   19     -1.87      0.00
   -7    7   17    -13.86      0.00
   -5    7   15    -10.29      0.00
   -3    7   13      1.19      0.00
   -1    7   11    -14.02      0.00
    1    7    9    -21.08      0.00
    3    7    7    -13.65      0.00
    5    7    5    -37.32      0.00
    7    7    3     16.03      0.00
    9    7    1    -17.02      0.00
  -11    7    1    -17.37      0.00
  -13    7    3    -15.14      0.00
  -15    7    5      6.13      0.00
  -17    7    7      5.23      0.00
  -19    7    9      3.91      0.00
  -21    7   11      0.02      0.00
  -23    7   13     -1.31      0.00
  -25    7   15      2.75      0.00
  -27    7   17      0.30      0.00
  -29    7   19      0.26      0.00
  -14    8   24     -4.90      0.00
  -12    8   22      2.27      0.00
  -10    8   20    -10.26      0.00
   -8    8   18     -6.76      0.00
   -6    8   16     -2.49      0.00
   -4    8   14     -2.14      0.00
   -2    8   12     -0.77      0.00
    0    8   10     10.48      0.00
    2    8    8      5.09      0.00
    4    8    6     -9.87      0.00
    6    8    4    -51.02      0.00
    8    8    2    -38.93      0.00
   10    8    0    -12.17      0.00
  -12    8    2     -7.47      0.00
  -14    8    4     -7.90      0.00
  -16    8    6    -16.38      0.00
  -18    8    8      9.64      0.00
  -20    8   10     -8.22      0.00
  -22    8   12     -4.77      0.00
  -24    8   14     -0.60      0.00
  -26    8   16     -2.58      0.00
  -28    8   18      5.07      0.00
  -13    9   23     -9.68      0.00
  -11    9   21     -0.65      0.00
   -9    9   19      5.44      0.00
   -7    9   17     -2.33      0.00
   -5    9   15     -1.17      0.00
   -3    9   13     10.63      0.00
   -1    9   11     12.47      0.00
    1    9    9      6.71      0.00
    3    9    7     -0.47      0.00
    5    9    5    -18.88      0.00
    7    9    3      7.91      0.00
    9    9    1    -22.15      0.00
  -11    9    1      1.42      0.00
  -13    9    3    -10.28      0.00
  -15    9    5      6.32      0.00
  -17    9    7      6.58      0.00
  -19    9    9     -3.49      0.00
  -21    9   11     -7.31      0.00
  -23    9   13     -3.06      0.00
  -25    9   15      3.18      0.00
  -27    9   17      3.30      0.00
  -14   10   24     -3.87      0.00
  -12   10   22      3.63      0.00
  -10   10   20     -0.02      0.00
   -8   10   18      6.65      0.00
   -6   10   16     11.55      0.00
   -4   10   14      8.87      0.00
   -2   10   12      2.99      0.00
    0   10   10     15.72      0.00
    2   10    8     23.48      0.00
    4   10    6     18.91      0.00
    6   10    4    -31.55      0.00
    8   10    2    -14.92      0.00
   10   10    0      7.09      0.00
  -12   10    2     23.58      0.00
  -14   10    4     26.09      0.00
  -16   10    6     10.45      0.00
  -18   10    8     15.29      0.00
  -20   10   10     -2.01      0.00
  -22   10   12      3.40      0.00
  -24   10   14      1.00      0.00
  -26   10   16     -4.43      0.00
  -28   10   18      4.65      0.00
  -13   11   23     -4.56      0.00
  -11   11   21      3.37      0.00
   -9   11   19      6.44      0.00
   -7   11   17     -1.01      0.00
   -5   11   15     -2.24      0.00
   -3   11   13      2.88      0.00
   -1   11   11      8.51      0.00
    1   11    9     -8.08      0.00
    3   11    7    -18.81      0.00
    5   11    5      0.78      0.00
    7   11    3     30.46      0.00
    9   11    1     -5.14      0.00
  -11   11    1      7.40      0.00
  -13   11    3      4.79      0.00
  -15   11    5     12.66      0.00
  -17   11    7      1.45      0.00
  -19   11    9     -7.44      0.00
  -21   11   11     -1.89      0.00
  -23   11   13     -7.60      0.00
  -25   11   15     -0.74      0.00
  -27   11   17      5.05      0.00
  -14   12   24     -2.82      0.00
  -12   12   22      2.75      0.00
  -10   12   20     -3.60      0.00
   -8   12   18     -0.51      0.00
   -6   12   16      2.12      0.00
   -4   12   14      2.36      0.00
   -2   12   12     -4.19      0.00
    0   12   10     -2.80      0.00
    2   12    8     -2.66      0.00
    4   12    6      3.16      0.00
    6   12    4    -37.39      0.00
    8   12    2      6.39      0.00
   10   12    0     12.17      0.00
  -12   12    2      8.18      0.00
  -14   12    4     13.65      0.00
  -16   12    6     -1.60      0.00
  -18   12    8      5.64      0.00
  -20   12   10     -8.11      0.00
  -22   12   12     -4.45      0.00
  -24   12   14      1.70      0.00
  -26   12   16     -3.45      0.00
  -28   12   18      0.81      0.00
  -13   13   23     -0.86      0.00
  -11   13   21      3.41      0.00
   -9   13   19     -1.09      0.00
   -7   13   17     -2.12      0.00
   -5   13   15      4.52      0.00
   -3   13   13      1.67      0.00
   -1   13   11     -4.33      0.00
    1   13    9    -11.91      0.00
    3   13    7    -33.75      0.00
    5   13    5    -22.00      0.00
    7   13    3     15.88      0.00
    9   13    1    -12.61      0.00
  -11   13    1     -4.71      0.00
  -13   13    3     -1.70      0.00
  -15   13    5      7.39      0.00
  -17   13    7      3.09      0.00
  -19   13    9     -2.39      0.00
  -21   13   11     -7.18      0.00
  -23   13   13     -9.98      0.00
  -25   13   15      0.02      0.00
  -27   13   17     -0.64      0.00
  -12   14   22      2.96      0.00
  -10   14   20     -4.57      0.00
   -8   14   18     -1.09      0.00
   -6   14   16      2.42      0.00
   -4   14   14      4.46      0.00
   -2   14   12      4.27      0.00
    0   14   10      4.12      0.00
    2   14    8      0.97      0.00
    4   14    6     -4.69      0.00
    6   14    4    -40.68      0.00
    8   14    2      6.13      0.00
   10   14    0     11.96      0.00
  -12   14    2     -0.20      0.00
  -14   14    4     10.31      0.00
  -16   14    6      1.91      0.00
  -18   14    8     15.54      0.00
  -20   14   10     -6.82      0.00
  -22   14   12     -4.88      0.00
  -24   14   14      2.90      0.00
  -26   14   16     -9.41      0.00
  -28   14   18     -3.42      0.00
  -13   15   23     -3.76      0.00
  -11   15   21      1.39      0.00
   -9   15   19      1.24      0.00
   -7   15   17      2.56      0.00
   -5   15   15     11.60      0.00
   -3   15   13     10.16      0.00
   -1   15   11     -0.53      0.00
    1   15    9      9.91      0.00
    3   15    7      4.68      0.00
    5   15    5      0.27      0.00
    7   15    3     11.77      0.00
    9   15    1     -8.23      0.00
  -11   15    1     16.32      0.00
  -13   15    3     10.52      0.00
  -15   15    5     12.76      0.00
  -17   15    7      2.08      0.00
  -19   15    9     -0.11      0.00
  -21   15   11     -3.11      0.00
  -23   15   13     -5.27      0.00
  -25   15   15     -0.68      0.00
  -27   15   17     -3.99      0.00
  -12   16   22      3.76      0.00
  -10   16   20     -1.11      0.00
   -8   16   18      0.54      0.00
   -6   16   16     -2.57      0.00
   -4   16   14     -1.85      0.00
   -2   16   12      1.92      0.00
    0   16   10      0.52      0.00
    2   16    8      6.78      0.00
    4   16    6     16.99      0.00
    6   16    4    -17.03      0.00
    8   16    2      9.85      0.00
   10   16    0     14.18      0.00
  -12   16    2      8.70      0.00
  -14   16    4     18.75      0.00
  -16   16    6     -0.63      0.00
  -18   16    8      3.41      0.00
  -20   16   10     -9.88      0.00
  -22   16   12     -0.84      0.00
  -24   16   14     -2.20      0.00
  -26   16   16    -13.28      0.00
  -13   17   23     -2.76      0.00
  -11   17   21     -0.63      0.00
   -9   17   19      1.59      0.00
   -7   17   17     -3.11      0.00
   -5   17   15     -5.52      0.00
   -3   17   13     -6.51      0.00
   -1   17   11     -6.72      0.00
    1   17    9     -3.26      0.00
    3   17    7     -8.23      0.00
    5   17    5     -5.26      0.00
    7   17    3      8.36      0.00
    9   17    1     -5.85      0.00
  -11   17    1      8.27      0.00
  -13   17    3      2.65      0.00
  -15   17    5     13.98      0.00
  -17   17    7     -2.81      0.00
  -19   17    9     -5.77      0.00
  -21   17   11      0.56      0.00
  -23   17   13     -7.58      0.00
  -25   17   15     -1.27      0.00
  -27   17   17      0.75      0.00
  -12   18   22      5.31      0.00
  -10   18   20     -1.52      0.00
   -8   18   18     -3.09      0.00
   -6   18   16     -7.54      0.00
   -4   18   14     -8.61      0.00
   -2   18   12     -6.06      0.00
    0   18   10     -1.48      0.00
    2   18    8      4.76      0.00
    4   18    6     10.95      0.00
    6   18    4    -10.86      0.00
    8   18    2     16.70      0.00
   10   18    0     11.87      0.00
  -12   18    2      2.99      0.00
  -14   18    4      9.90      0.00
  -16   18    6      4.32      0.00
  -18   18    8      3.61      0.00
  -20   18   10    -15.88      0.00
  -22   18   12     -3.55      0.00
  -24   18   14      0.61      0.00
  -26   18   16     -4.24      0.00
  -11   19   21     -5.42      0.00
   -9   19   19      1.06      0.00
   -7   19   17      0.25      0.00
   -5   19   15     -1.70      0.00
   -3   19   13      1.22      0.00
   -1   19   11     10.33      0.00
    1   19    9     10.79      0.00
    3   19    7     -6.23      0.00
    5   19    5      1.64      0.00
    7   19    3     17.63      0.00
    9   19    1      0.99      0.00
  -11   19    1      5.68      0.00
  -13   19    3     -2.52      0.00
  -15   19    5     12.95      0.00
  -17   19    7      8.07      0.00
  -19   19    9      1.40      0.00
  -21   19   11     -1.34      0.00
  -23   19   13     -5.34      0.00
  -25   19   15      2.75      0.00
  -12   20   22      5.08      0.00
  -10   20   20     -1.47      0.00
   -8   20   18     -1.61      0.00
   -6   20   16      3.09      0.00
   -4   20   14      5.80      0.00
   -2   20   12      3.11      0.00
    0   20   10      3.21      0.00
    2   20    8      5.92      0.00
    4   20    6      6.18      0.00
    6   20    4     -9.12      0.00
    8   20    2      9.66      0.00
   10   20    0      9.26      0.00
  -12   20    2      8.13      0.00
  -14   20    4      8.54      0.00
  -16   20    6      6.03      0.00
  -18   20    8     11.93      0.00
  -20   20   10     -5.78      0.00
  -22   20   12     -0.51      0.00
  -24   20   14      1.47      0.00
  -26   20   16     -4.30      0.00
  -11   21   21     -6.91      0.00
   -9   21   19      1.56      0.00
   -7   21   17      3.62      0.00
   -5   21   15      3.73      0.00
   -3   21   13      0.08      0.00
   -1   21   11     -3.91      0.00
    1   21    9      3.61      0.00
    3   21    7     -3.33      0.00
    5   21    5      3.24      0.00
    7   21    3      4.59      0.00
    9   21    1     -4.50      0.00
  -11   21    1      9.32      0.00
  -13   21    3      6.24      0.00
  -15   21    5      7.12      0.00
  -17   21    7     -2.79      0.00
  -19   21    9      0.67      0.00
  -21   21   11     -1.47      0.00
  -23   21   13     -3.14      0.00
  -25   21   15      1.77      0.00
  -10   22   20      0.85      0.00
   -8   22   18     -4.65      0.00
   -6   22   16     -3.01      0.00
   -4   22   14     -2.55      0.00
   -2   22   12     -4.55      0.00
    0   22   10     -8.00      0.00
    2   22    8     -1.26      0.00
    4   22    6      5.53      0.00
    6   22    4    -12.01      0.00
    8   22    2     -1.65      0.00
   10   22    0     -1.49      0.00
  -12   22    2      0.58      0.00
  -14   22    4      0.40      0.00
  -16   22    6    -10.61      0.00
  -18   22    8     -0.87      0.00
  -20   22   10     -2.96      0.00
  -22   22   12     -0.52      0.00
  -24   22   14     -3.13      0.00
  -11   23   21     -4.45      0.00
   -9   23   19     -0.16      0.00
   -7   23   17      1.20      0.00
   -5   23   15     -3.52      0.00
   -3   23   13    -11.45      0.00
   -1   23   11    -12.07      0.00
    1   23    9      0.75      0.00
    3   23    7     -6.84      0.00
    5   23    5     -7.02      0.00
    7   23    3      0.01      0.00
    9   23    1     -6.72      0.00
  -11   23    1     -5.37      0.00
  -13   23    3     -3.95      0.00
  -15   23    5      4.20      0.00
  -17   23    7    -12.03      0.00
  -19   23    9     -7.44      0.00
  -21   23   11     -1.83      0.00
  -23   23   13     -2.24      0.00
  -25   23   15      0.69      0.00
  -10   24   20      4.47      0.00
   -8   24   18      5.32      0.00
   -6   24   16      2.32      0.00
   -4   24   14     -4.37      0.00
   -2   24   12     -0.03      0.00
    0   24   10     -4.78      0.00
    2   24    8     -1.54      0.00
    4   24    6      2.81      0.00
    6   24    4    -12.32      0.00
    8   24    2      0.12      0.00
   10   24    0     -5.45      0.00
  -12   24    2     -6.62      0.00
  -14   24    4     -1.50      0.00
  -16   24    6     -3.30      0.00
  -18   24    8      1.16      0.00
  -20   24   10     -4.08      0.00
  -22   24   12      0.05      0.00
  -24   24   14      3.42      0.00
   -9   25   19     -2.48      0.00
   -7   25   17      1.55      0.00
   -5   25   15     -0.43      0.00
   -3   25   13     -0.33      0.00
   -1   25   11      4.45      0.00
    1   25    9      7.41      0.00
    3   25    7     -3.67      0.00
    5   25    5     -0.77      0.00
    7   25    3     10.76      0.00
    9   25    1     -1.75      0.00
  -11   25    1     -5.68      0.00
  -13   25    3     -8.38      0.00
  -15   25    5     12.35      0.00
  -17   25    7     -2.64      0.00
  -19   25    9     -3.85      0.00
  -21   25   11      3.16      0.00
  -23   25   13      1.95      0.00
  -10   26   20     -7.36      0.00
   -8   26   18     -1.98      0.00
   -6   26   16      4.41      0.00
   -4   26   14      6.11      0.00
   -2   26   12      7.18      0.00
    0   26   10      0.56      0.00
    2   26    8      2.97      0.00
    4   26    6      4.10      0.00
    6   26    4     -9.25      0.00
    8   26    2      1.51      0.00
   10   26    0     -6.30      0.00
  -12   26    2     -6.07      0.00
  -14   26    4     -2.61      0.00
  -16   26    6     -2.71      0.00
  -18   26    8      1.92      0.00
  -20   26   10     -0.74      0.00
  -22   26   12      0.82      0.00
  -24   26   14      6.90      0.00
   -9   27   19     -2.81      0.00
   -7   27   17     -2.02      0.00
   -5   27   15      4.18      0.00
   -3   27   13      4.58      0.00
   -1   27   11      0.54      0.00
    1   27    9     -0.12      0.00
    3   27    7     -7.53      0.00
    5   27    5     -0.52      0.00
    7   27    3      4.09      0.00
    9   27    1     -4.90      0.00
  -11   27    1     -1.40      0.00
  -13   27    3     -8.53      0.00
  -15   27    5      5.97      0.00
  -17   27    7     -2.61      0.00
  -19   27    9     -5.35      0.00
  -21   27   11      3.75      0.00
  -23   27   13      1.92      0.00
   -8   28   18     -5.38      0.00
   -6   28   16     -1.95      0.00
   -4   28   14      2.11      0.00
   -2   28   12     -2.02      0.00
    0   28   10     -3.06      0.00
    2   28    8      6.97      0.00
    4   28    6      6.75      0.00
    6   28    4     -9.63      0.00
    8   28    2      0.99      0.00
   10   28    0     -2.06      0.00
  -12   28    2      2.32      0.00
  -14   28    4     -2.53      0.00
  -16   28    6     -7.63      0.00
  -18   28    8      2.84      0.00
  -20   28   10      1.97      0.00
  -22   28   12      0.99      0.00
   -7   29   17     -0.43      0.00
   -5   29   15      3.25      0.00
   -3   29   13     -0.85      0.00
   -1   29   11     -0.17      0.00
    1   29    9      5.03      0.00
    3   29    7      1.51      0.00
    5   29    5      7.83      0.00
    7   29    3     10.36      0.00
    9   29    1      4.87      0.00
  -11   29    1      4.71      0.00
  -13   29    3     -2.46      0.00
  -15   29    5      4.10      0.00
  -17   29    7      0.99      0.00
  -19   29    9     -3.73      0.00
  -21   29   11      3.49      0.00
   -6   30   16     -2.88      0.00
   -4   30   14     -2.38      0.00
   -2   30   12      3.36      0.00
    0   30   10      2.35      0.00
    2   30    8      8.34      0.00
    4   30    6      7.19      0.00
    6   30    4     -9.53      0.00
    8   30    2      0.78      0.00
   10   30    0      2.87      0.00
  -12   30    2      8.02      0.00
  -14   30    4      2.49      0.00
  -16   30    6     -3.56      0.00
  -18   30    8      5.45      0.00
  -20   30   10      3.48      0.00
  -22   30   12      1.22      0.00
   -7   31   17     -1.03      0.00
   -5   31   15      4.63      0.00
   -3   31   13     -0.72      0.00
   -1   31   11      2.89      0.00
    1   31    9      3.15      0.00
    3   31    7     -4.93      0.00
    5   31    5     -1.28      0.00
    7   31    3      3.49      0.00
    9   31    1     -1.11      0.00
  -11   31    1     -2.45      0.00
  -13   31    3     -4.96      0.00
  -15   31    5      4.22      0.00
  -17   31    7     -1.11      0.00
  -19   31    9     -2.57      0.00
  -21   31   11      2.79      0.00
   -6   32   16     -4.36      0.00
   -4   32   14     -1.05      0.00
   -2   32   12      3.22      0.00
    0   32   10      2.56      0.00
    2   32    8      4.19      0.00
    4   32    6      2.82      0.00
    6   32    4     -9.35      0.00
    8   32    2     -3.01      0.00
   10   32    0     -4.50      0.00
  -12   32    2      1.96      0.00
  -14   32    4      1.04      0.00
  -16   32    6     -1.77      0.00
  -18   32    8      1.88      0.00
  -20   32   10      0.57      0.00
   -5   33   15      4.67      0.00
   -3   33   13      2.80      0.00
   -1   33   11      1.73      0.00
    1   33    9      1.51      0.00
    3   33    7     -2.08      0.00
    5   33    5      0.86      0.00
    7   33    3      1.49      0.00
    9   33    1     -5.15      0.00
  -11   33    1      0.85      0.00
  -13   33    3     -3.58      0.00
  -15   33    5     -1.27      0.00
  -17   33    7     -4.78      0.00
  -19   33    9     -1.86      0.00
   -4   34   14      2.65      0.00
   -2   34   12     -1.46      0.00
    0   34   10     -4.02      0.00
    2   34    8     -0.09      0.00
    4   34    6      3.65      0.00
    6   34    4     -5.82      0.00
    8   34    2      2.97      0.00
   10   34    0      2.10      0.00
  -12   34    2      6.21      0.00
  -14   34    4      1.76      0.00
  -16   34    6      1.01      0.00
  -18   34    8      5.23      0.00
   -3   35   13      3.06      0.00
   -1   35   11      2.76      0.00
    1   35    9      1.40      0.00
    3   35    7      3.57      0.00
    5   35    5      4.28      0.00
    7   35    3      3.10      0.00
    9   35    1     -1.32      0.00
  -11   35    1      7.27      0.00
  -13   35    3      0.85      0.00
  -15   35    5     -1.74      0.00
  -17   35    7     -5.32      0.00
   -2   36   12     -1.58      0.00
    0   36   10     -0.32      0.00
    2   36    8      2.01      0.00
    4   36    6      1.62      0.00
    6   36    4     -7.20      0.00
    8   36    2     -1.00      0.00
   10   36    0      0.52      0.00
  -12   36    2      0.70      0.00
  -14   36    4      0.07      0.00
  -16   36    6      0.10      0.00
   -1   37   11      2.74      0.00
    1   37    9      5.24      0.00
    3   37    7      2.09      0.00
    5   37    5     -1.90      0.00
    7   37    3     -4.64      0.00
    9   37    1     -7.14      0.00
  -11   37    1      4.04      0.00
  -13   37    3      1.23      0.00
  -15   37    5      0.96      0.00
    0   38   10      2.99      0.00
    2   38    8      4.23      0.00
    4   38    6      0.47      0.00
    6   38    4     -5.37      0.00
    8   38    2     -7.86      0.00
   10   38    0     -6.10      0.00
  -12   38    2      0.00      0.00
  -14   38    4     -0.51      0.00
    1   39    9      0.48      0.00
    3   39    7     -0.48      0.00
    5   39    5      1.41      0.00
    7   39    3     -1.53      0.00
    9   39    1     -2.31      0.00
  -11   39    1      4.54      0.00
  -13   39    3      0.95      0.00
    4   40    6      4.80      0.00
    6   40    4      0.62      0.00
    8   40    2      2.01      0.00
   10   40    0     -2.57      0.00
  -14    0   25      3.25      0.00
  -12    0   23      3.99      0.00
  -10    0   21     -7.63      0.00
   -8    0   19    -10.00      0.00
   -6    0   17     11.92      0.00
   -4    0   15      0.92      0.00
   -2    0   13    -34.01      0.00
    0    0   11    -45.56      0.00
    2    0    9     10.03      0.00
    4    0    7    -29.36      0.00
    6    0    5    -23.02      0.00
    8    0    3      1.15      0.00
   10    0    1    -16.17      0.00
  -12    0    1     -2.23      0.00
  -14    0    3     -6.06      0.00
  -16    0    5     -7.52      0.00
  -18    0    7      5.56      0.00
  -20    0    9      0.52      0.00
  -22    0   11      1.72      0.00
  -24    0   13      4.28      0.00
  -26    0   15     -3.62      0.00
  -28    0   17      9.32      0.00
  -13    1   24     -6.57      0.00
  -11    1   22     -4.54      0.00
   -9    1   20      4.28      0.00
   -7    1   18     -2.20      0.00
   -5    1   16     -3.38      0.00
   -3    1   14     -4.49      0.00
   -1    1   12    -31.84      0.00
    1    1   10    -51.72      0.00
    3    1    8    -30.05      0.00
    5    1    6     11.81      0.00
    7    1    4    -37.29      0.00
    9    1    2      0.26      0.00
   11    1    0     -0.79      0.00
  -13    1    2    -11.36      0.00
  -15    1    4     -3.83      0.00
  -17    1    6     10.03      0.00
  -19    1    8     -9.03      0.00
  -21    1   10     -0.49      0.00
  -23    1   12     -5.50      0.00
  -25    1   14     -1.57      0.00
  -27    1   16      0.81      0.00
  -29    1   18      1.37      0.00
  -14    2   25      5.04      0.00
  -12    2   23      5.13      0.00
  -10    2   21     -3.20      0.00
   -8    2   19     -3.55      0.00
   -6    2   17     12.07      0.00
   -4    2   15      2.86      0.00
   -2    2   13    -10.56      0.00
    0    2   11    -23.61      0.00
    2    2    9      4.14      0.00
    4    2    7    -18.43      0.00
    6    2    5     25.83      0.00
    8    2    3     50.03      0.00
   10    2    1      2.75      0.00
  -12    2    1     -7.02      0.00
  -14    2    3     -0.46      0.00
  -16    2    5     -8.23      0.00
  -18    2    7     -2.92      0.00
  -20    2    9     -2.00      0.00
  -22    2   11      1.97      0.00
  -24    2   13      6.64      0.00
  -26    2   15     -3.60      0.00
  -28    2   17      4.28      0.00
  -13    3   24     -2.23      0.00
  -11    3   22     -2.59      0.00
   -9    3   20      8.15      0.00
   -7    3   18      1.59      0.00
   -5    3   16     -0.65      0.00
   -3    3   14     -0.73      0.00
   -1    3   12    -12.35      0.00
    1    3   10    -28.57      0.00
    3    3    8    -42.14      0.00
    5    3    6      1.21      0.00
    7    3    4     18.66      0.00
    9    3    2     53.36      0.00
   11    3    0      7.98      0.00
  -13    3    2      4.09      0.00
  -15    3    4      6.16      0.00
  -17    3    6     -1.06      0.00
  -19    3    8    -11.92      0.00
  -21    3   10      4.16      0.00
  -23    3   12     -7.36      0.00
  -25    3   14     -2.63      0.00
  -27    3   16      1.81      0.00
  -29    3   18      0.58      0.00
  -14    4   25      5.73      0.00
  -12    4   23      3.38      0.00
  -10    4   21     -5.58      0.00
   -8    4   19     -4.40      0.00
   -6    4   17      8.54      0.00
   -4    4   15      3.82      0.00
   -2    4   13      1.34      0.00
    0    4   11    -26.23      0.00
    2    4    9    -14.82      0.00
    4    4    7    -11.34      0.00
    6    4    5     15.21      0.00
    8    4    3     18.44      0.00
   10    4    1     -9.29      0.00
  -12    4    1     -9.80      0.00
  -14    4    3     -7.32      0.00
  -16    4    5    -17.01      0.00
  -18    4    7     -4.69      0.00
  -20    4    9     -1.51      0.00
  -22    4   11     -1.53      0.00
  -24    4   13      4.81      0.00
  -26    4   15     -4.39      0.00
  -28    4   17      2.29      0.00
  -13    5   24     -3.63      0.00
  -11    5   22     -5.34      0.00
   -9    5   20     -2.34      0.00
   -7    5   18     -6.89      0.00
   -5    5   16      4.56      0.00
   -3    5   14     -2.25      0.00
   -1    5   12    -19.29      0.00
    1    5   10    -11.91      0.00
    3    5    8    -22.70      0.00
    5    5    6    -16.05      0.00
    7    5    4     -8.35      0.00
    9    5    2     25.24      0.00
   11    5    0     -5.96      0.00
  -13    5    2      0.90      0.00
  -15    5    4     -0.08      0.00
  -17    5    6     -2.20      0.00
  -19    5    8     -6.74      0.00
  -21    5   10      6.24      0.00
  -23    5   12    -11.58      0.00
  -25    5   14     -6.03      0.00
  -27    5   16      0.89      0.00
  -29    5   18     -1.84      0.00
  -12    6   23     -1.17      0.00
  -10    6   21    -11.98      0.00
   -8    6   19     -8.44      0.00
   -6    6   17      5.08      0.00
   -4    6   15      6.50      0.00
   -2    6   13      8.34      0.00
    0    6   11    -21.98      0.00
    2    6    9      6.18      0.00
    4    6    7     10.97      0.00
    6    6    5    -15.87      0.00
    8    6    3    -26.85      0.00
   10    6    1    -12.52      0.00
  -12    6    1      8.09      0.00
  -14    6    3    -11.88      0.00
  -16    6    5    -16.38      0.00
  -18    6    7      8.65      0.00
  -20    6    9      0.01      0.00
  -22    6   11     -5.07      0.00
  -24    6   13      1.35      0.00
  -26    6   15     -5.95      0.00
  -28    6   17      4.36      0.00
  -13    7   24     -2.47      0.00
  -11    7   22     -0.06      0.00
   -9    7   20      1.26      0.00
   -7    7   18     -1.87      0.00
   -5    7   16      9.72      0.00
   -3    7   14      6.75      0.00
   -1    7   12     -6.21      0.00
    1    7   10      5.58      0.00
    3    7    8     -2.38      0.00
    5    7    6     16.72      0.00
    7    7    4     12.42      0.00
    9    7    2     15.92      0.00
   11    7    0     -7.92      0.00
  -13    7    2     -3.21      0.00
  -15    7    4     12.14      0.00
  -17    7    6     14.75      0.00
  -19    7    8      4.31      0.00
  -21    7   10     10.55      0.00
  -23    7   12     -1.72      0.00
  -25    7   14      0.86      0.00
  -27    7   16      4.09      0.00
  -29    7   18      0.28      0.00
  -12    8   23     -0.36      0.00
  -10    8   21     -7.88      0.00
   -8    8   19     -7.20      0.00
   -6    8   17      4.90      0.00
   -4    8   15      4.55      0.00
   -2    8   13     11.78      0.00
    0    8   11     -7.76      0.00
    2    8    9     17.45      0.00
    4    8    7      5.52      0.00
    6    8    5      4.83      0.00
    8    8    3     27.56      0.00
   10    8    1     23.65      0.00
  -12    8    1     18.92      0.00
  -14    8    3     -2.95      0.00
  -16    8    5     -1.71      0.00
  -18    8    7     13.46      0.00
  -20    8    9     -0.84      0.00
  -22    8   11      2.69      0.00
  -24    8   13      6.80      0.00
  -26    8   15     -6.34      0.00
  -28    8   17      2.85      0.00
  -13    9   24     -2.08      0.00
  -11    9   22     -0.63      0.00
   -9    9   20      0.24      0.00
   -7    9   18     -1.49      0.00
   -5    9   16      5.92      0.00
   -3    9   14      8.49      0.00
   -1    9   12      4.52      0.00
    1    9   10     -3.72      0.00
    3    9    8    -19.91      0.00
    5    9    6     32.51      0.00
    7    9    4     32.69      0.00
    9    9    2     21.55      0.00
   11    9    0     -2.87      0.00
  -13    9    2    -17.05      0.00
  -15    9    4     -2.60      0.00
  -17    9    6     -2.72      0.00
  -19    9    8    -10.15      0.00
  -21    9   10      4.48      0.00
  -23    9   12     -0.06      0.00
  -25    9   14      0.53      0.00
  -27    9   16      4.06      0.00
  -29    9   18      2.87      0.00
  -12   10   23      0.42      0.00
  -10   10   21     -5.89      0.00
   -8   10   19    -10.82      0.00
   -6   10   17      7.05      0.00
   -4   10   15      8.64      0.00
   -2   10   13      7.32      0.00
    0   10   11    -12.43      0.00
    2   10    9      4.35      0.00
    4   10    7    -11.98      0.00
    6   10    5    -14.81      0.00
    8   10    3     21.47      0.00
   10   10    1      3.43      0.00
  -12   10    1      5.83      0.00
  -14   10    3     -8.66      0.00
  -16   10    5     -9.68      0.00
  -18   10    7      7.02      0.00
  -20   10    9      5.96      0.00
  -22   10   11      2.73      0.00
  -24   10   13      5.22      0.00
  -26   10   15     -4.11      0.00
  -28   10   17      1.67      0.00
  -13   11   24     -2.78      0.00
  -11   11   22     -5.02      0.00
   -9   11   20     -1.27      0.00
   -7   11   18      1.77      0.00
   -5   11   16      7.23      0.00
   -3   11   14     11.31      0.00
   -1   11   12     14.41      0.00
    1   11   10     -0.96      0.00
    3   11    8    -16.56      0.00
    5   11    6     24.15      0.00
    7   11    4     10.67      0.00
    9   11    2     -1.72      0.00
   11   11    0    -14.00      0.00
  -13   11    2    -17.23      0.00
  -15   11    4    -10.70      0.00
  -17   11    6     -5.65      0.00
  -19   11    8     -6.02      0.00
  -21   11   10      8.71      0.00
  -23   11   12     -2.62      0.00
  -25   11   14     -2.28      0.00
  -27   11   16      0.15      0.00
  -29   11   18     -1.52      0.00
  -12   12   23     -1.29      0.00
  -10   12   21     -7.43      0.00
   -8   12   19     -8.64      0.00
   -6   12   17     12.37      0.00
   -4   12   15     12.78      0.00
   -2   12   13      8.12      0.00
    0   12   11     -1.14      0.00
    2   12    9     22.38      0.00
    4   12    7     11.74      0.00
    6   12    5    -13.50      0.00
    8   12    3      9.14      0.00
   10   12    1    -13.08      0.00
  -12   12    1      0.61      0.00
  -14   12    3     -8.73      0.00
  -16   12    5    -10.88      0.00
  -18   12    7      8.34      0.00
  -20   12    9      5.78      0.00
  -22   12   11     -4.15      0.00
  -24   12   13      6.00      0.00
  -26   12   15     -0.61      0.00
  -28   12   17      0.42      0.00
  -11   13   22     -5.02      0.00
   -9   13   20      4.44      0.00
   -7   13   18     10.36      0.00
   -5   13   16      6.70      0.00
   -3   13   14      2.65      0.00
   -1   13   12      8.09      0.00
    1   13   10      7.26      0.00
    3   13    8     -7.56      0.00
    5   13    6     22.70      0.00
    7   13    4     19.00      0.00
    9   13    2     -0.52      0.00
   11   13    0    -18.42      0.00
  -13   13    2    -10.57      0.00
  -15   13    4      1.37      0.00
  -17   13    6      5.08      0.00
  -19   13    8     -5.41      0.00
  -21   13   10      6.47      0.00
  -23   13   12      3.62      0.00
  -25   13   14     -0.33      0.00
  -27   13   16     -2.86      0.00
  -12   14   23     -0.75      0.00
  -10   14   21     -5.24      0.00
   -8   14   19     -6.85      0.00
   -6   14   17      5.90      0.00
   -4   14   15     -0.30      0.00
   -2   14   13     -9.91      0.00
    0   14   11    -16.67      0.00
    2   14    9      5.34      0.00
    4   14    7     -7.95      0.00
    6   14    5    -23.78      0.00
    8   14    3      5.84      0.00
   10   14    1     -4.87      0.00
  -12   14    1    -11.91      0.00
  -14   14    3    -15.21      0.00
  -16   14    5     -9.89      0.00
  -18   14    7      6.68      0.00
  -20   14    9     -4.58      0.00
  -22   14   11     -4.14      0.00
  -24   14   13      6.09      0.00
  -26   14   15     -4.40      0.00
  -28   14   17      3.16      0.00
  -11   15   22     -4.73      0.00
   -9   15   20      1.29      0.00
   -7   15   18      1.20      0.00
   -5   15   16     -0.81      0.00
   -3   15   14     -7.80      0.00
   -1   15   12     -7.82      0.00
    1   15   10     -3.04      0.00
    3   15    8    -12.93      0.00
    5   15    6     10.92      0.00
    7   15    4     14.87      0.00
    9   15    2      0.87      0.00
   11   15    0    -15.53      0.00
  -13   15    2    -13.06      0.00
  -15   15    4     -4.52      0.00
  -17   15    6     -4.69      0.00
  -19   15    8     -8.77      0.00
  -21   15   10      3.90      0.00
  -23   15   12      1.26      0.00
  -25   15   14     -1.85      0.00
  -27   15   16     -0.31      0.00
  -12   16   23     -0.17      0.00
  -10   16   21     -5.52      0.00
   -8   16   19     -4.96      0.00
   -6   16   17      4.03      0.00
   -4   16   15      4.19      0.00
   -2   16   13      1.47      0.00
    0   16   11    -11.20      0.00
    2   16    9      3.30      0.00
    4   16    7     -9.59      0.00
    6   16    5    -18.75      0.00
    8   16    3     10.47      0.00
   10   16    1      1.93      0.00
  -12   16    1    -12.41      0.00
  -14   16    3    -11.71      0.00
  -16   16    5    -14.74      0.00
  -18   16    7      3.97      0.00
  -20   16    9      3.11      0.00
  -22   16   11     -1.11      0.00
  -24   16   13      0.39      0.00
  -26   16   15     -5.94      0.00
  -28   16   17      6.25      0.00
  -11   17   22     -2.36      0.00
   -9   17   20      1.35      0.00
   -7   17   18      1.53      0.00
   -5   17   16     10.33      0.00
   -3   17   14      2.79      0.00
   -1   17   12      3.86      0.00
    1   17   10      2.67      0.00
    3   17    8     -6.46      0.00
    5   17    6      7.57      0.00
    7   17    4      8.09      0.00
    9   17    2     -1.35      0.00
   11   17    0     -8.00      0.00
  -13   17    2     -5.23      0.00
  -15   17    4      0.45      0.00
  -17   17    6     -0.23      0.00
  -19   17    8      1.75      0.00
  -21   17   10     14.86      0.00
  -23   17   12      1.61      0.00
  -25   17   14     -0.84      0.00
  -27   17   16     -2.51      0.00
  -10   18   21     -7.12      0.00
   -8   18   19      2.70      0.00
   -6   18   17      8.54      0.00
   -4   18   15      3.75      0.00
   -2   18   13      3.46      0.00
    0   18   11     -6.11      0.00
    2   18    9      8.25      0.00
    4   18    7      0.47      0.00
    6   18    5      0.06      0.00
    8   18    3     19.14      0.00
   10   18    1      5.39      0.00
  -12   18    1     -0.15      0.00
  -14   18    3      3.86      0.00
  -16   18    5     -3.70      0.00
  -18   18    7      2.31      0.00
  -20   18    9      4.39      0.00
  -22   18   11      3.03      0.00
  -24   18   13      4.51      0.00
  -26   18   15     -3.46      0.00
  -11   19   22     -5.61      0.00
   -9   19   20      2.06      0.00
   -7   19   18     -1.49      0.00
   -5   19   16      3.32      0.00
   -3   19   14     -6.46      0.00
   -1   19   12     -0.92      0.00
    1   19   10     -2.26      0.00
    3   19    8     -8.22      0.00
    5   19    6     11.70      0.00
    7   19    4      7.21      0.00
    9   19    2     -1.41      0.00
   11   19    0     -2.20      0.00
  -13   19    2     -6.55      0.00
  -15   19    4     -2.47      0.00
  -17   19    6      0.13      0.00
  -19   19    8     -6.89      0.00
  -21   19   10      8.26      0.00
  -23   19   12      2.39      0.00
  -25   19   14     -2.26      0.00
  -27   19   16     -4.41      0.00
  -10   20   21     -3.72      0.00
   -8   20   19      1.95      0.00
   -6   20   17      3.79      0.00
   -4   20   15     -5.44      0.00
   -2   20   13     -8.95      0.00
    0   20   11    -14.03      0.00
    2   20    9      5.41      0.00
    4   20    7     -3.59      0.00
    6   20    5     -7.19      0.00
    8   20    3      8.91      0.00
   10   20    1      4.71      0.00
  -12   20    1     -3.35      0.00
  -14   20    3     -1.91      0.00
  -16   20    5     -4.51      0.00
  -18   20    7     -1.50      0.00
  -20   20    9     -2.11      0.00
  -22   20   11      1.69      0.00
  -24   20   13      5.42      0.00
  -26   20   15     -2.94      0.00
   -9   21   20      4.45      0.00
   -7   21   18     -0.51      0.00
   -5   21   16      2.25      0.00
   -3   21   14     -5.92      0.00
   -1   21   12     -4.34      0.00
    1   21   10     -3.96      0.00
    3   21    8     -5.52      0.00
    5   21    6      9.93      0.00
    7   21    4     -1.28      0.00
    9   21    2     -2.95      0.00
   11   21    0     -2.73      0.00
  -13   21    2     -4.92      0.00
  -15   21    4     -4.67      0.00
  -17   21    6      1.07      0.00
  -19   21    8     -3.32      0.00
  -21   21   10      3.40      0.00
  -23   21   12     -2.72      0.00
  -25   21   14     -2.78      0.00
  -10   22   21      0.09      0.00
   -8   22   19     -0.29      0.00
   -6   22   17      6.88      0.00
   -4   22   15      1.19      0.00
   -2   22   13      2.57      0.00
    0   22   11      2.42      0.00
    2   22    9     17.99      0.00
    4   22    7      5.48      0.00
    6   22    5      1.64      0.00
    8   22    3     16.36      0.00
   10   22    1      9.06      0.00
  -12   22    1     -1.19      0.00
  -14   22    3      1.11      0.00
  -16   22    5     -4.06      0.00
  -18   22    7      5.76      0.00
  -20   22    9      5.11      0.00
  -22   22   11      1.26      0.00
  -24   22   13      3.98      0.00
  -26   22   15     -1.10      0.00
   -9   23   20      0.82      0.00
   -7   23   18      1.04      0.00
   -5   23   16      5.77      0.00
   -3   23   14      3.82      0.00
   -1   23   12      3.82      0.00
    1   23   10      2.56      0.00
    3   23    8     -2.59      0.00
    5   23    6      1.59      0.00
    7   23    4     -1.36      0.00
    9   23    2     -1.46      0.00
   11   23    0     -5.01      0.00
  -13   23    2     -2.23      0.00
  -15   23    4     -0.74      0.00
  -17   23    6      0.52      0.00
  -19   23    8      0.81      0.00
  -21   23   10      6.40      0.00
  -23   23   12     -3.32      0.00
  -25   23   14     -3.00      0.00
   -8   24   19      4.33      0.00
   -6   24   17      7.94      0.00
   -4   24   15     -1.58      0.00
   -2   24   13      2.18      0.00
    0   24   11     -1.30      0.00
    2   24    9      4.28      0.00
    4   24    7     -6.26      0.00
    6   24    5      0.73      0.00
    8   24    3      9.75      0.00
   10   24    1     -2.16      0.00
  -12   24    1     -5.83      0.00
  -14   24    3      1.85      0.00
  -16   24    5     -5.84      0.00
  -18   24    7      2.21      0.00
  -20   24    9      1.31      0.00
  -22   24   11      0.35      0.00
  -24   24   13      5.44      0.00
   -9   25   20      2.50      0.00
   -7   25   18      1.33      0.00
   -5   25   16     -3.48      0.00
   -3   25   14     -4.51      0.00
   -1   25   12     -4.55      0.00
    1   25   10     -4.82      0.00
    3   25    8     -0.81      0.00
    5   25    6      3.68      0.00
    7   25    4     -1.69      0.00
    9   25    2     -5.94      0.00
   11   25    0     -2.10      0.00
  -13   25    2     -2.34      0.00
  -15   25    4     -0.02      0.00
  -17   25    6     -5.32      0.00
  -19   25    8     -0.91      0.00
  -21   25   10      8.65      0.00
  -23   25   12     -1.49      0.00
  -25   25   14     -1.60      0.00
   -8   26   19      1.95      0.00
   -6   26   17      5.42      0.00
   -4   26   15     -3.03      0.00
   -2   26   13     -6.63      0.00
    0   26   11     -6.81      0.00
    2   26    9      4.83      0.00
    4   26    7     -0.11      0.00
    6   26    5      4.41      0.00
    8   26    3     12.53      0.00
   10   26    1      2.57      0.00
  -12   26    1     -3.19      0.00
  -14   26    3      4.94      0.00
  -16   26    5     -4.76      0.00
  -18   26    7     -2.19      0.00
  -20   26    9      0.03      0.00
  -22   26   11      2.57      0.00
  -24   26   13      6.16      0.00
   -7   27   18      7.06      0.00
   -5   27   16      5.17      0.00
   -3   27   14     -1.44      0.00
   -1   27   12     -3.02      0.00
    1   27   10     -2.08      0.00
    3   27    8      4.13      0.00
    5   27    6     10.88      0.00
    7   27    4     -1.20      0.00
    9   27    2     -5.41      0.00
   11   27    0      6.20      0.00
  -13   27    2      5.30      0.00
  -15   27    4      6.58      0.00
  -17   27    6      4.00      0.00
  -19   27    8      7.16      0.00
  -21   27   10     14.14      0.00
  -23   27   12     -0.66      0.00
   -6   28   17      1.55      0.00
   -4   28   15      0.22      0.00
   -2   28   13     -4.91      0.00
    0   28   11     -3.80      0.00
    2   28    9      3.55      0.00
    4   28    7     -7.15      0.00
    6   28    5     -5.70      0.00
    8   28    3     12.66      0.00
   10   28    1      3.12      0.00
  -12   28    1     -4.19      0.00
  -14   28    3      2.65      0.00
  -16   28    5     -1.25      0.00
  -18   28    7      0.97      0.00
  -20   28    9      1.14      0.00
  -22   28   11      3.33      0.00
   -7   29   18     -0.76      0.00
   -5   29   16      3.77      0.00
   -3   29   14      0.33      0.00
   -1   29   12     -1.57      0.00
    1   29   10     -3.13      0.00
    3   29    8     -3.20      0.00
    5   29    6      2.33      0.00
    7   29    4     -4.17      0.00
    9   29    2     -3.17      0.00
   11   29    0      3.09      0.00
  -13   29    2     -0.17      0.00
  -15   29    4      3.82      0.00
  -17   29    6      9.08      0.00
  -19   29    8      4.17      0.00
  -21   29   10      7.69      0.00
  -23   29   12     -2.00      0.00
   -6   30   17     -3.81      0.00
   -4   30   15     -5.73      0.00
   -2   30   13     -1.52      0.00
    0   30   11     -7.84      0.00
    2   30    9     -6.02      0.00
    4   30    7    -15.12      0.00
    6   30    5    -13.20      0.00
    8   30    3      5.15      0.00
   10   30    1     -4.34      0.00
  -12   30    1     -7.30      0.00
  -14   30    3     -2.14      0.00
  -16   30    5     -5.49      0.00
  -18   30    7      1.16      0.00
  -20   30    9     -2.61      0.00
  -22   30   11     -0.88      0.00
   -5   31   16      3.31      0.00
   -3   31   14     -3.73      0.00
   -1   31   12     -6.19      0.00
    1   31   10     -8.17      0.00
    3   31    8     -9.27      0.00
    5   31    6     -0.80      0.00
    7   31    4     -4.12      0.00
    9   31    2     -0.14      0.00
   11   31    0      6.31      0.00
  -13   31    2      1.47      0.00
  -15   31    4      4.32      0.00
  -17   31    6      1.90      0.00
  -19   31    8     -1.74      0.00
  -21   31   10      2.29      0.00
   -4   32   15     -5.55      0.00
   -2   32   13     -2.56      0.00
    0   32   11     -7.32      0.00
    2   32    9     -3.07      0.00
    4   32    7     -4.29      0.00
    6   32    5     -3.73      0.00
    8   32    3      8.24      0.00
   10   32    1      3.32      0.00
  -12   32    1      4.44      0.00
  -14   32    3      2.62      0.00
  -16   32    5     -5.98      0.00
  -18   32    7      3.06      0.00
  -20   32    9     -1.16      0.00
   -3   33   14     -4.63      0.00
   -1   33   12     -3.92      0.00
    1   33   10      0.51      0.00
    3   33    8     -3.02      0.00
    5   33    6      0.69      0.00
    7   33    4     -4.97      0.00
    9   33    2     -1.72      0.00
   11   33    0     10.69      0.00
  -13   33    2      2.43      0.00
  -15   33    4      2.73      0.00
  -17   33    6     -2.48      0.00
  -19   33    8     -2.14      0.00
   -2   34   13      2.26      0.00
    0   34   11     -2.79      0.00
    2   34    9      0.03      0.00
    4   34    7     -5.22      0.00
    6   34    5    -11.54      0.00
    8   34    3      1.89      0.00
   10   34    1      2.02      0.00
  -12   34    1      3.15      0.00
  -14   34    3     -0.12      0.00
  -16   34    5     -4.41      0.00
  -18   34    7      7.21      0.00
   -1   35   12     -4.27      0.00
    1   35   10      0.75      0.00
    3   35    8      1.89      0.00
    5   35    6     -1.06      0.00
    7   35    4     -7.11      0.00
    9   35    2     -5.79      0.00
   11   35    0      2.55      0.00
  -13   35    2     -1.98      0.00
  -15   35    4      3.39      0.00
  -17   35    6     -1.16      0.00
    0   36   11      1.69      0.00
    2   36    9      2.81      0.00
    4   36    7     -2.31      0.00
    6   36    5     -4.52      0.00
    8   36    3      6.02      0.00
   10   36    1      6.72      0.00
  -12   36    1      2.88      0.00
  -14   36    3      2.90      0.00
  -16   36    5     -3.64      0.00
    1   37   10     -2.75      0.00
    3   37    8     -0.45      0.00
    5   37    6      5.15      0.00
    7   37    4      0.99      0.00
    9   37    2      1.54      0.00
   11   37    0      5.74      0.00
  -13   37    2     -0.01      0.00
  -15   37    4      4.59      0.00
    2   38    9      6.12      0.00
    4   38    7      0.04      0.00
    6   38    5     -0.75      0.00
    8   38    3      3.94      0.00
   10   38    1     11.03      0.00
  -12   38    1      6.80      0.00
  -14   38    3      1.42      0.00
    3   39    8     -3.45      0.00
    5   39    6      3.02      0.00
    7   39    4     -2.06      0.00
    9   39    2     -3.65      0.00
   11   39    0     -0.53      0.00
  -13   39    2     -6.90      0.00
    6   40    5     -5.82      0.00
    8   40    3     -1.63      0.00
   10   40    1      2.89      0.00
  -12    0   24      1.45      0.00
  -10    0   22     -6.39      0.00
   -8    0   20     13.32      0.00
   -6    0   18      2.63      0.00
   -4    0   16      1.53      0.00
   -2    0   14     -4.44      0.00
    0    0   12     -9.22      0.00
    2    0   10     15.69      0.00
    4    0    8      0.99      0.00
    6    0    6     -7.53      0.00
    8    0    4     26.08      0.00
   10    0    2     32.29      0.00
   12    0    0      8.19      0.00
  -14    0    2     -5.67      0.00
  -16    0    4      9.15      0.00
  -18    0    6     17.71      0.00
  -20    0    8    -11.31      0.00
  -22    0   10      3.67      0.00
  -24    0   12      4.55      0.00
  -26    0   14      4.60      0.00
  -28    0   16      6.12      0.00
  -30    0   18      1.70      0.00
  -13    1   25     -5.29      0.00
  -11    1   23      6.58      0.00
   -9    1   21     -2.55      0.00
   -7    1   19     -5.76      0.00
   -5    1   17     11.28      0.00
   -3    1   15     -2.98      0.00
   -1    1   13     -0.96      0.00
    1    1   11     11.31      0.00
    3    1    9     14.20      0.00
    5    1    7     -1.82      0.00
    7    1    5     -2.64      0.00
    9    1    3     -3.33      0.00
   11    1    1     18.10      0.00
  -13    1    1     12.38      0.00
  -15    1    3     26.00      0.00
  -17    1    5      1.40      0.00
  -19    1    7      0.80      0.00
  -21    1    9      4.76      0.00
  -23    1   11     -7.65      0.00
  -25    1   13     -2.43      0.00
  -27    1   15      5.58      0.00
  -29    1   17      3.80      0.00
  -12    2   24     -3.74      0.00
  -10    2   22     -9.30      0.00
   -8    2   20     10.36      0.00
   -6    2   18     -2.26      0.00
   -4    2   16     -4.33      0.00
   -2    2   14     -4.85      0.00
    0    2   12    -12.05      0.00
    2    2   10      1.63      0.00
    4    2    8      4.96      0.00
    6    2    6      1.68      0.00
    8    2    4     -3.91      0.00
   10    2    2    -16.14      0.00
   12    2    0     -9.05      0.00
  -14    2    2     -0.62      0.00
  -16    2    4     -1.88      0.00
  -18    2    6      2.91      0.00
  -20    2    8    -16.67      0.00
  -22    2   10      1.29      0.00
  -24    2   12      1.33      0.00
  -26    2   14     -0.74      0.00
  -28    2   16      1.72      0.00
  -30    2   18      2.57      0.00
  -13    3   25     -6.16      0.00
  -11    3   23      1.33      0.00
   -9    3   21     -1.78      0.00
   -7    3   19     -6.64      0.00
   -5    3   17      7.35      0.00
   -3    3   15      1.97      0.00
   -1    3   13     -2.96      0.00
    1    3   11     -1.23      0.00
    3    3    9     10.09      0.00
    5    3    7     -3.53      0.00
    7    3    5    -14.03      0.00
    9    3    3    -43.30      0.00
   11    3    1    -15.55      0.00
  -13    3    1     27.42      0.00
  -15    3    3     26.40      0.00
  -17    3    5    -12.07      0.00
  -19    3    7     -5.40      0.00
  -21    3    9      4.43      0.00
  -23    3   11     -9.85      0.00
  -25    3   13     -6.59      0.00
  -27    3   15      0.05      0.00
  -29    3   17      3.28      0.00
  -12    4   24     -3.20      0.00
  -10    4   22     -9.69      0.00
   -8    4   20      9.41      0.00
   -6    4   18      4.51      0.00
   -4    4   16     -1.30      0.00
   -2    4   14     -4.45      0.00
    0    4   12     -5.37      0.00
    2    4   10      0.98      0.00
    4    4    8     12.97      0.00
    6    4    6     10.98      0.00
    8    4    4     -8.04      0.00
   10    4    2    -23.18      0.00
   12    4    0    -11.21      0.00
  -14    4    2     -4.20      0.00
  -16    4    4     -3.84      0.00
  -18    4    6      7.08      0.00
  -20    4    8    -10.64      0.00
  -22    4   10      0.96      0.00
  -24    4   12     -0.39      0.00
  -26    4   14     -1.83      0.00
  -28    4   16      3.41      0.00
  -30    4   18      4.01      0.00
  -11    5   23      0.36      0.00
   -9    5   21      0.05      0.00
   -7    5   19     -6.16      0.00
   -5    5   17     10.18      0.00
   -3    5   15      8.68      0.00
   -1    5   13     -4.71      0.00
    1    5   11     -0.80      0.00
    3    5    9     15.53      0.00
    5    5    7    -10.39      0.00
    7    5    5      4.60      0.00
    9    5    3     -0.10      0.00
   11    5    1      8.95      0.00
  -13    5    1     15.78      0.00
  -15    5    3     10.46      0.00
  -17    5    5     -6.35      0.00
  -19    5    7     -1.33      0.00
  -21    5    9      0.88      0.00
  -23    5   11     -9.99      0.00
  -25    5   13     -0.22      0.00
  -27    5   15      1.87      0.00
  -29    5   17      0.64      0.00
  -12    6   24      0.52      0.00
  -10    6   22    -13.50      0.00
   -8    6   20      0.79      0.00
   -6    6   18      5.70      0.00
   -4    6   16      1.96      0.00
   -2    6   14     -8.82      0.00
    0    6   12     -6.40      0.00
    2    6   10      0.34      0.00
    4    6    8     -4.55      0.00
    6    6    6     -9.45      0.00
    8    6    4      6.57      0.00
   10    6    2     16.45      0.00
   12    6    0      1.38      0.00
  -14    6    2    -11.27      0.00
  -16    6    4      1.16      0.00
  -18    6    6     15.78      0.00
  -20    6    8     -9.22      0.00
  -22    6   10      0.16      0.00
  -24    6   12     -0.32      0.00
  -26    6   14     -0.71      0.00
  -28    6   16      5.79      0.00
  -30    6   18      2.25      0.00
  -11    7   23     -1.16      0.00
   -9    7   21     -2.27      0.00
   -7    7   19     -9.69      0.00
   -5    7   17      5.05      0.00
   -3    7   15      8.30      0.00
   -1    7   13     -7.39      0.00
    1    7   11    -11.49      0.00
    3    7    9     -8.62      0.00
    5    7    7    -26.07      0.00
    7    7    5    -10.51      0.00
    9    7    3    -22.01      0.00
   11    7    1    -14.17      0.00
  -13    7    1    -15.17      0.00
  -15    7    3      2.11      0.00
  -17    7    5     -7.36      0.00
  -19    7    7     -3.41      0.00
  -21    7    9      0.39      0.00
  -23    7   11     -5.10      0.00
  -25    7   13      5.02      0.00
  -27    7   15      3.95      0.00
  -29    7   17      1.34      0.00
  -12    8   24     -1.93      0.00
  -10    8   22    -18.67      0.00
   -8    8   20     -5.74      0.00
   -6    8   18      0.98      0.00
   -4    8   16      0.23      0.00
   -2    8   14     -5.13      0.00
    0    8   12     -0.85      0.00
    2    8   10      6.06      0.00
    4    8    8     -8.80      0.00
    6    8    6    -25.72      0.00
    8    8    4    -10.68      0.00
   10    8    2      1.76      0.00
   12    8    0     -4.03      0.00
  -14    8    2      2.91      0.00
  -16    8    4     10.62      0.00
  -18    8    6     14.63      0.00
  -20    8    8     -9.55      0.00
  -22    8   10      6.71      0.00
  -24    8   12     -0.49      0.00
  -26    8   14     -5.15      0.00
  -28    8   16      3.29      0.00
  -11    9   23     -2.71      0.00
   -9    9   21     -4.26      0.00
   -7    9   19     -7.10      0.00
   -5    9   17      5.45      0.00
   -3    9   15      9.10      0.00
   -1    9   13      5.14      0.00
    1    9   11      5.11      0.00
    3    9    9      9.83      0.00
    5    9    7      7.68      0.00
    7    9    5     -8.56      0.00
    9    9    3    -49.70      0.00
   11    9    1    -23.02      0.00
  -13    9    1    -13.05      0.00
  -15    9    3      3.43      0.00
  -17    9    5    -10.76      0.00
  -19    9    7     -4.75      0.00
  -21    9    9     -0.83      0.00
  -23    9   11     -9.52      0.00
  -25    9   13     -0.15      0.00
  -27    9   15      3.48      0.00
  -29    9   17      3.17      0.00
  -12   10   24     -1.58      0.00
  -10   10   22    -14.74      0.00
   -8   10   20      2.98      0.00
   -6   10   18      9.65      0.00
   -4   10   16      4.68      0.00
   -2   10   14      1.45      0.00
    0   10   12      5.14      0.00
    2   10   10     17.45      0.00
    4   10    8     13.95      0.00
    6   10    6    -13.28      0.00
    8   10    4      2.04      0.00
   10   10    2     -1.69      0.00
   12   10    0      1.96      0.00
  -14   10    2     11.41      0.00
  -16   10    4     17.11      0.00
  -18   10    6     19.17      0.00
  -20   10    8     -1.70      0.00
  -22   10   10      7.19      0.00
  -24   10   12      0.05      0.00
  -26   10   14     -4.12      0.00
  -28   10   16      3.83      0.00
  -11   11   23     -0.47      0.00
   -9   11   21     -1.61      0.00
   -7   11   19     -6.02      0.00
   -5   11   17      3.06      0.00
   -3   11   15      2.52      0.00
   -1   11   13     -2.74      0.00
    1   11   11     -1.76      0.00
    3   11    9      9.60      0.00
    5   11    7      8.02      0.00
    7   11    5     -5.38      0.00
    9   11    3    -35.07      0.00
   11   11    1      3.20      0.00
  -13   11    1     -1.35      0.00
  -15   11    3     -2.41      0.00
  -17   11    5     -5.73      0.00
  -19   11    7     -1.37      0.00
  -21   11    9     -4.50      0.00
  -23   11   11    -11.90      0.00
  -25   11   13      1.82      0.00
  -27   11   15      0.88      0.00
  -29   11   17     -0.26      0.00
  -12   12   24     -1.87      0.00
  -10   12   22    -14.58      0.00
   -8   12   20      1.39      0.00
   -6   12   18      2.18      0.00
   -4   12   16     -5.77      0.00
   -2   12   14     -3.11      0.00
    0   12   12     -1.31      0.00
    2   12   10     -3.46      0.00
    4   12    8     -2.25      0.00
    6   12    6    -14.88      0.00
    8   12    4     14.33      0.00
   10   12    2     -4.59      0.00
   12   12    0     -3.29      0.00
  -14   12    2      3.24      0.00
  -16   12    4      6.62      0.00
  -18   12    6      6.28      0.00
  -20   12    8    -11.38      0.00
  -22   12   10     -0.23      0.00
  -24   12   12      0.91      0.00
  -26   12   14     -6.07      0.00
  -28   12   16     -0.72      0.00
  -11   13   23      0.89      0.00
   -9   13   21     -2.83      0.00
   -7   13   19     -9.33      0.00
   -5   13   17      0.22      0.00
   -3   13   15      3.19      0.00
   -1   13   13     -1.56      0.00
    1   13   11      2.46      0.00
    3   13    9     -2.87      0.00
    5   13    7     -7.48      0.00
    7   13    5     -1.10      0.00
    9   13    3    -22.03      0.00
   11   13    1      2.96      0.00
  -13   13    1     -2.22      0.00
  -15   13    3      2.05      0.00
  -17   13    5     -3.33      0.00
  -19   13    7     -7.00      0.00
  -21   13    9     -2.15      0.00
  -23   13   11     -2.39      0.00
  -25   13   13      2.51      0.00
  -27   13   15     -3.06      0.00
  -29   13   17     -4.54      0.00
  -10   14   22     -8.90      0.00
   -8   14   20      2.47      0.00
   -6   14   18      3.67      0.00
   -4   14   16     -1.98      0.00
   -2   14   14      4.61      0.00
    0   14   12     12.59      0.00
    2   14   10      1.26      0.00
    4   14    8     -6.46      0.00
    6   14    6    -14.55      0.00
    8   14    4     11.85      0.00
   10   14    2     -5.27      0.00
   12   14    0     -5.95      0.00
  -14   14    2     10.03      0.00
  -16   14    4      6.46      0.00
  -18   14    6      8.69      0.00
  -20   14    8    -10.68      0.00
  -22   14   10      5.78      0.00
  -24   14   12      1.75      0.00
  -26   14   14     -7.85      0.00
  -28   14   16     -1.06      0.00
  -11   15   23      1.83      0.00
   -9   15   21     -2.15      0.00
   -7   15   19     -4.40      0.00
   -5   15   17      6.80      0.00
   -3   15   15      3.71      0.00
   -1   15   13     -5.05      0.00
    1   15   11     12.47      0.00
    3   15    9     16.54      0.00
    5   15    7     13.71      0.00
    7   15    5     17.12      0.00
    9   15    3     -1.98      0.00
   11   15    1     17.32      0.00
  -13   15    1     14.46      0.00
  -15   15    3     15.94      0.00
  -17   15    5      1.89      0.00
  -19   15    7     -0.69      0.00
  -21   15    9      2.57      0.00
  -23   15   11     -2.11      0.00
  -25   15   13      2.21      0.00
  -27   15   15      1.51      0.00
  -10   16   22     -3.74      0.00
   -8   16   20      4.65      0.00
   -6   16   18      4.87      0.00
   -4   16   16     -3.51      0.00
   -2   16   14     -3.69      0.00
    0   16   12      2.59      0.00
    2   16   10      0.96      0.00
    4   16    8     -0.40      0.00
    6   16    6     -4.96      0.00
    8   16    4     21.39      0.00
   10   16    2      6.06      0.00
   12   16    0      3.45      0.00
  -14   16    2     15.24      0.00
  -16   16    4      0.46      0.00
  -18   16    6      9.15      0.00
  -20   16    8     -9.35      0.00
  -22   16   10     -0.82      0.00
  -24   16   12     -3.30      0.00
  -26   16   14     -4.75      0.00
  -28   16   16      3.99      0.00
   -9   17   21      2.28      0.00
   -7   17   19     -0.74      0.00
   -5   17   17      1.50      0.00
   -3   17   15     -8.87      0.00
   -1   17   13    -18.09      0.00
    1   17   11     -6.84      0.00
    3   17    9      4.53      0.00
    5   17    7      4.79      0.00
    7   17    5      1.71      0.00
    9   17    3     -8.37      0.00
   11   17    1     21.74      0.00
  -13   17    1     13.13      0.00
  -15   17    3     11.08      0.00
  -17   17    5     -1.50      0.00
  -19   17    7      0.06      0.00
  -21   17    9     -0.96      0.00
  -23   17   11     -9.31      0.00
  -25   17   13      2.89      0.00
  -27   17   15      1.73      0.00
  -10   18   22      0.37      0.00
   -8   18   20      3.43      0.00
   -6   18   18     -3.78      0.00
   -4   18   16    -10.19      0.00
   -2   18   14     -8.11      0.00
    0   18   12     -6.86      0.00
    2   18   10    -12.82      0.00
    4   18    8    -11.45      0.00
    6   18    6     -4.50      0.00
    8   18    4     20.93      0.00
   10   18    2     -2.34      0.00
   12   18    0     -6.44      0.00
  -14   18    2     10.13      0.00
  -16   18    4      4.00      0.00
  -18   18    6      2.33      0.00
  -20   18    8    -12.78      0.00
  -22   18   10     -2.83      0.00
  -24   18   12     -3.35      0.00
  -26   18   14     -3.30      0.00
   -9   19   21      2.17      0.00
   -7   19   19      0.96      0.00
   -5   19   17      1.96      0.00
   -3   19   15     -4.47      0.00
   -1   19   13     -2.65      0.00
    1   19   11      6.91      0.00
    3   19    9      6.52      0.00
    5   19    7      4.43      0.00
    7   19    5     -0.61      0.00
    9   19    3     -1.38      0.00
   11   19    1     23.67      0.00
  -13   19    1      5.89      0.00
  -15   19    3     10.39      0.00
  -17   19    5      1.09      0.00
  -19   19    7     -1.19      0.00
  -21   19    9      1.27      0.00
  -23   19   11     -7.07      0.00
  -25   19   13      0.24      0.00
  -27   19   15     -0.83      0.00
  -10   20   22      1.51      0.00
   -8   20   20      1.48      0.00
   -6   20   18     -1.17      0.00
   -4   20   16      1.61      0.00
   -2   20   14      3.89      0.00
    0   20   12      2.66      0.00
    2   20   10     -2.05      0.00
    4   20    8     -4.43      0.00
    6   20    6     -7.09      0.00
    8   20    4     13.18      0.00
   10   20    2     -3.73      0.00
   12   20    0     -6.47      0.00
  -14   20    2      6.95      0.00
  -16   20    4      6.80      0.00
  -18   20    6      4.19      0.00
  -20   20    8     -8.73      0.00
  -22   20   10      4.14      0.00
  -24   20   12      0.95      0.00
  -26   20   14     -2.51      0.00
   -9   21   21     -2.06      0.00
   -7   21   19      5.94      0.00
   -5   21   17      9.02      0.00
   -3   21   15     -3.09      0.00
   -1   21   13     -6.12      0.00
    1   21   11      8.60      0.00
    3   21    9      5.09      0.00
    5   21    7     -4.34      0.00
    7   21    5     -7.84      0.00
    9   21    3     -0.88      0.00
   11   21    1     14.86      0.00
  -13   21    1      2.74      0.00
  -15   21    3      4.76      0.00
  -17   21    5     -1.48      0.00
  -19   21    7      0.33      0.00
  -21   21    9     -1.26      0.00
  -23   21   11     -8.70      0.00
  -25   21   13     -0.83      0.00
   -8   22   20     -0.03      0.00
   -6   22   18     -2.07      0.00
   -4   22   16     -6.61      0.00
   -2   22   14     -5.51      0.00
    0   22   12     -3.25      0.00
    2   22   10     -3.49      0.00
    4   22    8     -3.59      0.00
    6   22    6     -6.91      0.00
    8   22    4      7.73      0.00
   10   22    2     -7.27      0.00
   12   22    0     -3.11      0.00
  -14   22    2      1.07      0.00
  -16   22    4     -6.56      0.00
  -18   22    6     -0.14      0.00
  -20   22    8     -8.45      0.00
  -22   22   10      2.03      0.00
  -24   22   12      1.16      0.00
  -26   22   14      0.09      0.00
   -9   23   21      0.46      0.00
   -7   23   19      3.03      0.00
   -5   23   17      2.10      0.00
   -3   23   15     -3.28      0.00
   -1   23   13    -11.25      0.00
    1   23   11     -1.80      0.00
    3   23    9     -0.22      0.00
    5   23    7     -4.58      0.00
    7   23    5     -7.54      0.00
    9   23    3     -8.56      0.00
   11   23    1      4.33      0.00
  -13   23    1     -0.18      0.00
  -15   23    3      2.63      0.00
  -17   23    5     -6.44      0.00
  -19   23    7     -4.62      0.00
  -21   23    9     -4.67      0.00
  -23   23   11     -6.31      0.00
  -25   23   13      1.83      0.00
   -8   24   20      7.28      0.00
   -6   24   18      0.71      0.00
   -4   24   16     -4.62      0.00
   -2   24   14      0.47      0.00
    0   24   12      2.18      0.00
    2   24   10     -1.41      0.00
    4   24    8     -4.00      0.00
    6   24    6     -1.00      0.00
    8   24    4      6.75      0.00
   10   24    2     -9.94      0.00
   12   24    0     -4.82      0.00
  -14   24    2      3.96      0.00
  -16   24    4     -1.56      0.00
  -18   24    6      5.08      0.00
  -20   24    8     -2.97      0.00
  -22   24   10      5.14      0.00
  -24   24   12      3.65      0.00
   -7   25   19     -0.58      0.00
   -5   25   17     -1.88      0.00
   -3   25   15      3.76      0.00
   -1   25   13     -1.41      0.00
    1   25   11      3.46      0.00
    3   25    9      6.80      0.00
    5   25    7      3.86      0.00
    7   25    5     -2.46      0.00
    9   25    3     -6.29      0.00
   11   25    1      6.62      0.00
  -13   25    1     -0.60      0.00
  -15   25    3      7.70      0.00
  -17   25    5     -3.59      0.00
  -19   25    7     -0.96      0.00
  -21   25    9      1.43      0.00
  -23   25   11     -0.16      0.00
  -25   25   13      2.01      0.00
   -6   26   18     -1.22      0.00
   -4   26   16     -1.15      0.00
   -2   26   14      2.31      0.00
    0   26   12      6.06      0.00
    2   26   10      5.50      0.00
    4   26    8     -1.87      0.00
    6   26    6     -6.59      0.00
    8   26    4      5.83      0.00
   10   26    2     -1.16      0.00
   12   26    0     -2.24      0.00
  -14   26    2      1.20      0.00
  -16   26    4     -3.07      0.00
  -18   26    6      6.84      0.00
  -20   26    8     -0.61      0.00
  -22   26   10     -0.78      0.00
  -24   26   12      0.71      0.00
   -7   27   19      0.78      0.00
   -5   27   17      0.46      0.00
   -3   27   15     -3.28      0.00
   -1   27   13     -2.24      0.00
    1   27   11      2.99      0.00
    3   27    9      0.89      0.00
    5   27    7     -2.38      0.00
    7   27    5     -7.64      0.00
    9   27    3    -12.11      0.00
   11   27    1      0.02      0.00
  -13   27    1     -6.45      0.00
  -15   27    3      1.23      0.00
  -17   27    5     -5.74      0.00
  -19   27    7      0.88      0.00
  -21   27    9      3.33      0.00
  -23   27   11     -2.38      0.00
   -6   28   18      1.52      0.00
   -4   28   16     -3.33      0.00
   -2   28   14     -6.50      0.00
    0   28   12     -2.22      0.00
    2   28   10      0.81      0.00
    4   28    8     -4.91      0.00
    6   28    6     -9.98      0.00
    8   28    4      5.67      0.00
   10   28    2     -0.51      0.00
   12   28    0      0.01      0.00
  -14   28    2     -2.62      0.00
  -16   28    4     -5.33      0.00
  -18   28    6      0.12      0.00
  -20   28    8     -4.81      0.00
  -22   28   10     -6.69      0.00
   -5   29   17      0.46      0.00
   -3   29   15     -5.13      0.00
   -1   29   13     -5.90      0.00
    1   29   11      0.36      0.00
    3   29    9      1.56      0.00
    5   29    7      5.47      0.00
    7   29    5      4.36      0.00
    9   29    3     -4.69      0.00
   11   29    1      3.39      0.00
  -13   29    1      1.26      0.00
  -15   29    3      8.07      0.00
  -17   29    5      1.68      0.00
  -19   29    7     -1.35      0.00
  -21   29    9      1.65      0.00
  -23   29   11     -0.45      0.00
   -4   30   16     -1.57      0.00
   -2   30   14     -0.01      0.00
    0   30   12     -0.99      0.00
    2   30   10      4.26      0.00
    4   30    8     -1.31      0.00
    6   30    6     -4.97      0.00
    8   30    4      7.92      0.00
   10   30    2     -1.96      0.00
   12   30    0      0.20      0.00
  -14   30    2      0.22      0.00
  -16   30    4     -2.02      0.00
  -18   30    6     -0.30      0.00
  -20   30    8     -1.55      0.00
  -22   30   10      0.35      0.00
   -3   31   15      0.74      0.00
   -1   31   13     -0.70      0.00
    1   31   11      0.53      0.00
    3   31    9     -0.17      0.00
    5   31    7      1.69      0.00
    7   31    5     -1.32      0.00
    9   31    3     -6.54      0.00
   11   31    1      1.02      0.00
  -13   31    1     -0.29      0.00
  -15   31    3      8.56      0.00
  -17   31    5      3.08      0.00
  -19   31    7      0.18      0.00
  -21   31    9      0.07      0.00
   -4   32   16     -4.23      0.00
   -2   32   14      2.47      0.00
    0   32   12      1.48      0.00
    2   32   10      3.11      0.00
    4   32    8     -0.22      0.00
    6   32    6     -5.43      0.00
    8   32    4      4.19      0.00
   10   32    2     -0.19      0.00
   12   32    0     -3.23      0.00
  -14   32    2     -6.27      0.00
  -16   32    4     -4.88      0.00
  -18   32    6      1.10      0.00
  -20   32    8     -1.00      0.00
   -3   33   15     -3.82      0.00
   -1   33   13     -1.26      0.00
    1   33   11      0.45      0.00
    3   33    9     -0.08      0.00
    5   33    7      0.56      0.00
    7   33    5     -0.45      0.00
    9   33    3     -3.13      0.00
   11   33    1      4.24      0.00
  -13   33    1     -3.93      0.00
  -15   33    3      5.35      0.00
  -17   33    5      3.57      0.00
  -19   33    7      3.73      0.00
   -2   34   14     -0.09      0.00
    0   34   12      0.36      0.00
    2   34   10      1.41      0.00
    4   34    8     -3.67      0.00
    6   34    6     -4.37      0.00
    8   34    4      8.88      0.00
   10   34    2      7.63      0.00
   12   34    0      0.68      0.00
  -14   34    2     -6.55      0.00
  -16   34    4     -2.21      0.00
  -18   34    6      2.37      0.00
   -1   35   13     -5.52      0.00
    1   35   11     -0.71      0.00
    3   35    9      3.03      0.00
    5   35    7      0.04      0.00
    7   35    5      1.79      0.00
    9   35    3     -0.18      0.00
   11   35    1      7.54      0.00
  -13   35    1      3.54      0.00
  -15   35    3      6.13      0.00
  -17   35    5      0.63      0.00
    0   36   12      1.11      0.00
    2   36   10      5.57      0.00
    4   36    8     -3.18      0.00
    6   36    6     -4.37      0.00
    8   36    4      3.72      0.00
   10   36    2      1.50      0.00
   12   36    0     -1.96      0.00
  -14   36    2     -4.78      0.00
  -16   36    4     -6.14      0.00
    1   37   11      1.65      0.00
    3   37    9      1.84      0.00
    5   37    7     -2.29      0.00
    7   37    5     -8.78      0.00
    9   37    3     -6.70      0.00
   11   37    1      0.27      0.00
  -13   37    1      0.18      0.00
  -15   37    3      3.84      0.00
    4   38    8      0.89      0.00
    6   38    6     -3.45      0.00
    8   38    4     -2.62      0.00
   10   38    2     -2.50      0.00
   12   38    0     -4.08      0.00
  -14   38    2     -5.49      0.00
    5   39    7     -2.59      0.00
    7   39    5     -7.06      0.00
    9   39    3     -2.11      0.00
   11   39    1      0.36      0.00
  -12    0   25     -6.84      0.00
  -10    0   23     -8.65      0.00
   -8    0   21     -1.24      0.00
   -6    0   19      5.76      0.00
   -4    0   17     -3.13      0.00
   -2    0   15    -12.17      0.00
    0    0   13    -24.69      0.00
    2    0   11     -4.47      0.00
    4    0    9    -38.42      0.00
    6    0    7    -11.54      0.00
    8    0    5     11.02      0.00
   10    0    3    -37.32      0.00
   12    0    1    -24.76      0.00
  -14    0    1      3.04      0.00
  -16    0    3     11.92      0.00
  -18    0    5      4.73      0.00
  -20    0    7     -4.26      0.00
  -22    0    9      5.20      0.00
  -24    0   11     -2.54      0.00
  -26    0   13    -10.73      0.00
  -28    0   15      6.75      0.00
  -30    0   17     -2.65      0.00
  -11    1   24     -2.94      0.00
   -9    1   22     -7.38      0.00
   -7    1   20      1.83      0.00
   -5    1   18     13.64      0.00
   -3    1   16      2.49      0.00
   -1    1   14    -13.82      0.00
    1    1   12    -18.86      0.00
    3    1   10    -18.67      0.00
    5    1    8     -3.22      0.00
    7    1    6    -30.85      0.00
    9    1    4     20.80      0.00
   11    1    2     15.50      0.00
   13    1    0    -10.68      0.00
  -15    1    2      0.14      0.00
  -17    1    4      4.23      0.00
  -19    1    6     -2.00      0.00
  -21    1    8      0.10      0.00
  -23    1   10    -13.66      0.00
  -25    1   12      3.23      0.00
  -27    1   14      0.94      0.00
  -29    1   16     -4.56      0.00
  -12    2   25     -6.84      0.00
  -10    2   23     -3.52      0.00
   -8    2   21      3.32      0.00
   -6    2   19      4.94      0.00
   -4    2   17     -1.17      0.00
   -2    2   15     -2.16      0.00
    0    2   13    -20.02      0.00
    2    2   11     -9.65      0.00
    4    2    9    -23.33      0.00
    6    2    7     14.90      0.00
    8    2    5     27.04      0.00
   10    2    3    -14.78      0.00
   12    2    1      8.87      0.00
  -14    2    1      1.04      0.00
  -16    2    3    -10.40      0.00
  -18    2    5     -0.39      0.00
  -20    2    7     -0.18      0.00
  -22    2    9      2.94      0.00
  -24    2   11     -4.93      0.00
  -26    2   13    -10.93      0.00
  -28    2   15      6.76      0.00
  -30    2   17      0.64      0.00
  -11    3   24      3.59      0.00
   -9    3   22      1.24      0.00
   -7    3   20      2.11      0.00
   -5    3   18     15.66      0.00
   -3    3   16      9.77      0.00
   -1    3   14    -12.54      0.00
    1    3   12    -15.37      0.00
    3    3   10    -11.38      0.00
    5    3    8      1.59      0.00
    7    3    6    -16.30      0.00
    9    3    4     33.84      0.00
   11    3    2     38.76      0.00
   13    3    0     17.85      0.00
  -15    3    2    -12.62      0.00
  -17    3    4     -8.52      0.00
  -19    3    6      3.63      0.00
  -21    3    8      9.01      0.00
  -23    3   10    -14.94      0.00
  -25    3   12      1.05      0.00
  -27    3   14      1.83      0.00
  -29    3   16     -1.48      0.00
  -10    4   23     -3.61      0.00
   -8    4   21      6.30      0.00
   -6    4   19      6.51      0.00
   -4    4   17     -5.07      0.00
   -2    4   15     -2.31      0.00
    0    4   13    -18.94      0.00
    2    4   11    -15.63      0.00
    4    4    9    -16.21      0.00
    6    4    7     20.16      0.00
    8    4    5     20.23      0.00
   10    4    3    -18.18      0.00
   12    4    1      7.16      0.00
  -14    4    1    -18.01      0.00
  -16    4    3    -18.79      0.00
  -18    4    5      2.56      0.00
  -20    4    7      1.11      0.00
  -22    4    9      1.08      0.00
  -24    4   11     -1.94      0.00
  -26    4   13    -10.08      0.00
  -28    4   15      4.99      0.00
  -30    4   17      1.58      0.00
  -11    5   24     -0.14      0.00
   -9    5   22     -4.04      0.00
   -7    5   20     -0.82      0.00
   -5    5   18     14.30      0.00
   -3    5   16     -2.86      0.00
   -1    5   14    -26.25      0.00
    1    5   12     -4.83      0.00
    3    5   10      1.70      0.00
    5    5    8     -5.78      0.00
    7    5    6    -16.83      0.00
    9    5    4     22.91      0.00
   11    5    2     11.88      0.00
   13    5    0     -0.72      0.00
  -15    5    2     -3.71      0.00
  -17    5    4      0.63      0.00
  -19    5    6     -0.77      0.00
  -21    5    8      5.02      0.00
  -23    5   10    -12.82      0.00
  -25    5   12      2.41      0.00
  -27    5   14      0.74      0.00
  -29    5   16     -5.39      0.00
  -10    6   23     -7.49      0.00
   -8    6   21      4.85      0.00
   -6    6   19      9.15      0.00
   -4    6   17     -5.54      0.00
   -2    6   15     -2.14      0.00
    0    6   13     -8.71      0.00
    2    6   11      4.69      0.00
    4    6    9      2.44      0.00
    6    6    7     22.58      0.00
    8    6    5     22.56      0.00
   10    6    3    -16.48      0.00
   12    6    1     -8.78      0.00
  -14    6    1    -12.15      0.00
  -16    6    3      3.62      0.00
  -18    6    5     13.27      0.00
  -20    6    7     -0.19      0.00
  -22    6    9      3.87      0.00
  -24    6   11      2.54      0.00
  -26    6   13    -11.05      0.00
  -28    6   15      0.94      0.00
  -30    6   17     -1.47      0.00
  -11    7   24      2.00      0.00
   -9    7   22     -5.28      0.00
   -7    7   20      0.99      0.00
   -5    7   18     18.51      0.00
   -3    7   16      1.37      0.00
   -1    7   14    -20.49      0.00
    1    7   12      7.11      0.00
    3    7   10     14.18      0.00
    5    7    8     20.25      0.00
    7    7    6      7.13      0.00
    9    7    4     22.64      0.00
   11    7    2      1.04      0.00
   13    7    0     -5.61      0.00
  -15    7    2     13.84      0.00
  -17    7    4      7.26      0.00
  -19    7    6      2.44      0.00
  -21    7    8     12.40      0.00
  -23    7   10     -4.27      0.00
  -25    7   12      3.52      0.00
  -27    7   14      1.46      0.00
  -29    7   16     -2.52      0.00
  -10    8   23     -3.15      0.00
   -8    8   21      6.94      0.00
   -6    8   19      6.07      0.00
   -4    8   17     -5.14      0.00
   -2    8   15      4.44      0.00
    0    8   13     -0.68      0.00
    2    8   11      9.23      0.00
    4    8    9      4.94      0.00
    6    8    7     22.96      0.00
    8    8    5     41.63      0.00
   10    8    3     15.45      0.00
   12    8    1     13.81      0.00
  -14    8    1      6.80      0.00
  -16    8    3      2.79      0.00
  -18    8    5      9.77      0.00
  -20    8    7     -0.78      0.00
  -22    8    9      7.25      0.00
  -24    8   11      2.76      0.00
  -26    8   13     -8.56      0.00
  -28    8   15      1.65      0.00
  -30    8   17     -0.81      0.00
  -11    9   24      2.29      0.00
   -9    9   22     -7.74      0.00
   -7    9   20     -4.63      0.00
   -5    9   18      7.38      0.00
   -3    9   16     -0.77      0.00
   -1    9   14    -14.45      0.00
    1    9   12     -3.61      0.00
    3    9   10     -2.89      0.00
    5    9    8     22.01      0.00
    7    9    6      9.27      0.00
    9    9    4     13.94      0.00
   11    9    2     10.41      0.00
   13    9    0     -4.94      0.00
  -15    9    2     -1.60      0.00
  -17    9    4     -7.61      0.00
  -19    9    6     -2.35      0.00
  -21    9    8      8.25      0.00
  -23    9   10     -8.80      0.00
  -25    9   12      0.11      0.00
  -27    9   14      0.92      0.00
  -29    9   16     -1.64      0.00
  -10   10   23     -1.94      0.00
   -8   10   21      4.14      0.00
   -6   10   19      1.15      0.00
   -4   10   17     -4.94      0.00
   -2   10   15      2.45      0.00
    0   10   13      0.12      0.00
    2   10   11     10.77      0.00
    4   10    9    -11.03      0.00
    6   10    7    -13.13      0.00
    8   10    5     24.47      0.00
   10   10    3      7.56      0.00
   12   10    1      1.70      0.00
  -14   10    1    -15.87      0.00
  -16   10    3     -9.79      0.00
  -18   10    5      1.10      0.00
  -20   10    7     -5.70      0.00
  -22   10    9      1.93      0.00
  -24   10   11      5.68      0.00
  -26   10   13     -4.25      0.00
  -28   10   15      1.01      0.00
  -11   11   24     -1.87      0.00
   -9   11   22     -9.26      0.00
   -7   11   20     -4.83      0.00
   -5   11   18      1.90      0.00
   -3   11   16     -1.65      0.00
   -1   11   14     -6.13      0.00
    1   11   12     -0.47      0.00
    3   11   10      3.34      0.00
    5   11    8     15.36      0.00
    7   11    6     -8.65      0.00
    9   11    4    -15.15      0.00
   11   11    2      0.25      0.00
   13   11    0    -13.11      0.00
  -15   11    2    -12.64      0.00
  -17   11    4     -7.70      0.00
  -19   11    6      0.20      0.00
  -21   11    8      6.44      0.00
  -23   11   10     -7.23      0.00
  -25   11   12      1.49      0.00
  -27   11   14     -2.54      0.00
  -29   11   16     -4.31      0.00
  -10   12   23     -3.17      0.00
   -8   12   21      1.87      0.00
   -6   12   19      3.89      0.00
   -4   12   17      3.97      0.00
   -2   12   15      3.25      0.00
    0   12   13      2.76      0.00
    2   12   11     20.46      0.00
    4   12    9      7.65      0.00
    6   12    7      1.41      0.00
    8   12    5     23.19      0.00
   10   12    3     -5.70      0.00
   12   12    1     -6.70      0.00
  -14   12    1    -12.51      0.00
  -16   12    3      0.45      0.00
  -18   12    5      1.54      0.00
  -20   12    7     -2.07      0.00
  -22   12    9      4.44      0.00
  -24   12   11      7.14      0.00
  -26   12   13     -6.07      0.00
  -28   12   15     -0.08      0.00
   -9   13   22     -5.87      0.00
   -7   13   20      2.38      0.00
   -5   13   18      5.31      0.00
   -3   13   16     -1.32      0.00
   -1   13   14     -4.48      0.00
    1   13   12      1.99      0.00
    3   13   10      8.31      0.00
    5   13    8     24.93      0.00
    7   13    6      6.71      0.00
    9   13    4     -9.90      0.00
   11   13    2     -5.24      0.00
   13   13    0     -6.48      0.00
  -15   13    2     -4.22      0.00
  -17   13    4     -6.07      0.00
  -19   13    6     -2.37      0.00
  -21   13    8     14.31      0.00
  -23   13   10      2.57      0.00
  -25   13   12     -1.15      0.00
  -27   13   14     -3.61      0.00
  -29   13   16     -1.40      0.00
  -10   14   23     -2.98      0.00
   -8   14   21      3.51      0.00
   -6   14   19      6.39      0.00
   -4   14   17      0.73      0.00
   -2   14   15     -4.11      0.00
    0   14   13     -5.38      0.00
    2   14   11     -0.38      0.00
    4   14    9     -4.66      0.00
    6   14    7      4.18      0.00
    8   14    5     12.98      0.00
   10   14    3    -13.32      0.00
   12   14    1     -8.34      0.00
  -14   14    1     -3.57      0.00
  -16   14    3      0.32      0.00
  -18   14    5      4.96      0.00
  -20   14    7      0.98      0.00
  -22   14    9      7.89      0.00
  -24   14   11      2.82      0.00
  -26   14   13     -4.47      0.00
  -28   14   15      3.21      0.00
   -9   15   22     -5.05      0.00
   -7   15   20     -0.78      0.00
   -5   15   18     -0.08      0.00
   -3   15   16    -11.63      0.00
   -1   15   14    -13.52      0.00
    1   15   12     -3.16      0.00
    3   15   10     -4.31      0.00
    5   15    8      5.72      0.00
    7   15    6      4.58      0.00
    9   15    4      0.72      0.00
   11   15    2     -8.06      0.00
   13   15    0    -12.71      0.00
  -15   15    2    -12.77      0.00
  -17   15    4     -5.72      0.00
  -19   15    6     -3.30      0.00
  -21   15    8      8.81      0.00
  -23   15   10      0.98      0.00
  -25   15   12      0.65      0.00
  -27   15   14      0.34      0.00
  -29   15   16     -3.37      0.00
  -10   16   23     -5.85      0.00
   -8   16   21      0.83      0.00
   -6   16   19      4.52      0.00
   -4   16   17     -3.33      0.00
   -2   16   15     -1.74      0.00
    0   16   13      1.17      0.00
    2   16   11      5.08      0.00
    4   16    9    -11.03      0.00
    6   16    7     -7.39      0.00
    8   16    5      8.27      0.00
   10   16    3     -3.44      0.00
   12   16    1     -5.34      0.00
  -14   16    1     -8.05      0.00
  -16   16    3     -5.92      0.00
  -18   16    5     11.03      0.00
  -20   16    7      4.06      0.00
  -22   16    9      4.55      0.00
  -24   16   11      4.35      0.00
  -26   16   13     -0.55      0.00
  -28   16   15      2.76      0.00
   -9   17   22     -0.14      0.00
   -7   17   20     -0.95      0.00
   -5   17   18      7.72      0.00
   -3   17   16      0.97      0.00
   -1   17   14     -0.98      0.00
    1   17   12      4.12      0.00
    3   17   10      4.85      0.00
    5   17    8      8.64      0.00
    7   17    6     -1.12      0.00
    9   17    4     -7.98      0.00
   11   17    2     -7.82      0.00
   13   17    0     -8.62      0.00
  -15   17    2     -9.44      0.00
  -17   17    4     -1.96      0.00
  -19   17    6      3.67      0.00
  -21   17    8      7.92      0.00
  -23   17   10      1.38      0.00
  -25   17   12      6.77      0.00
  -27   17   14     -0.85      0.00
   -8   18   21      0.41      0.00
   -6   18   19      5.26      0.00
   -4   18   17     -0.71      0.00
   -2   18   15      1.06      0.00
    0   18   13     -2.60      0.00
    2   18   11      3.98      0.00
    4   18    9     -7.69      0.00
    6   18    7     -3.94      0.00
    8   18    5      9.37      0.00
   10   18    3     -1.17      0.00
   12   18    1     -4.67      0.00
  -14   18    1      0.66      0.00
  -16   18    3      0.15      0.00
  -18   18    5      1.55      0.00
  -20   18    7      6.34      0.00
  -22   18    9      7.80      0.00
  -24   18   11      4.36      0.00
  -26   18   13     -4.69      0.00
  -28   18   15     -1.00      0.00
   -9   19   22      2.38      0.00
   -7   19   20     -2.29      0.00
   -5   19   18      6.78      0.00
   -3   19   16     -1.71      0.00
   -1   19   14     -5.10      0.00
    1   19   12     -1.90      0.00
    3   19   10      1.86      0.00
    5   19    8     13.28      0.00
    7   19    6     -0.83      0.00
    9   19    4     -6.37      0.00
   11   19    2     -4.20      0.00
   13   19    0     -3.06      0.00
  -15   19    2     -3.27      0.00
  -17   19    4     -8.44      0.00
  -19   19    6     -7.24      0.00
  -21   19    8      4.38      0.00
  -23   19   10     -0.87      0.00
  -25   19   12     -0.17      0.00
  -27   19   14     -5.67      0.00
   -8   20   21      3.05      0.00
   -6   20   19      5.65      0.00
   -4   20   17     -5.76      0.00
   -2   20   15     -4.89      0.00
    0   20   13     -7.74      0.00
    2   20   11     -4.40      0.00
    4   20    9    -16.25      0.00
    6   20    7     -9.15      0.00
    8   20    5      4.91      0.00
   10   20    3     -8.63      0.00
   12   20    1    -12.20      0.00
  -14   20    1     -3.31      0.00
  -16   20    3     -2.52      0.00
  -18   20    5     -8.46      0.00
  -20   20    7     -1.31      0.00
  -22   20    9      2.50      0.00
  -24   20   11     -1.13      0.00
  -26   20   13     -4.78      0.00
   -7   21   20      5.02      0.00
   -5   21   18      5.88      0.00
   -3   21   16     -3.86      0.00
   -1   21   14     -2.37      0.00
    1   21   12      6.51      0.00
    3   21   10      2.15      0.00
    5   21    8      2.17      0.00
    7   21    6     -3.17      0.00
    9   21    4      5.79      0.00
   11   21    2     -1.43      0.00
   13   21    0     -6.39      0.00
  -15   21    2     -4.96      0.00
  -17   21    4      2.45      0.00
  -19   21    6     -2.55      0.00
  -21   21    8     -0.25      0.00
  -23   21   10     -2.83      0.00
  -25   21   12     -1.58      0.00
  -27   21   14     -4.09      0.00
   -8   22   21      3.19      0.00
   -6   22   19      6.40      0.00
   -4   22   17     -3.26      0.00
   -2   22   15      1.04      0.00
    0   22   13      2.96      0.00
    2   22   11      7.67      0.00
    4   22    9     -5.33      0.00
    6   22    7      2.57      0.00
    8   22    5     12.11      0.00
   10   22    3     -1.21      0.00
   12   22    1     -0.67      0.00
  -14   22    1     -1.34      0.00
  -16   22    3     -1.44      0.00
  -18   22    5      1.31      0.00
  -20   22    7      1.20      0.00
  -22   22    9      0.35      0.00
  -24   22   11      0.13      0.00
  -26   22   13     -1.01      0.00
   -7   23   20      1.92      0.00
   -5   23   18      4.91      0.00
   -3   23   16      5.95      0.00
   -1   23   14      5.24      0.00
    1   23   12      9.42      0.00
    3   23   10      6.88      0.00
    5   23    8      5.46      0.00
    7   23    6     -2.12      0.00
    9   23    4      7.00      0.00
   11   23    2      6.49      0.00
   13   23    0      4.84      0.00
  -15   23    2      1.10      0.00
  -17   23    4      7.14      0.00
  -19   23    6      3.98      0.00
  -21   23    8      3.95      0.00
  -23   23   10     -0.83      0.00
  -25   23   12     -0.38      0.00
   -6   24   19      4.56      0.00
   -4   24   17      4.10      0.00
   -2   24   15      0.98      0.00
    0   24   13     -2.11      0.00
    2   24   11      4.88      0.00
    4   24    9     -6.57      0.00
    6   24    7      1.83      0.00
    8   24    5      2.95      0.00
   10   24    3     -6.61      0.00
   12   24    1     -2.44      0.00
  -14   24    1      0.28      0.00
  -16   24    3     -6.23      0.00
  -18   24    5     -1.21      0.00
  -20   24    7      2.27      0.00
  -22   24    9      5.12      0.00
  -24   24   11      1.73      0.00
  -26   24   13     -3.98      0.00
   -7   25   20     -1.96      0.00
   -5   25   18      0.72      0.00
   -3   25   16     -0.03      0.00
   -1   25   14     -6.15      0.00
    1   25   12     -4.37      0.00
    3   25   10      1.48      0.00
    5   25    8      2.99      0.00
    7   25    6     -7.33      0.00
    9   25    4      2.47      0.00
   11   25    2      5.82      0.00
   13   25    0      5.77      0.00
  -15   25    2      2.00      0.00
  -17   25    4     -1.32      0.00
  -19   25    6     -1.13      0.00
  -21   25    8      3.79      0.00
  -23   25   10     -1.38      0.00
  -25   25   12     -0.64      0.00
   -6   26   19      3.74      0.00
   -4   26   17     -0.83      0.00
   -2   26   15     -4.81      0.00
    0   26   13     -3.55      0.00
    2   26   11      3.09      0.00
    4   26    9     -7.44      0.00
    6   26    7      3.41      0.00
    8   26    5      9.61      0.00
   10   26    3     -1.04      0.00
   12   26    1     -1.37      0.00
  -14   26    1      5.09      0.00
  -16   26    3     -3.35      0.00
  -18   26    5      0.68      0.00
  -20   26    7     -1.92      0.00
  -22   26    9      0.14      0.00
  -24   26   11      2.54      0.00
   -5   27   18      3.16      0.00
   -3   27   16     -2.83      0.00
   -1   27   14     -0.91      0.00
    1   27   12     -1.28      0.00
    3   27   10      3.10      0.00
    5   27    8      2.11      0.00
    7   27    6     -7.09      0.00
    9   27    4      3.29      0.00
   11   27    2      3.96      0.00
   13   27    0     -2.10      0.00
  -15   27    2      1.90      0.00
  -17   27    4      3.85      0.00
  -19   27    6      1.64      0.00
  -21   27    8      3.62      0.00
  -23   27   10     -1.40      0.00
   -4   28   17     -4.07      0.00
   -2   28   15     -1.62      0.00
    0   28   13      2.46      0.00
    2   28   11      3.42      0.00
    4   28    9     -8.75      0.00
    6   28    7      0.35      0.00
    8   28    5      8.09      0.00
   10   28    3     -3.48      0.00
   12   28    1     -0.34      0.00
  -14   28    1      4.34      0.00
  -16   28    3      0.87      0.00
  -18   28    5      2.40      0.00
  -20   28    7     -3.77      0.00
  -22   28    9     -3.73      0.00
  -24   28   11      1.53      0.00
   -3   29   16     -4.41      0.00
   -1   29   14     -1.42      0.00
    1   29   12     -0.71      0.00
    3   29   10     -2.15      0.00
    5   29    8     -1.06      0.00
    7   29    6     -7.59      0.00
    9   29    4     -1.28      0.00
   11   29    2      2.54      0.00
   13   29    0     -4.43      0.00
  -15   29    2      0.13      0.00
  -17   29    4      2.01      0.00
  -19   29    6     -3.41      0.00
  -21   29    8      0.93      0.00
  -23   29   10     -4.49      0.00
   -4   30   17     -3.38      0.00
   -2   30   15     -1.64      0.00
    0   30   13     -4.57      0.00
    2   30   11     -0.03      0.00
    4   30    9     -8.13      0.00
    6   30    7     -1.44      0.00
    8   30    5      4.02      0.00
   10   30    3     -9.15      0.00
   12   30    1     -1.20      0.00
  -14   30    1      2.35      0.00
  -16   30    3     -4.71      0.00
  -18   30    5      0.90      0.00
  -20   30    7     -0.88      0.00
  -22   30    9      1.96      0.00
   -3   31   16     -0.53      0.00
   -1   31   14     -5.48      0.00
    1   31   12     -1.90      0.00
    3   31   10     -3.26      0.00
    5   31    8     -1.58      0.00
    7   31    6     -6.45      0.00
    9   31    4      2.04      0.00
   11   31    2      6.68      0.00
   13   31    0      0.18      0.00
  -15   31    2      2.30      0.00
  -17   31    4     -1.39      0.00
  -19   31    6     -6.89      0.00
  -21   31    8     -2.51      0.00
   -2   32   15     -0.71      0.00
    0   32   13     -7.85      0.00
    2   32   11     -2.41      0.00
    4   32    9      1.02      0.00
    6   32    7      6.56      0.00
    8   32    5     11.68      0.00
   10   32    3      0.02      0.00
   12   32    1      5.18      0.00
  -14   32    1      9.94      0.00
  -16   32    3     -2.18      0.00
  -18   32    5      5.81      0.00
  -20   32    7      1.35      0.00
   -1   33   14     -4.06      0.00
    1   33   12      3.05      0.00
    3   33   10      4.50      0.00
    5   33    8      1.52      0.00
    7   33    6     -4.16      0.00
    9   33    4      6.16      0.00
   11   33    2      8.43      0.00
   13   33    0     -2.15      0.00
  -15   33    2      8.64      0.00
  -17   33    4      2.32      0.00
  -19   33    6     -7.53      0.00
    0   34   13      1.14      0.00
    2   34   11      0.29      0.00
    4   34    9     -4.30      0.00
    6   34    7      0.78      0.00
    8   34    5      6.19      0.00
   10   34    3     -4.16      0.00
   12   34    1     -1.95      0.00
  -14   34    1      4.88      0.00
  -16   34    3     -2.08      0.00
  -18   34    5      6.00      0.00
    1   35   12      3.38      0.00
    3   35   10      3.23      0.00
    5   35    8      0.29      0.00
    7   35    6     -3.14      0.00
    9   35    4      1.99      0.00
   11   35    2      4.54      0.00
   13   35    0     -1.49      0.00
  -15   35    2      8.21      0.00
  -17   35    4      4.44      0.00
    2   36   11      0.10      0.00
    4   36    9     -8.39      0.00
    6   36    7     -0.17      0.00
    8   36    5      6.89      0.00
   10   36    3      0.59      0.00
   12   36    1      1.01      0.00
  -14   36    1      0.84      0.00
  -16   36    3     -7.94      0.00
    3   37   10     -0.30      0.00
    5   37    8      1.68      0.00
    7   37    6     -0.56      0.00
    9   37    4      9.90      0.00
   11   37    2      9.74      0.00
   13   37    0      4.95      0.00
  -15   37    2      6.87      0.00
    6   38    7     -1.46      0.00
    8   38    5      4.76      0.00
   10   38    3      4.47      0.00
   12   38    1      2.86      0.00
  -14   38    1      1.33      0.00
  -10    0   24     -1.77      0.00
   -8    0   22     17.26      0.00
   -6    0   20      0.52      0.00
   -4    0   18     -0.35      0.00
   -2    0   16     17.70      0.00
    0    0   14     12.21      0.00
    2    0   12      3.18      0.00
    4    0   10    -19.80      0.00
    8    0    6     12.52      0.00
   10    0    4      7.91      0.00
   12    0    2      9.45      0.00
   14    0    0     22.62      0.00
  -16    0    2     13.63      0.00
  -18    0    4      9.20      0.00
  -20    0    6     -9.90      0.00
  -22    0    8      9.38      0.00
  -24    0   10     -0.73      0.00
  -26    0   12     -0.82      0.00
  -28    0   14      0.28      0.00
  -30    0   16     -6.26      0.00
   -9    1   23     -6.84      0.00
   -7    1   21      2.83      0.00
   -5    1   19     16.41      0.00
   -3    1   17     -3.95      0.00
   -1    1   15     -7.63      0.00
    1    1   13     13.99      0.00
    3    1   11     17.21      0.00
    5    1    9      4.38      0.00
    7    1    7      5.53      0.00
    9    1    5     10.40      0.00
   11    1    3     15.12      0.00
   13    1    1     11.34      0.00
  -15    1    1     24.92      0.00
  -17    1    3     -1.67      0.00
  -19    1    5      6.91      0.00
  -21    1    7      7.59      0.00
  -23    1    9     -7.21      0.00
  -25    1   11      1.00      0.00
  -27    1   13     -3.39      0.00
  -29    1   15     -1.31      0.00
  -10    2   24     -3.68      0.00
   -8    2   22      7.54      0.00
   -6    2   20     -4.99      0.00
   -4    2   18     -0.93      0.00
   -2    2   16      6.83      0.00
    0    2   14     -4.02      0.00
    2    2   12     -3.94      0.00
    4    2   10     -7.70      0.00
    6    2    8    -11.86      0.00
    8    2    6    -17.65      0.00
   10    2    4    -16.87      0.00
   12    2    2      2.18      0.00
   14    2    0     -2.89      0.00
  -16    2    2      2.98      0.00
  -18    2    4     11.99      0.00
  -20    2    6    -11.63      0.00
  -22    2    8      1.19      0.00
  -24    2   10     -4.29      0.00
  -26    2   12     -2.70      0.00
  -28    2   14      1.15      0.00
  -30    2   16     -4.18      0.00
   -9    3   23     -7.69      0.00
   -7    3   21     -2.94      0.00
   -5    3   19     12.27      0.00
   -3    3   17     -1.87      0.00
   -1    3   15    -10.44      0.00
    1    3   13      3.89      0.00
    3    3   11     21.40      0.00
    5    3    9      9.68      0.00
    7    3    7    -14.38      0.00
    9    3    5    -25.30      0.00
   11    3    3     -4.12      0.00
   13    3    1     -6.41      0.00
  -15    3    1      0.56      0.00
  -17    3    3      2.89      0.00
  -19    3    5     13.78      0.00
  -21    3    7      5.19      0.00
  -23    3    9    -10.31      0.00
  -25    3   11      3.16      0.00
  -27    3   13     -2.56      0.00
  -29    3   15     -0.09      0.00
  -10    4   24     -0.28      0.00
   -8    4   22      5.79      0.00
   -6    4   20     -4.62      0.00
   -4    4   18     -0.16      0.00
   -2    4   16      4.08      0.00
    0    4   14     -0.25      0.00
    2    4   12      2.95      0.00
    4    4   10      3.70      0.00
    6    4    8     -1.34      0.00
    8    4    6    -18.37      0.00
   10    4    4    -18.05      0.00
   12    4    2      2.59      0.00
   14    4    0    -15.21      0.00
  -16    4    2      5.61      0.00
  -18    4    4     14.37      0.00
  -20    4    6     -9.29      0.00
  -22    4    8      1.94      0.00
  -24    4   10     -2.42      0.00
  -26    4   12     -3.94      0.00
  -28    4   14      3.59      0.00
  -30    4   16     -1.60      0.00
   -9    5   23     -2.70      0.00
   -7    5   21      2.99      0.00
   -5    5   19      7.74      0.00
   -3    5   17     -7.32      0.00
   -1    5   15     -1.45      0.00
    1    5   13     16.48      0.00
    3    5   11     15.35      0.00
    5    5    9     -4.00      0.00
    7    5    7      0.95      0.00
    9    5    5      1.39      0.00
   11    5    3      5.09      0.00
   13    5    1      1.00      0.00
  -15    5    1     15.46      0.00
  -17    5    3      3.97      0.00
  -19    5    5      5.33      0.00
  -21    5    7      1.44      0.00
  -23    5    9     -6.23      0.00
  -25    5   11      6.64      0.00
  -27    5   13     -2.81      0.00
  -29    5   15     -3.68      0.00
  -10    6   24     -0.14      0.00
   -8    6   22      7.70      0.00
   -6    6   20     -3.75      0.00
   -4    6   18     -3.88      0.00
   -2    6   16      3.59      0.00
    0    6   14      8.45      0.00
    2    6   12      7.48      0.00
    4    6   10     -6.29      0.00
    6    6    8     -1.93      0.00
    8    6    6      4.82      0.00
   10    6    4      1.17      0.00
   12    6    2     10.11      0.00
   14    6    0      6.64      0.00
  -16    6    2      7.14      0.00
  -18    6    4      5.86      0.00
  -20    6    6     -8.30      0.00
  -22    6    8      6.97      0.00
  -24    6   10     -2.70      0.00
  -26    6   12     -5.16      0.00
  -28    6   14      4.45      0.00
  -30    6   16     -1.49      0.00
   -9    7   23     -5.95      0.00
   -7    7   21      2.61      0.00
   -5    7   19      5.58      0.00
   -3    7   17    -10.86      0.00
   -1    7   15     -5.07      0.00
    1    7   13     14.29      0.00
    3    7   11      4.63      0.00
    5    7    9    -13.33      0.00
    7    7    7     -8.36      0.00
    9    7    5    -10.10      0.00
   11    7    3    -10.13      0.00
   13    7    1     -5.32      0.00
  -15    7    1     12.29      0.00
  -17    7    3     -9.32      0.00
  -19    7    5     -2.28      0.00
  -21    7    7      2.45      0.00
  -23    7    9     -2.16      0.00
  -25    7   11      8.44      0.00
  -27    7   13     -2.71      0.00
  -29    7   15     -3.80      0.00
  -10    8   24     -5.49      0.00
   -8    8   22      1.44      0.00
   -6    8   20     -6.53      0.00
   -4    8   18     -3.88      0.00
   -2    8   16      0.64      0.00
    0    8   14      0.33      0.00
    2    8   12      4.36      0.00
    4    8   10      0.93      0.00
    6    8    8     -6.02      0.00
    8    8    6     -8.86      0.00
   10    8    4    -13.52      0.00
   12    8    2      3.74      0.00
   14    8    0      8.39      0.00
  -16    8    2     -5.11      0.00
  -18    8    4      1.64      0.00
  -20    8    6     -9.55      0.00
  -22    8    8      4.06      0.00
  -24    8   10     -9.00      0.00
  -26    8   12     -4.68      0.00
  -28    8   14      7.50      0.00
  -30    8   16     -0.53      0.00
   -9    9   23     -7.34      0.00
   -7    9   21     -1.80      0.00
   -5    9   19      5.69      0.00
   -3    9   17     -6.45      0.00
   -1    9   15     -6.36      0.00
    1    9   13      8.27      0.00
    3    9   11      9.80      0.00
    5    9    9      6.53      0.00
    7    9    7     -2.86      0.00
    9    9    5    -18.28      0.00
   11    9    3     -6.75      0.00
   13    9    1    -12.28      0.00
  -15    9    1      6.68      0.00
  -17    9    3     -4.39      0.00
  -19    9    5     -1.11      0.00
  -21    9    7      0.76      0.00
  -23    9    9     -4.44      0.00
  -25    9   11      5.71      0.00
  -27    9   13     -3.57      0.00
  -29    9   15     -2.75      0.00
  -10   10   24     -2.58      0.00
   -8   10   22      3.99      0.00
   -6   10   20     -1.22      0.00
   -4   10   18      1.51      0.00
   -2   10   16      3.06      0.00
    0   10   14      0.47      0.00
    2   10   12      7.65      0.00
    4   10   10      7.79      0.00
    6   10    8     -1.66      0.00
    8   10    6      3.88      0.00
   10   10    4     -1.61      0.00
   12   10    2      4.83      0.00
   14   10    0     -1.67      0.00
  -16   10    2     -0.72      0.00
  -18   10    4      3.01      0.00
  -20   10    6    -14.24      0.00
  -22   10    8      0.23      0.00
  -24   10   10     -4.55      0.00
  -26   10   12     -4.46      0.00
  -28   10   14      7.24      0.00
  -30   10   16     -0.62      0.00
   -9   11   23     -2.20      0.00
   -7   11   21     -1.55      0.00
   -5   11   19      3.07      0.00
   -3   11   17    -10.31      0.00
   -1   11   15    -11.23      0.00
    1   11   13      0.89      0.00
    3   11   11      1.04      0.00
    5   11    9     -4.95      0.00
    7   11    7      1.00      0.00
    9   11    5     -5.40      0.00
   11   11    3     11.78      0.00
   13   11    1     -8.35      0.00
  -15   11    1     12.79      0.00
  -17   11    3      1.27      0.00
  -19   11    5     -1.72      0.00
  -21   11    7     -4.63      0.00
  -23   11    9     -5.87      0.00
  -25   11   11      4.32      0.00
  -27   11   13     -6.32      0.00
  -29   11   15     -2.90      0.00
   -8   12   22      3.96      0.00
   -6   12   20     -4.68      0.00
   -4   12   18     -6.81      0.00
   -2   12   16     -5.09      0.00
    0   12   14     -2.70      0.00
    2   12   12     -3.27      0.00
    4   12   10     -9.13      0.00
    6   12    8    -13.10      0.00
    8   12    6      6.70      0.00
   10   12    4      6.44      0.00
   12   12    2     12.59      0.00
   14   12    0      0.89      0.00
  -16   12    2     -4.14      0.00
  -18   12    4     -3.31      0.00
  -20   12    6    -11.89      0.00
  -22   12    8     -0.07      0.00
  -24   12   10     -5.73      0.00
  -26   12   12     -7.38      0.00
  -28   12   14      5.78      0.00
   -9   13   23     -3.75      0.00
   -7   13   21     -4.40      0.00
   -5   13   19     -3.23      0.00
   -3   13   17    -11.91      0.00
   -1   13   15     -8.95      0.00
    1   13   13      3.99      0.00
    3   13   11      3.44      0.00
    5   13    9     -7.07      0.00
    7   13    7     -6.13      0.00
    9   13    5     -7.50      0.00
   11   13    3     15.78      0.00
   13   13    1      5.40      0.00
  -15   13    1     12.75      0.00
  -17   13    3     -5.74      0.00
  -19   13    5     -3.15      0.00
  -21   13    7      0.45      0.00
  -23   13    9     -5.63      0.00
  -25   13   11      3.41      0.00
  -27   13   13     -5.48      0.00
  -29   13   15     -2.30      0.00
   -8   14   22      4.83      0.00
   -6   14   20     -1.90      0.00
   -4   14   18     -3.40      0.00
   -2   14   16      2.57      0.00
    0   14   14     10.59      0.00
    2   14   12      1.41      0.00
    4   14   10     -1.47      0.00
    6   14    8     -2.58      0.00
    8   14    6      2.80      0.00
   10   14    4     -5.00      0.00
   12   14    2     12.16      0.00
   14   14    0     13.54      0.00
  -16   14    2      1.47      0.00
  -18   14    4      6.79      0.00
  -20   14    6     -0.93      0.00
  -22   14    8      8.64      0.00
  -24   14   10     -8.30      0.00
  -26   14   12     -1.46      0.00
  -28   14   14      9.30      0.00
   -9   15   23     -6.08      0.00
   -7   15   21     -0.74      0.00
   -5   15   19     -0.66      0.00
   -3   15   17     -8.37      0.00
   -1   15   15     -5.42      0.00
    1   15   13      6.59      0.00
    3   15   11      8.94      0.00
    5   15    9      5.04      0.00
    7   15    7      8.01      0.00
    9   15    5      4.15      0.00
   11   15    3     18.20      0.00
   13   15    1     12.64      0.00
  -15   15    1     21.31      0.00
  -17   15    3     10.58      0.00
  -19   15    5      0.33      0.00
  -21   15    7      1.47      0.00
  -23   15    9     -1.64      0.00
  -25   15   11      8.19      0.00
  -27   15   13     -3.87      0.00
  -29   15   15     -4.51      0.00
   -8   16   22      5.57      0.00
   -6   16   20      1.14      0.00
   -4   16   18     -1.35      0.00
   -2   16   16      0.31      0.00
    0   16   14      3.08      0.00
    2   16   12     -1.66      0.00
    4   16   10     -1.18      0.00
    6   16    8      4.36      0.00
    8   16    6     11.54      0.00
   10   16    4      0.91      0.00
   12   16    2      9.77      0.00
   14   16    0     13.18      0.00
  -16   16    2      9.93      0.00
  -18   16    4     16.61      0.00
  -20   16    6     -7.18      0.00
  -22   16    8      5.20      0.00
  -24   16   10     -3.37      0.00
  -26   16   12      0.73      0.00
  -28   16   14      6.55      0.00
   -7   17   21      3.54      0.00
   -5   17   19      3.48      0.00
   -3   17   17    -11.62      0.00
   -1   17   15    -11.23      0.00
    1   17   13     -3.11      0.00
    3   17   11     -2.40      0.00
    5   17    9     -8.54      0.00
    7   17    7     -4.45      0.00
    9   17    5     -4.64      0.00
   11   17    3      9.07      0.00
   13   17    1      0.80      0.00
  -15   17    1     14.46      0.00
  -17   17    3      5.65      0.00
  -19   17    5     -0.50      0.00
  -21   17    7     -3.50      0.00
  -23   17    9     -4.28      0.00
  -25   17   11      6.66      0.00
  -27   17   13     -5.39      0.00
   -8   18   22      6.46      0.00
   -6   18   20     -0.58      0.00
   -4   18   18     -3.00      0.00
   -2   18   16     -3.63      0.00
    0   18   14     -5.34      0.00
    2   18   12     -6.77      0.00
    4   18   10     -8.14      0.00
    6   18    8     -8.13      0.00
    8   18    6      1.89      0.00
   10   18    4     -1.21      0.00
   12   18    2      3.16      0.00
   14   18    0      4.47      0.00
  -16   18    2      1.63      0.00
  -18   18    4     11.24      0.00
  -20   18    6     -4.58      0.00
  -22   18    8      1.69      0.00
  -24   18   10     -4.72      0.00
  -26   18   12     -2.57      0.00
  -28   18   14      5.81      0.00
   -7   19   21      0.49      0.00
   -5   19   19      4.12      0.00
   -3   19   17     -8.19      0.00
   -1   19   15     -3.72      0.00
    1   19   13      5.33      0.00
    3   19   11      6.73      0.00
    5   19    9     -2.35      0.00
    7   19    7     -9.13      0.00
    9   19    5     -3.87      0.00
   11   19    3     12.19      0.00
   13   19    1      3.66      0.00
  -15   19    1     10.91      0.00
  -17   19    3     -6.59      0.00
  -19   19    5      3.12      0.00
  -21   19    7      3.99      0.00
  -23   19    9     -7.04      0.00
  -25   19   11      2.05      0.00
  -27   19   13     -4.20      0.00
   -6   20   20      0.48      0.00
   -4   20   18      1.57      0.00
   -2   20   16      7.14      0.00
    0   20   14      8.84      0.00
    2   20   12      0.52      0.00
    4   20   10     -5.31      0.00
    6   20    8      0.48      0.00
    8   20    6      9.11      0.00
   10   20    4     -7.90      0.00
   12   20    2     -1.50      0.00
   14   20    0      7.20      0.00
  -16   20    2      4.71      0.00
  -18   20    4      6.42      0.00
  -20   20    6     -3.04      0.00
  -22   20    8      3.89      0.00
  -24   20   10     -5.47      0.00
  -26   20   12     -1.75      0.00
   -7   21   21      1.54      0.00
   -5   21   19      3.97      0.00
   -3   21   17     -2.08      0.00
   -1   21   15     -0.89      0.00
    1   21   13      5.72      0.00
    3   21   11      5.25      0.00
    5   21    9     -4.50      0.00
    7   21    7     -7.93      0.00
    9   21    5     -1.14      0.00
   11   21    3      6.85      0.00
   13   21    1     -1.16      0.00
  -15   21    1      7.40      0.00
  -17   21    3     -4.03      0.00
  -19   21    5      1.10      0.00
  -21   21    7      2.48      0.00
  -23   21    9     -2.57      0.00
  -25   21   11      6.14      0.00
  -27   21   13     -4.61      0.00
   -6   22   20      0.49      0.00
   -4   22   18     -4.22      0.00
   -2   22   16     -3.65      0.00
    0   22   14     -1.75      0.00
    2   22   12     -8.24      0.00
    4   22   10    -10.81      0.00
    6   22    8      3.07      0.00
    8   22    6      8.86      0.00
   10   22    4    -10.24      0.00
   12   22    2     -0.48      0.00
   14   22    0      3.48      0.00
  -16   22    2      3.93      0.00
  -18   22    4      0.98      0.00
  -20   22    6    -13.31      0.00
  -22   22    8      0.39      0.00
  -24   22   10     -3.95      0.00
  -26   22   12     -1.28      0.00
   -5   23   19      4.28      0.00
   -3   23   17     -2.15      0.00
   -1   23   15     -8.07      0.00
    1   23   13     -0.74      0.00
    3   23   11      0.58      0.00
    5   23    9     -7.14      0.00
    7   23    7     -8.89      0.00
    9   23    5     -0.56      0.00
   11   23    3      6.27      0.00
   13   23    1     -2.59      0.00
  -15   23    1      6.06      0.00
  -17   23    3     -1.18      0.00
  -19   23    5      1.49      0.00
  -21   23    7      1.34      0.00
  -23   23    9     -1.76      0.00
  -25   23   11      7.19      0.00
   -6   24   20      6.66      0.00
   -4   24   18      1.22      0.00
   -2   24   16     -5.63      0.00
    0   24   14     -0.81      0.00
    2   24   12     -0.14      0.00
    4   24   10     -3.80      0.00
    6   24    8      0.92      0.00
    8   24    6      2.09      0.00
   10   24    4     -4.05      0.00
   12   24    2      2.71      0.00
   14   24    0     -0.68      0.00
  -16   24    2     -1.07      0.00
  -18   24    4      5.87      0.00
  -20   24    6     -5.31      0.00
  -22   24    8      3.73      0.00
  -24   24   10     -3.45      0.00
  -26   24   12      0.09      0.00
   -5   25   19      3.65      0.00
   -3   25   17      0.54      0.00
   -1   25   15     -1.38      0.00
    1   25   13      5.76      0.00
    3   25   11      5.57      0.00
    5   25    9     -1.50      0.00
    7   25    7     -4.21      0.00
    9   25    5      1.77      0.00
   11   25    3      6.52      0.00
   13   25    1      1.24      0.00
  -15   25    1      9.49      0.00
  -17   25    3      1.59      0.00
  -19   25    5      6.03      0.00
  -21   25    7      3.76      0.00
  -23   25    9     -1.86      0.00
  -25   25   11      4.55      0.00
   -4   26   18     -2.44      0.00
   -2   26   16     -0.55      0.00
    0   26   14      6.09      0.00
    2   26   12      5.49      0.00
    4   26   10     -5.05      0.00
    6   26    8     -4.33      0.00
    8   26    6      3.79      0.00
   10   26    4     -0.82      0.00
   12   26    2      1.50      0.00
   14   26    0      0.17      0.00
  -16   26    2     -3.27      0.00
  -18   26    4      5.54      0.00
  -20   26    6     -3.88      0.00
  -22   26    8      0.60      0.00
  -24   26   10     -3.37      0.00
   -3   27   17     -0.01      0.00
   -1   27   15      4.50      0.00
    1   27   13      3.99      0.00
    3   27   11      2.73      0.00
    5   27    9     -2.51      0.00
    7   27    7     -5.85      0.00
    9   27    5     -6.78      0.00
   11   27    3     -2.96      0.00
   13   27    1     -6.93      0.00
  -15   27    1      4.58      0.00
  -17   27    3     -3.65      0.00
  -19   27    5     -2.33      0.00
  -21   27    7     -3.26      0.00
  -23   27    9      0.09      0.00
   -4   28   18     -3.34      0.00
   -2   28   16      2.27      0.00
    0   28   14      1.85      0.00
    2   28   12     -0.42      0.00
    4   28   10     -7.50      0.00
    6   28    8     -6.62      0.00
    8   28    6      0.24      0.00
   10   28    4     -4.14      0.00
   12   28    2     -0.16      0.00
   14   28    0     -0.56      0.00
  -16   28    2     -2.66      0.00
  -18   28    4     -2.64      0.00
  -20   28    6     -7.15      0.00
  -22   28    8     -2.89      0.00
  -24   28   10     -2.15      0.00
   -3   29   17     -2.28      0.00
   -1   29   15     -2.00      0.00
    1   29   13      2.64      0.00
    3   29   11      3.40      0.00
    5   29    9      6.55      0.00
    7   29    7      4.51      0.00
    9   29    5     -2.08      0.00
   11   29    3      3.32      0.00
   13   29    1      0.30      0.00
  -15   29    1     12.13      0.00
  -17   29    3     -0.07      0.00
  -19   29    5     -3.82      0.00
  -21   29    7     -4.04      0.00
  -23   29    9     -1.53      0.00
   -2   30   16      3.29      0.00
    0   30   14      3.32      0.00
    2   30   12      5.59      0.00
    4   30   10      2.55      0.00
    6   30    8      0.60      0.00
    8   30    6      0.54      0.00
   10   30    4     -1.95      0.00
   12   30    2      4.18      0.00
   14   30    0     -1.50      0.00
  -16   30    2     -1.19      0.00
  -18   30    4      2.28      0.00
  -20   30    6      2.03      0.00
  -22   30    8      7.39      0.00
   -1   31   15     -2.76      0.00
    1   31   13      9.13      0.00
    3   31   11      8.23      0.00
    5   31    9      5.14      0.00
    7   31    7      1.33      0.00
    9   31    5     -2.50      0.00
   11   31    3      0.39      0.00
   13   31    1     -1.96      0.00
  -15   31    1      7.31      0.00
  -17   31    3      0.75      0.00
  -19   31    5      0.46      0.00
  -21   31    7     -3.39      0.00
    0   32   14      1.34      0.00
    2   32   12      5.12      0.00
    4   32   10      1.64      0.00
    6   32    8     -2.32      0.00
    8   32    6      0.76      0.00
   10   32    4     -1.55      0.00
   12   32    2      0.91      0.00
   14   32    0     -2.32      0.00
  -16   32    2     -3.07      0.00
  -18   32    4      3.89      0.00
  -20   32    6      3.37      0.00
    1   33   13      2.16      0.00
    3   33   11      1.99      0.00
    5   33    9     -1.58      0.00
    7   33    7     -1.11      0.00
    9   33    5      0.21      0.00
   11   33    3      0.25      0.00
   13   33    1     -3.67      0.00
  -15   33    1      5.27      0.00
  -17   33    3     -2.69      0.00
  -19   33    5      1.54      0.00
    2   34   12      1.52      0.00
    4   34   10     -4.66      0.00
    6   34    8     -1.44      0.00
    8   34    6      1.84      0.00
   10   34    4      0.11      0.00
   12   34    2      3.62      0.00
   14   34    0      5.05      0.00
  -16   34    2      0.69      0.00
  -18   34    4      0.05      0.00
    3   35   11     -6.12      0.00
    5   35    9     -3.53      0.00
    7   35    7     -0.46      0.00
    9   35    5      0.31      0.00
   11   35    3      3.74      0.00
   13   35    1      2.28      0.00
  -15   35    1      6.62      0.00
  -17   35    3     -2.20      0.00
    4   36   10     -2.43      0.00
    6   36    8      0.24      0.00
    8   36    6     -2.52      0.00
   10   36    4     -2.92      0.00
   12   36    2      3.56      0.00
   14   36    0      1.65      0.00
  -16   36    2      1.86      0.00
    5   37    9     -2.59      0.00
    7   37    7     -5.66      0.00
    9   37    5     -2.20      0.00
   11   37    3     -4.86      0.00
   13   37    1     -5.38      0.00
  -15   37    1      1.53      0.00
    8   38    6     -0.85      0.00
   10   38    4     -5.16      0.00
   12   38    2     -0.87      0.00
   -8    0   23     -6.39      0.00
   -6    0   21    -15.02      0.00
   -4    0   19      2.97      0.00
   -2    0   17      5.95      0.00
    0    0   15    -13.90      0.00
    2    0   13     -1.04      0.00
    4    0   11    -11.84      0.00
    6    0    9      7.10      0.00
    8    0    7      3.63      0.00
   10    0    5    -35.64      0.00
   12    0    3     -5.02      0.00
   14    0    1     -3.22      0.00
  -16    0    1    -17.75      0.00
  -18    0    3      3.66      0.00
  -20    0    5      9.32      0.00
  -22    0    7      8.98      0.00
  -24    0    9     -4.28      0.00
  -26    0   11     -8.61      0.00
  -28    0   13      3.63      0.00
  -30    0   15     -2.90      0.00
   -9    1   24     -5.86      0.00
   -7    1   22      4.07      0.00
   -5    1   20     -3.40      0.00
   -3    1   18    -11.37      0.00
   -1    1   16     -1.95      0.00
    1    1   14      5.36      0.00
    3    1   12    -13.34      0.00
    5    1   10     -1.09      0.00
    7    1    8      2.53      0.00
    9    1    6     26.83      0.00
   11    1    4     -2.83      0.00
   13    1    2    -15.49      0.00
   15    1    0      3.86      0.00
  -17    1    2      5.03      0.00
  -19    1    4      4.33      0.00
  -21    1    6      8.91      0.00
  -23    1    8     -7.72      0.00
  -25    1   10     -3.29      0.00
  -27    1   12    -10.79      0.00
  -29    1   14     -6.37      0.00
  -31    1   16      6.10      0.00
   -8    2   23     -6.11      0.00
   -6    2   21     -8.58      0.00
   -4    2   19      6.05      0.00
   -2    2   17      2.29      0.00
    0    2   15    -15.58      0.00
    2    2   13      2.55      0.00
    4    2   11     -6.17      0.00
    6    2    9     -4.50      0.00
    8    2    7      1.73      0.00
   10    2    5      0.13      0.00
   12    2    3     24.51      0.00
   14    2    1    -11.11      0.00
  -16    2    1    -12.39      0.00
  -18    2    3      7.95      0.00
  -20    2    5      6.90      0.00
  -22    2    7      2.18      0.00
  -24    2    9     -3.76      0.00
  -26    2   11     -6.26      0.00
  -28    2   13      5.87      0.00
  -30    2   15     -2.87      0.00
   -9    3   24     -4.97      0.00
   -7    3   22      6.09      0.00
   -5    3   20      3.24      0.00
   -3    3   18     -7.27      0.00
   -1    3   16     -2.39      0.00
    1    3   14     13.06      0.00
    3    3   12      2.10      0.00
    5    3   10    -11.86      0.00
    7    3    8    -14.62      0.00
    9    3    6     39.58      0.00
   11    3    4     25.49      0.00
   13    3    2    -16.05      0.00
   15    3    0     -1.19      0.00
  -17    3    2      7.30      0.00
  -19    3    4      0.83      0.00
  -21    3    6      7.07      0.00
  -23    3    8     -7.74      0.00
  -25    3   10     -0.75      0.00
  -27    3   12     -6.06      0.00
  -29    3   14     -2.14      0.00
  -31    3   16      2.84      0.00
   -8    4   23     -7.88      0.00
   -6    4   21     -6.59      0.00
   -4    4   19      3.35      0.00
   -2    4   17      2.53      0.00
    0    4   15    -14.25      0.00
    2    4   13     -6.76      0.00
    4    4   11     -7.30      0.00
    6    4    9     -3.57      0.00
    8    4    7     -3.01      0.00
   10    4    5      3.44      0.00
   12    4    3     23.98      0.00
   14    4    1    -22.78      0.00
  -16    4    1    -10.59      0.00
  -18    4    3      4.62      0.00
  -20    4    5      5.78      0.00
  -22    4    7      2.01      0.00
  -24    4    9      0.84      0.00
  -26    4   11     -4.42      0.00
  -28    4   13      5.89      0.00
  -30    4   15     -3.44      0.00
   -9    5   24     -6.58      0.00
   -7    5   22     -1.90      0.00
   -5    5   20     -0.68      0.00
   -3    5   18     -5.54      0.00
   -1    5   16     -4.37      0.00
    1    5   14      9.89      0.00
    3    5   12     -2.39      0.00
    5    5   10     -9.21      0.00
    7    5    8     -3.30      0.00
    9    5    6     20.13      0.00
   11    5    4     -7.82      0.00
   13    5    2    -20.52      0.00
   15    5    0      7.04      0.00
  -17    5    2      0.88      0.00
  -19    5    4     -5.13      0.00
  -21    5    6      6.85      0.00
  -23    5    8     -4.50      0.00
  -25    5   10     -2.94      0.00
  -27    5   12     -8.62      0.00
  -29    5   14     -3.69      0.00
  -31    5   16      3.91      0.00
   -8    6   23     -2.57      0.00
   -6    6   21     -5.83      0.00
   -4    6   19     -2.40      0.00
   -2    6   17      7.33      0.00
    0    6   15     -2.50      0.00
    2    6   13     -8.54      0.00
    4    6   11     -4.06      0.00
    6    6    9     19.22      0.00
    8    6    7     12.95      0.00
   10    6    5     -6.75      0.00
   12    6    3     15.99      0.00
   14    6    1     -7.44      0.00
  -16    6    1    -11.84      0.00
  -18    6    3      8.02      0.00
  -20    6    5     12.74      0.00
  -22    6    7      9.27      0.00
  -24    6    9      1.01      0.00
  -26    6   11     -8.44      0.00
  -28    6   13      2.49      0.00
  -30    6   15     -2.41      0.00
   -9    7   24     -3.24      0.00
   -7    7   22      1.24      0.00
   -5    7   20      4.31      0.00
   -3    7   18      0.42      0.00
   -1    7   16      0.52      0.00
    1    7   14     17.75      0.00
    3    7   12      6.47      0.00
    5    7   10     11.93      0.00
    7    7    8     15.33      0.00
    9    7    6     16.48      0.00
   11    7    4     -5.97      0.00
   13    7    2     -2.24      0.00
   15    7    0      8.55      0.00
  -17    7    2      0.22      0.00
  -19    7    4      2.44      0.00
  -21    7    6     11.95      0.00
  -23    7    8     -1.89      0.00
  -25    7   10     -1.78      0.00
  -27    7   12     -9.03      0.00
  -29    7   14     -1.86      0.00
   -8    8   23      6.64      0.00
   -6    8   21     -0.80      0.00
   -4    8   19     -3.79      0.00
   -2    8   17     -0.11      0.00
    0    8   15     -5.03      0.00
    2    8   13     -3.27      0.00
    4    8   11     -1.97      0.00
    6    8    9      7.45      0.00
    8    8    7     21.46      0.00
   10    8    5     21.88      0.00
   12    8    3     30.41      0.00
   14    8    1     -2.07      0.00
  -16    8    1    -12.93      0.00
  -18    8    3     11.08      0.00
  -20    8    5     10.25      0.00
  -22    8    7      5.35      0.00
  -24    8    9     -3.92      0.00
  -26    8   11     -6.20      0.00
  -28    8   13      3.70      0.00
  -30    8   15     -2.83      0.00
   -9    9   24     -3.40      0.00
   -7    9   22      1.60      0.00
   -5    9   20      1.91      0.00
   -3    9   18     -7.82      0.00
   -1    9   16     -5.61      0.00
    1    9   14      8.80      0.00
    3    9   12     -1.89      0.00
    5    9   10      3.19      0.00
    7    9    8      3.62      0.00
    9    9    6     14.59      0.00
   11    9    4     11.29      0.00
   13    9    2     -4.04      0.00
   15    9    0      1.54      0.00
  -17    9    2     -4.13      0.00
  -19    9    4     -3.68      0.00
  -21    9    6      9.49      0.00
  -23    9    8     -2.96      0.00
  -25    9   10     -0.52      0.00
  -27    9   12     -6.92      0.00
  -29    9   14     -1.04      0.00
   -8   10   23      3.12      0.00
   -6   10   21     -5.00      0.00
   -4   10   19     -5.36      0.00
   -2   10   17     -7.64      0.00
    0   10   15    -12.05      0.00
    2   10   13     -1.72      0.00
    4   10   11     -9.62      0.00
    6   10    9    -11.12      0.00
    8   10    7     12.53      0.00
   10   10    5     14.41      0.00
   12   10    3      3.22      0.00
   14   10    1    -20.35      0.00
  -16   10    1    -13.42      0.00
  -18   10    3     -4.72      0.00
  -20   10    5     -4.43      0.00
  -22   10    7      0.07      0.00
  -24   10    9      0.01      0.00
  -26   10   11     -3.17      0.00
  -28   10   13      3.60      0.00
  -30   10   15     -6.22      0.00
   -7   11   22     -1.38      0.00
   -5   11   20     -0.10      0.00
   -3   11   18    -11.01      0.00
   -1   11   16     -3.43      0.00
    1   11   14      5.52      0.00
    3   11   12     -3.82      0.00
    5   11   10      0.80      0.00
    7   11    8      3.54      0.00
    9   11    6      3.03      0.00
   11   11    4     -3.98      0.00
   13   11    2    -18.75      0.00
   15   11    0      0.76      0.00
  -17   11    2     -7.60      0.00
  -19   11    4     -3.37      0.00
  -21   11    6      9.98      0.00
  -23   11    8      1.61      0.00
  -25   11   10     -1.95      0.00
  -27   11   12     -7.56      0.00
  -29   11   14      1.86      0.00
   -8   12   23     -0.19      0.00
   -6   12   21     -5.63      0.00
   -4   12   19      0.78      0.00
   -2   12   17     -2.42      0.00
    0   12   15     -8.07      0.00
    2   12   13      0.40      0.00
    4   12   11     -4.37      0.00
    6   12    9      4.52      0.00
    8   12    7     20.84      0.00
   10   12    5      7.79      0.00
   12   12    3     -3.00      0.00
   14   12    1    -16.93      0.00
  -16   12    1     -5.75      0.00
  -18   12    3      2.65      0.00
  -20   12    5      1.97      0.00
  -22   12    7      0.24      0.00
  -24   12    9      1.09      0.00
  -26   12   11     -4.25      0.00
  -28   12   13      5.29      0.00
  -30   12   15     -4.71      0.00
   -7   13   22      1.19      0.00
   -5   13   20      3.94      0.00
   -3   13   18     -5.99      0.00
   -1   13   16     -0.52      0.00
    1   13   14      1.36      0.00
    3   13   12      1.01      0.00
    5   13   10     13.32      0.00
    7   13    8     11.27      0.00
    9   13    6      6.91      0.00
   11   13    4      2.25      0.00
   13   13    2     -4.42      0.00
   15   13    0     -3.58      0.00
  -17   13    2     -6.88      0.00
  -19   13    4      6.33      0.00
  -21   13    6     13.68      0.00
  -23   13    8     -1.36      0.00
  -25   13   10     -1.24      0.00
  -27   13   12     -5.38      0.00
  -29   13   14      3.44      0.00
   -8   14   23      2.73      0.00
   -6   14   21     -2.54      0.00
   -4   14   19      2.48      0.00
   -2   14   17     -1.21      0.00
    0   14   15     -8.15      0.00
    2   14   13     -8.03      0.00
    4   14   11     -9.41      0.00
    6   14    9      2.90      0.00
    8   14    7     10.55      0.00
   10   14    5     -0.04      0.00
   12   14    3     -3.02      0.00
   14   14    1    -18.50      0.00
  -16   14    1     -5.75      0.00
  -18   14    3      6.73      0.00
  -20   14    5      3.41      0.00
  -22   14    7      0.21      0.00
  -24   14    9     -3.90      0.00
  -26   14   11     -1.84      0.00
  -28   14   13      6.42      0.00
   -7   15   22      2.94      0.00
   -5   15   20      0.02      0.00
   -3   15   18    -11.19      0.00
   -1   15   16     -7.02      0.00
    1   15   14     -4.79      0.00
    3   15   12     -7.26      0.00
    5   15   10     -1.52      0.00
    7   15    8     -4.97      0.00
    9   15    6     -1.50      0.00
   11   15    4     -2.40      0.00
   13   15    2     -2.50      0.00
   15   15    0     -6.12      0.00
  -17   15    2     -5.50      0.00
  -19   15    4     -2.16      0.00
  -21   15    6     11.24      0.00
  -23   15    8     -0.24      0.00
  -25   15   10      3.13      0.00
  -27   15   12     -5.31      0.00
  -29   15   14     -0.44      0.00
   -6   16   21     -2.96      0.00
   -4   16   19     -2.96      0.00
   -2   16   17     -0.24      0.00
    0   16   15     -1.85      0.00
    2   16   13      0.94      0.00
    4   16   11     -8.63      0.00
    6   16    9     -1.13      0.00
    8   16    7      1.85      0.00
   10   16    5     -6.87      0.00
   12   16    3     -9.14      0.00
   14   16    1    -15.24      0.00
  -16   16    1     -0.72      0.00
  -18   16    3      1.62      0.00
  -20   16    5     -3.33      0.00
  -22   16    7      5.29      0.00
  -24   16    9      1.54      0.00
  -26   16   11     -1.58      0.00
  -28   16   13      1.94      0.00
   -7   17   22      4.17      0.00
   -5   17   20      5.29      0.00
   -3   17   18     -2.39      0.00
   -1   17   16      2.56      0.00
    1   17   14      7.03      0.00
    3   17   12      1.99      0.00
    5   17   10     -1.65      0.00
    7   17    8     -6.21      0.00
    9   17    6     -1.49      0.00
   11   17    4    -10.30      0.00
   13   17    2     -9.11      0.00
   15   17    0      0.13      0.00
  -17   17    2     -0.39      0.00
  -19   17    4     -0.79      0.00
  -21   17    6      8.56      0.00
  -23   17    8      4.99      0.00
  -25   17   10      4.66      0.00
  -27   17   12     -5.99      0.00
  -29   17   14     -3.60      0.00
   -6   18   21      2.21      0.00
   -4   18   19      0.84      0.00
   -2   18   17      3.86      0.00
    0   18   15      0.31      0.00
    2   18   13      7.61      0.00
    4   18   11     -2.94      0.00
    6   18    9     -1.83      0.00
    8   18    7      1.85      0.00
   10   18    5     -6.30      0.00
   12   18    3     -9.22      0.00
   14   18    1     -8.41      0.00
  -16   18    1      0.01      0.00
  -18   18    3      2.97      0.00
  -20   18    5      2.34      0.00
  -22   18    7      5.37      0.00
  -24   18    9      3.62      0.00
  -26   18   11     -1.28      0.00
  -28   18   13     -0.04      0.00
   -5   19   20      6.92      0.00
   -3   19   18     -1.81      0.00
   -1   19   16     -0.94      0.00
    1   19   14     -1.87      0.00
    3   19   12     -4.67      0.00
    5   19   10      0.55      0.00
    7   19    8     -4.24      0.00
    9   19    6      2.94      0.00
   11   19    4     -6.81      0.00
   13   19    2     -5.53      0.00
   15   19    0     -0.92      0.00
  -17   19    2     -5.04      0.00
  -19   19    4      1.52      0.00
  -21   19    6      0.55      0.00
  -23   19    8     -3.46      0.00
  -25   19   10      0.98      0.00
  -27   19   12     -5.37      0.00
   -6   20   21      3.97      0.00
   -4   20   19      2.62      0.00
   -2   20   17      3.05      0.00
    0   20   15     -2.63      0.00
    2   20   13      2.14      0.00
    4   20   11     -7.18      0.00
    6   20    9     -4.10      0.00
    8   20    7     -0.98      0.00
   10   20    5    -12.91      0.00
   12   20    3     -8.68      0.00
   14   20    1     -8.77      0.00
  -16   20    1     -2.41      0.00
  -18   20    3     -1.91      0.00
  -20   20    5      0.47      0.00
  -22   20    7      1.64      0.00
  -24   20    9     -0.90      0.00
  -26   20   11     -2.46      0.00
  -28   20   13      0.34      0.00
   -5   21   20      6.19      0.00
   -3   21   18     -1.88      0.00
   -1   21   16      0.21      0.00
    1   21   14      2.08      0.00
    3   21   12     -4.56      0.00
    5   21   10      1.56      0.00
    7   21    8     -1.87      0.00
    9   21    6      4.73      0.00
   11   21    4     -3.67      0.00
   13   21    2     -1.78      0.00
   15   21    0     -0.17      0.00
  -17   21    2     -3.61      0.00
  -19   21    4     -0.60      0.00
  -21   21    6      0.26      0.00
  -23   21    8     -1.09      0.00
  -25   21   10      2.40      0.00
  -27   21   12     -5.90      0.00
   -4   22   19     -0.42      0.00
   -2   22   17      2.66      0.00
    0   22   15      1.01      0.00
    2   22   13      5.46      0.00
    4   22   11     -1.21      0.00
    6   22    9      7.57      0.00
    8   22    7      4.71      0.00
   10   22    5     -6.38      0.00
   12   22    3      3.97      0.00
   14   22    1     -0.94      0.00
  -16   22    1      8.21      0.00
  -18   22    3      5.09      0.00
  -20   22    5      3.09      0.00
  -22   22    7      5.04      0.00
  -24   22    9     -0.70      0.00
  -26   22   11     -3.77      0.00
   -5   23   20      4.43      0.00
   -3   23   18     -2.85      0.00
   -1   23   16      1.88      0.00
    1   23   14     11.68      0.00
    3   23   12      4.72      0.00
    5   23   10      2.14      0.00
    7   23    8     -1.10      0.00
    9   23    6     15.04      0.00
   11   23    4      3.59      0.00
   13   23    2      2.09      0.00
   15   23    0      6.70      0.00
  -17   23    2      1.36      0.00
  -19   23    4      0.46      0.00
  -21   23    6      5.37      0.00
  -23   23    8      2.34      0.00
  -25   23   10      4.77      0.00
   -4   24   19     -1.44      0.00
   -2   24   17     -0.77      0.00
    0   24   15     -0.09      0.00
    2   24   13      3.27      0.00
    4   24   11     -2.64      0.00
    6   24    9      5.90      0.00
    8   24    7      0.67      0.00
   10   24    5     -6.58      0.00
   12   24    3      3.40      0.00
   14   24    1     -3.25      0.00
  -16   24    1      0.83      0.00
  -18   24    3      4.54      0.00
  -20   24    5      2.44      0.00
  -22   24    7      2.87      0.00
  -24   24    9     -0.41      0.00
  -26   24   11      1.10      0.00
   -3   25   18     -4.94      0.00
   -1   25   16     -3.66      0.00
    1   25   14     -0.05      0.00
    3   25   12     -3.77      0.00
    5   25   10     -3.26      0.00
    7   25    8     -4.54      0.00
    9   25    6     11.17      0.00
   11   25    4     -2.80      0.00
   13   25    2     -1.39      0.00
   15   25    0      3.06      0.00
  -17   25    2     -3.18      0.00
  -19   25    4     -5.45      0.00
  -21   25    6      0.35      0.00
  -23   25    8     -2.12      0.00
  -25   25   10      5.47      0.00
   -4   26   19      0.21      0.00
   -2   26   17     -1.31      0.00
    0   26   15     -6.86      0.00
    2   26   13     -1.54      0.00
    4   26   11     -7.75      0.00
    6   26    9      4.63      0.00
    8   26    7      7.13      0.00
   10   26    5     -3.01      0.00
   12   26    3      3.32      0.00
   14   26    1      0.68      0.00
  -16   26    1      0.58      0.00
  -18   26    3      3.15      0.00
  -20   26    5     -4.09      0.00
  -22   26    7      1.09      0.00
  -24   26    9      2.38      0.00
   -3   27   18      1.82      0.00
   -1   27   16      2.92      0.00
    1   27   14     -1.40      0.00
    3   27   12     -1.71      0.00
    5   27   10      3.51      0.00
    7   27    8      0.78      0.00
    9   27    6      6.60      0.00
   11   27    4     -4.20      0.00
   13   27    2     -4.25      0.00
   15   27    0      1.09      0.00
  -17   27    2     -3.41      0.00
  -19   27    4     -6.20      0.00
  -21   27    6      0.48      0.00
  -23   27    8      2.53      0.00
   -2   28   17      3.66      0.00
    0   28   15     -3.35      0.00
    2   28   13      4.00      0.00
    4   28   11     -4.05      0.00
    6   28    9      0.93      0.00
    8   28    7      3.05      0.00
   10   28    5     -3.67      0.00
   12   28    3      1.66      0.00
   14   28    1      1.58      0.00
  -16   28    1      0.29      0.00
  -18   28    3      0.45      0.00
  -20   28    5     -3.83      0.00
  -22   28    7      1.40      0.00
  -24   28    9      2.10      0.00
   -1   29   16     -1.22      0.00
    1   29   14      0.65      0.00
    3   29   12     -2.34      0.00
    5   29   10      0.75      0.00
    7   29    8     -5.88      0.00
    9   29    6      2.15      0.00
   11   29    4      1.26      0.00
   13   29    2     -3.72      0.00
   15   29    0      1.13      0.00
  -17   29    2     -5.45      0.00
  -19   29    4     -7.14      0.00
  -21   29    6      2.75      0.00
  -23   29    8      0.33      0.00
    0   30   15     -0.54      0.00
    2   30   13      2.02      0.00
    4   30   11     -4.10      0.00
    6   30    9     -3.23      0.00
    8   30    7     -3.48      0.00
   10   30    5     -6.69      0.00
   12   30    3      2.58      0.00
   14   30    1     -1.27      0.00
  -16   30    1     -6.52      0.00
  -18   30    3      0.09      0.00
  -20   30    5     -1.46      0.00
  -22   30    7      0.85      0.00
    1   31   14      3.39      0.00
    3   31   12     -2.97      0.00
    5   31   10     -4.21      0.00
    7   31    8     -6.89      0.00
    9   31    6      3.21      0.00
   11   31    4      2.91      0.00
   13   31    2     -1.69      0.00
   15   31    0      2.97      0.00
  -17   31    2     -1.70      0.00
  -19   31    4     -8.43      0.00
  -21   31    6      0.74      0.00
    2   32   13     -2.92      0.00
    4   32   11     -3.63      0.00
    6   32    9      0.73      0.00
    8   32    7      5.89      0.00
   10   32    5     -2.23      0.00
   12   32    3      5.59      0.00
   14   32    1      6.54      0.00
  -16   32    1     -2.28      0.00
  -18   32    3      6.18      0.00
  -20   32    5     -2.46      0.00
    3   33   12     -0.73      0.00
    5   33   10     -2.51      0.00
    7   33    8     -3.35      0.00
    9   33    6      2.57      0.00
   11   33    4      2.22      0.00
   13   33    2      2.13      0.00
   15   33    0      6.55      0.00
  -17   33    2      0.84      0.00
  -19   33    4     -3.58      0.00
    4   34   11     -1.86      0.00
    6   34    9      2.79      0.00
    8   34    7      3.25      0.00
   10   34    5     -4.63      0.00
   12   34    3     -0.21      0.00
   14   34    1      3.50      0.00
  -16   34    1     -4.21      0.00
  -18   34    3      4.43      0.00
    5   35   10     -1.35      0.00
    7   35    8     -5.44      0.00
    9   35    6     -0.12      0.00
   11   35    4      3.71      0.00
   13   35    2      2.45      0.00
   15   35    0      4.71      0.00
  -17   35    2      2.37      0.00
    6   36    9      1.62      0.00
    8   36    7      4.25      0.00
   10   36    5      2.84      0.00
   12   36    3      6.52      0.00
   14   36    1      2.57      0.00
  -16   36    1     -1.06      0.00
    9   37    6      6.91      0.00
   11   37    4      5.51      0.00
   13   37    2      6.47      0.00
   -8    0   24     -3.11      0.00
   -6    0   22     -7.23      0.00
   -4    0   20      7.28      0.00
   -2    0   18     10.28      0.00
    0    0   16     16.72      0.00
    2    0   14     26.23      0.00
    4    0   12      6.19      0.00
    6    0   10      4.74      0.00
    8    0    8     -0.77      0.00
   10    0    6      4.16      0.00
   12    0    4     21.62      0.00
   14    0    2      9.13      0.00
   16    0    0     10.58      0.00
  -18    0    2     26.35      0.00
  -20    0    4      4.49      0.00
  -22    0    6     11.46      0.00
  -24    0    8     -3.21      0.00
  -26    0   10      4.96      0.00
  -28    0   12      0.20      0.00
  -30    0   14     -4.56      0.00
   -7    1   23     -2.95      0.00
   -5    1   21      3.35      0.00
   -3    1   19      6.30      0.00
   -1    1   17     14.25      0.00
    1    1   15      9.52      0.00
    3    1   13      3.06      0.00
    5    1   11      6.80      0.00
    7    1    9      2.61      0.00
    9    1    7     -3.01      0.00
   11    1    5     -2.54      0.00
   13    1    3     10.52      0.00
   15    1    1      9.60      0.00
  -17    1    1    -11.56      0.00
  -19    1    3      3.48      0.00
  -21    1    5      6.47      0.00
  -23    1    7     -4.84      0.00
  -25    1    9     -0.79      0.00
  -27    1   11     -4.43      0.00
  -29    1   13      3.68      0.00
  -31    1   15     -0.25      0.00
   -8    2   24     -5.98      0.00
   -6    2   22     -9.91      0.00
   -4    2   20      2.38      0.00
   -2    2   18      1.18      0.00
    0    2   16      5.34      0.00
    2    2   14     16.60      0.00
    4    2   12     -3.93      0.00
    6    2   10     -7.49      0.00
    8    2    8     -2.90      0.00
   10    2    6     -3.24      0.00
   12    2    4    -10.47      0.00
   14    2    2    -20.18      0.00
   16    2    0     14.79      0.00
  -18    2    2     24.07      0.00
  -20    2    4     -1.81      0.00
  -22    2    6      4.87      0.00
  -24    2    8      1.25      0.00
  -26    2   10      7.41      0.00
  -28    2   12      1.39      0.00
  -30    2   14     -5.30      0.00
   -7    3   23     -1.95      0.00
   -5    3   21      0.68      0.00
   -3    3   19     -3.37      0.00
   -1    3   17      8.09      0.00
    1    3   15      8.90      0.00
    3    3   13      2.54      0.00
    5    3   11     -9.80      0.00
    7    3    9     -2.43      0.00
    9    3    7      5.18      0.00
   11    3    5    -22.10      0.00
   13    3    3    -32.79      0.00
   15    3    1      1.82      0.00
  -17    3    1     -8.73      0.00
  -19    3    3      1.39      0.00
  -21    3    5      0.05      0.00
  -23    3    7     -3.87      0.00
  -25    3    9      5.42      0.00
  -27    3   11     -1.19      0.00
  -29    3   13      5.01      0.00
  -31    3   15      0.37      0.00
   -8    4   24     -5.08      0.00
   -6    4   22     -6.69      0.00
   -4    4   20      5.36      0.00
   -2    4   18      1.83      0.00
    0    4   16     -0.35      0.00
    2    4   14      9.25      0.00
    4    4   12     -3.85      0.00
    6    4   10     -6.07      0.00
    8    4    8     -4.77      0.00
   10    4    6     -5.05      0.00
   12    4    4    -12.99      0.00
   14    4    2    -22.72      0.00
   16    4    0     16.73      0.00
  -18    4    2     15.72      0.00
  -20    4    4     -3.39      0.00
  -22    4    6      5.04      0.00
  -24    4    8      3.72      0.00
  -26    4   10      6.23      0.00
  -28    4   12      2.45      0.00
  -30    4   14     -3.24      0.00
   -7    5   23      1.97      0.00
   -5    5   21      2.57      0.00
   -3    5   19     -2.52      0.00
   -1    5   17      9.52      0.00
    1    5   15      7.18      0.00
    3    5   13     -3.70      0.00
    5    5   11     -9.37      0.00
    7    5    9     -0.25      0.00
    9    5    7      4.79      0.00
   11    5    5     -2.70      0.00
   13    5    3      0.93      0.00
   15    5    1     14.91      0.00
  -17    5    1    -10.02      0.00
  -19    5    3      5.50      0.00
  -21    5    5      2.66      0.00
  -23    5    7     -4.66      0.00
  -25    5    9      0.70      0.00
  -27    5   11     -1.17      0.00
  -29    5   13      5.07      0.00
  -31    5   15      2.83      0.00
   -8    6   24     -2.18      0.00
   -6    6   22     -5.57      0.00
   -4    6   20      6.69      0.00
   -2    6   18      6.33      0.00
    0    6   16     -0.73      0.00
    2    6   14      0.93      0.00
    4    6   12     -3.71      0.00
    6    6   10     -4.85      0.00
    8    6    8    -12.35      0.00
   10    6    6     -1.25      0.00
   12    6    4     16.08      0.00
   14    6    2     -5.19      0.00
   16    6    0      2.56      0.00
  -18    6    2     10.69      0.00
  -20    6    4     -5.39      0.00
  -22    6    6      4.81      0.00
  -24    6    8     -5.23      0.00
  -26    6   10     -0.37      0.00
  -28    6   12      2.31      0.00
  -30    6   14     -1.89      0.00
   -7    7   23     -1.51      0.00
   -5    7   21     -1.38      0.00
   -3    7   19     -4.91      0.00
   -1    7   17      9.44      0.00
    1    7   15      8.55      0.00
    3    7   13     -7.56      0.00
    5    7   11     -6.16      0.00
    7    7    9     -2.13      0.00
    9    7    7     -4.61      0.00
   11    7    5      0.69      0.00
   13    7    3      7.49      0.00
   15    7    1      5.01      0.00
  -17    7    1    -10.29      0.00
  -19    7    3      2.88      0.00
  -21    7    5     -0.92      0.00
  -23    7    7     -8.21      0.00
  -25    7    9      0.24      0.00
  -27    7   11     -0.08      0.00
  -29    7   13      5.72      0.00
  -31    7   15      2.73      0.00
   -8    8   24     -5.59      0.00
   -6    8   22    -10.38      0.00
   -4    8   20      3.02      0.00
   -2    8   18      4.22      0.00
    0    8   16     -3.71      0.00
    2    8   14     -2.53      0.00
    4    8   12     -3.81      0.00
    6    8   10    -12.75      0.00
    8    8    8    -12.71      0.00
   10    8    6     -5.01      0.00
   12    8    4     -2.99      0.00
   14    8    2    -19.24      0.00
   16    8    0     -5.00      0.00
  -18    8    2      8.53      0.00
  -20    8    4    -11.04      0.00
  -22    8    6     -2.64      0.00
  -24    8    8    -11.27      0.00
  -26    8   10     -0.53      0.00
  -28    8   12      2.02      0.00
  -30    8   14     -3.79      0.00
   -7    9   23     -2.36      0.00
   -5    9   21     -0.92      0.00
   -3    9   19     -6.48      0.00
   -1    9   17      8.66      0.00
    1    9   15     10.93      0.00
    3    9   13     -5.05      0.00
    5    9   11     -3.63      0.00
    7    9    9      5.98      0.00
    9    9    7      4.19      0.00
   11    9    5      0.08      0.00
   13    9    3     -4.21      0.00
   15    9    1     16.56      0.00
  -17    9    1     -0.40      0.00
  -19    9    3      1.43      0.00
  -21    9    5      0.56      0.00
  -23    9    7     -5.50      0.00
  -25    9    9      2.93      0.00
  -27    9   11     -2.99      0.00
  -29    9   13      5.08      0.00
   -6   10   22     -5.70      0.00
   -4   10   20      6.85      0.00
   -2   10   18      6.28      0.00
    0   10   16     -0.11      0.00
    2   10   14      2.57      0.00
    4   10   12     -0.31      0.00
    6   10   10     -1.24      0.00
    8   10    8      5.80      0.00
   10   10    6     -2.70      0.00
   12   10    4    -10.49      0.00
   14   10    2     -5.73      0.00
   16   10    0      3.05      0.00
  -18   10    2      1.59      0.00
  -20   10    4    -11.57      0.00
  -22   10    6     -2.91      0.00
  -24   10    8    -10.02      0.00
  -26   10   10     -1.90      0.00
  -28   10   12      2.34      0.00
  -30   10   14     -4.76      0.00
   -7   11   23      3.47      0.00
   -5   11   21      1.31      0.00
   -3   11   19     -8.24      0.00
   -1   11   17      5.03      0.00
    1   11   15      3.96      0.00
    3   11   13    -10.36      0.00
    5   11   11     -7.82      0.00
    7   11    9      8.49      0.00
    9   11    7      7.15      0.00
   11   11    5      7.25      0.00
   13   11    3      1.36      0.00
   15   11    1     25.68      0.00
  -17   11    1     -0.48      0.00
  -19   11    3      2.09      0.00
  -21   11    5     -2.00      0.00
  -23   11    7     -4.23      0.00
  -25   11    9     -1.11      0.00
  -27   11   11     -5.55      0.00
  -29   11   13      5.77      0.00
   -6   12   22     -2.48      0.00
   -4   12   20      2.56      0.00
   -2   12   18     -3.51      0.00
    0   12   16     -5.13      0.00
    2   12   14     -0.56      0.00
    4   12   12     -5.22      0.00
    6   12   10     -7.72      0.00
    8   12    8     -3.25      0.00
   10   12    6     -4.20      0.00
   12   12    4      5.49      0.00
   14   12    2      5.00      0.00
   16   12    0      2.99      0.00
  -18   12    2      4.89      0.00
  -20   12    4    -13.57      0.00
  -22   12    6     -7.92      0.00
  -24   12    8    -10.78      0.00
  -26   12   10     -2.44      0.00
  -28   12   12      5.31      0.00
  -30   12   14     -6.71      0.00
   -7   13   23      2.96      0.00
   -5   13   21     -2.60      0.00
   -3   13   19    -10.26      0.00
   -1   13   17      3.33      0.00
    1   13   15      2.45      0.00
    3   13   13     -3.81      0.00
    5   13   11     -6.49      0.00
    7   13    9      0.01      0.00
    9   13    7      3.40      0.00
   11   13    5      9.42      0.00
   13   13    3      0.50      0.00
   15   13    1     13.65      0.00
  -17   13    1     -0.76      0.00
  -19   13    3      0.45      0.00
  -21   13    5     -6.28      0.00
  -23   13    7    -10.12      0.00
  -25   13    9      1.91      0.00
  -27   13   11     -1.56      0.00
  -29   13   13      4.33      0.00
   -6   14   22     -2.31      0.00
   -4   14   20      4.47      0.00
   -2   14   18     -0.07      0.00
    0   14   16     -0.42      0.00
    2   14   14      3.82      0.00
    4   14   12      7.46      0.00
    6   14   10     -1.33      0.00
    8   14    8     -6.62      0.00
   10   14    6     -1.25      0.00
   12   14    4     13.24      0.00
   14   14    2      3.34      0.00
   16   14    0      8.22      0.00
  -18   14    2     13.14      0.00
  -20   14    4     -9.21      0.00
  -22   14    6     -5.52      0.00
  -24   14    8     -9.11      0.00
  -26   14   10      2.17      0.00
  -28   14   12      6.76      0.00
   -5   15   21     -0.76      0.00
   -3   15   19     -5.28      0.00
   -1   15   17      5.68      0.00
    1   15   15      4.65      0.00
    3   15   13     -2.79      0.00
    5   15   11     -5.04      0.00
    7   15    9      6.26      0.00
    9   15    7      9.72      0.00
   11   15    5      5.99      0.00
   13   15    3      0.67      0.00
   15   15    1     20.19      0.00
  -17   15    1      5.02      0.00
  -19   15    3     -3.17      0.00
  -21   15    5      2.79      0.00
  -23   15    7     -6.55      0.00
  -25   15    9      6.39      0.00
  -27   15   11     -3.10      0.00
  -29   15   13      4.21      0.00
   -6   16   22     -3.27      0.00
   -4   16   20      5.80      0.00
   -2   16   18      2.58      0.00
    0   16   16     -5.05      0.00
    2   16   14     -5.22      0.00
    4   16   12      0.26      0.00
    6   16   10      7.00      0.00
    8   16    8      4.63      0.00
   10   16    6      2.38      0.00
   12   16    4     12.67      0.00
   14   16    2     11.72      0.00
   16   16    0     11.86      0.00
  -18   16    2      9.99      0.00
  -20   16    4     -7.90      0.00
  -22   16    6      1.54      0.00
  -24   16    8     -7.83      0.00
  -26   16   10     -1.53      0.00
  -28   16   12      4.97      0.00
   -5   17   21      4.49      0.00
   -3   17   19     -6.24      0.00
   -1   17   17      1.79      0.00
    1   17   15      2.24      0.00
    3   17   13     -9.64      0.00
    5   17   11    -15.48      0.00
    7   17    9     -1.35      0.00
    9   17    7      2.97      0.00
   11   17    5     -3.11      0.00
   13   17    3     -5.82      0.00
   15   17    1     12.93      0.00
  -17   17    1     -5.40      0.00
  -19   17    3     -7.91      0.00
  -21   17    5     -0.57      0.00
  -23   17    7     -5.49      0.00
  -25   17    9      2.30      0.00
  -27   17   11     -7.75      0.00
  -29   17   13      4.20      0.00
   -4   18   20      5.88      0.00
   -2   18   18     -0.64      0.00
    0   18   16     -9.34      0.00
    2   18   14     -3.05      0.00
    4   18   12     -4.48      0.00
    6   18   10     -3.26      0.00
    8   18    8      1.30      0.00
   10   18    6     -2.24      0.00
   12   18    4      7.14      0.00
   14   18    2     10.63      0.00
   16   18    0      4.02      0.00
  -18   18    2     10.33      0.00
  -20   18    4     -7.43      0.00
  -22   18    6      0.74      0.00
  -24   18    8     -5.14      0.00
  -26   18   10     -0.49      0.00
  -28   18   12      5.38      0.00
   -5   19   21      6.04      0.00
   -3   19   19     -8.27      0.00
   -1   19   17      2.89      0.00
    1   19   15      4.67      0.00
    3   19   13     -2.91      0.00
    5   19   11     -8.02      0.00
    7   19    9     -3.94      0.00
    9   19    7      2.21      0.00
   11   19    5      2.55      0.00
   13   19    3     -1.05      0.00
   15   19    1      8.99      0.00
  -17   19    1     -6.28      0.00
  -19   19    3      1.73      0.00
  -21   19    5     -0.26      0.00
  -23   19    7     -7.98      0.00
  -25   19    9      1.16      0.00
  -27   19   11     -6.24      0.00
   -4   20   20      9.98      0.00
   -2   20   18      6.08      0.00
    0   20   16     -0.22      0.00
    2   20   14      7.03      0.00
    4   20   12      5.94      0.00
    6   20   10      3.43      0.00
    8   20    8      5.04      0.00
   10   20    6     -2.47      0.00
   12   20    4      8.08      0.00
   14   20    2      9.34      0.00
   16   20    0      6.77      0.00
  -18   20    2     10.35      0.00
  -20   20    4     -6.48      0.00
  -22   20    6      4.26      0.00
  -24   20    8     -0.06      0.00
  -26   20   10      1.56      0.00
  -28   20   12      4.22      0.00
   -3   21   19     -3.22      0.00
   -1   21   17      5.21      0.00
    1   21   15      2.60      0.00
    3   21   13     -3.95      0.00
    5   21   11     -1.41      0.00
    7   21    9     -1.17      0.00
    9   21    7      1.06      0.00
   11   21    5      1.66      0.00
   13   21    3     -2.60      0.00
   15   21    1      9.45      0.00
  -17   21    1     -7.94      0.00
  -19   21    3     -1.64      0.00
  -21   21    5      2.63      0.00
  -23   21    7     -5.89      0.00
  -25   21    9      2.30      0.00
  -27   21   11     -4.72      0.00
   -4   22   20      5.26      0.00
   -2   22   18      0.24      0.00
    0   22   16     -4.26      0.00
    2   22   14     -4.55      0.00
    4   22   12     -5.95      0.00
    6   22   10      1.03      0.00
    8   22    8      1.12      0.00
   10   22    6     -7.33      0.00
   12   22    4      3.47      0.00
   14   22    2      4.10      0.00
   16   22    0      5.55      0.00
  -18   22    2      1.81      0.00
  -20   22    4    -11.73      0.00
  -22   22    6      3.61      0.00
  -24   22    8     -1.29      0.00
  -26   22   10     -2.56      0.00
   -3   23   19     -3.51      0.00
   -1   23   17      1.16      0.00
    1   23   15     -2.05      0.00
    3   23   13     -7.55      0.00
    5   23   11     -6.46      0.00
    7   23    9     -4.63      0.00
    9   23    7      4.73      0.00
   11   23    5      2.30      0.00
   13   23    3     -6.06      0.00
   15   23    1      6.04      0.00
  -17   23    1     -7.94      0.00
  -19   23    3     -2.44      0.00
  -21   23    5      0.40      0.00
  -23   23    7     -5.63      0.00
  -25   23    9      6.44      0.00
  -27   23   11     -2.77      0.00
   -2   24   18     -2.06      0.00
    0   24   16      1.73      0.00
    2   24   14      2.24      0.00
    4   24   12     -2.16      0.00
    6   24   10      2.14      0.00
    8   24    8      1.82      0.00
   10   24    6     -5.86      0.00
   12   24    4      0.68      0.00
   14   24    2     -2.22      0.00
   16   24    0     -1.51      0.00
  -18   24    2      3.59      0.00
  -20   24    4     -7.33      0.00
  -22   24    6      2.08      0.00
  -24   24    8     -0.48      0.00
  -26   24   10      1.44      0.00
   -3   25   19     -4.02      0.00
   -1   25   17      2.04      0.00
    1   25   15      2.14      0.00
    3   25   13     -0.47      0.00
    5   25   11     -1.35      0.00
    7   25    9     -0.50      0.00
    9   25    7      3.66      0.00
   11   25    5      0.76      0.00
   13   25    3     -3.47      0.00
   15   25    1      3.85      0.00
  -17   25    1     -3.21      0.00
  -19   25    3      4.59      0.00
  -21   25    5      3.03      0.00
  -23   25    7     -3.79      0.00
  -25   25    9      8.08      0.00
   -2   26   18     -2.12      0.00
    0   26   16     -0.50      0.00
    2   26   14      6.93      0.00
    4   26   12      3.33      0.00
    6   26   10      2.54      0.00
    8   26    8     -1.10      0.00
   10   26    6     -6.66      0.00
   12   26    4      0.07      0.00
   14   26    2     -1.04      0.00
   16   26    0     -2.18      0.00
  -18   26    2      0.84      0.00
  -20   26    4     -7.11      0.00
  -22   26    6      5.14      0.00
  -24   26    8      0.17      0.00
   -1   27   17     -0.52      0.00
    1   27   15      2.57      0.00
    3   27   13      0.93      0.00
    5   27   11      0.08      0.00
    7   27    9      0.41      0.00
    9   27    7     -5.63      0.00
   11   27    5     -7.07      0.00
   13   27    3     -4.22      0.00
   15   27    1      2.54      0.00
  -17   27    1    -10.36      0.00
  -19   27    3     -1.29      0.00
  -21   27    5      3.40      0.00
  -23   27    7      0.44      0.00
    0   28   16     -2.17      0.00
    2   28   14      3.35      0.00
    4   28   12      0.73      0.00
    6   28   10     -1.80      0.00
    8   28    8     -3.90      0.00
   10   28    6     -5.14      0.00
   12   28    4     -4.73      0.00
   14   28    2     -2.12      0.00
   16   28    0     -1.79      0.00
  -18   28    2     -3.05      0.00
  -20   28    4     -5.52      0.00
  -22   28    6      4.01      0.00
  -24   28    8     -3.80      0.00
    1   29   15     -1.46      0.00
    3   29   13     -2.36      0.00
    5   29   11      0.92      0.00
    7   29    9      2.47      0.00
    9   29    7      2.79      0.00
   11   29    5      3.37      0.00
   13   29    3      0.55      0.00
   15   29    1      7.44      0.00
  -17   29    1     -4.66      0.00
  -19   29    3      4.35      0.00
  -21   29    5      3.35      0.00
  -23   29    7     -0.09      0.00
    0   30   16      5.19      0.00
    2   30   14      4.18      0.00
    4   30   12      2.84      0.00
    6   30   10      0.79      0.00
    8   30    8      1.46      0.00
   10   30    6      1.62      0.00
   12   30    4     -1.92      0.00
   14   30    2     -4.36      0.00
   16   30    0      1.09      0.00
  -18   30    2      4.35      0.00
  -20   30    4      2.40      0.00
  -22   30    6      6.42      0.00
    1   31   15      2.75      0.00
    3   31   13      0.70      0.00
    5   31   11      1.87      0.00
    7   31    9      2.10      0.00
    9   31    7      2.41      0.00
   11   31    5      2.87      0.00
   13   31    3     -3.90      0.00
   15   31    1     -0.35      0.00
  -17   31    1     -3.20      0.00
  -19   31    3      3.86      0.00
  -21   31    5      0.12      0.00
    2   32   14      0.46      0.00
    4   32   12     -3.48      0.00
    6   32   10     -3.96      0.00
    8   32    8     -2.31      0.00
   10   32    6     -4.31      0.00
   12   32    4     -1.79      0.00
   14   32    2     -4.30      0.00
   16   32    0     -1.16      0.00
  -18   32    2      2.92      0.00
  -20   32    4     -2.08      0.00
    3   33   13     -1.87      0.00
    5   33   11     -3.24      0.00
    7   33    9     -2.34      0.00
    9   33    7     -2.05      0.00
   11   33    5      1.29      0.00
   13   33    3      1.07      0.00
   15   33    1     -1.99      0.00
  -17   33    1     -8.93      0.00
  -19   33    3      2.44      0.00
    4   34   12     -4.92      0.00
    6   34   10     -4.34      0.00
    8   34    8     -5.08      0.00
   10   34    6     -3.82      0.00
   12   34    4     -0.59      0.00
   14   34    2     -0.51      0.00
   16   34    0      1.96      0.00
  -18   34    2      2.97      0.00
    7   35    9     -4.22      0.00
    9   35    7     -0.27      0.00
   11   35    5      4.77      0.00
   13   35    3      5.34      0.00
   15   35    1      4.02      0.00
  -17   35    1     -6.67      0.00
    8   36    8     -3.55      0.00
   10   36    6     -3.78      0.00
   12   36    4     -3.03      0.00
   14   36    2     -2.22      0.00
   -6    0   23    -12.63      0.00
   -4    0   21      7.30      0.00
   -2    0   19      2.17      0.00
    0    0   17     -9.93      0.00
    2    0   15     10.86      0.00
    4    0   13      9.59      0.00
    6    0   11      5.44      0.00
    8    0    9     -0.32      0.00
   10    0    7     -7.62      0.00
   12    0    5      9.61      0.00
   14    0    3    -19.78      0.00
   16    0    1     -7.78      0.00
  -18    0    1      8.49      0.00
  -20    0    3     -3.64      0.00
  -22    0    5     -0.52      0.00
  -24    0    7     -3.77      0.00
  -26    0    9     -0.23      0.00
  -28    0   11     -2.30      0.00
  -30    0   13     -2.07      0.00
   -7    1   24     -1.36      0.00
   -5    1   22      0.40      0.00
   -3    1   20     -3.36      0.00
   -1    1   18      5.36      0.00
    1    1   16      5.19      0.00
    3    1   14    -15.01      0.00
    5    1   12      2.57      0.00
    7    1   10      4.03      0.00
    9    1    8     15.40      0.00
   11    1    6     -2.17      0.00
   13    1    4    -18.09      0.00
   15    1    2    -15.50      0.00
   17    1    0    -11.49      0.00
  -19    1    2      7.66      0.00
  -21    1    4     14.21      0.00
  -23    1    6     -4.77      0.00
  -25    1    8      1.03      0.00
  -27    1   10     -2.01      0.00
  -29    1   12      1.96      0.00
  -31    1   14     -2.94      0.00
   -6    2   23     -6.58      0.00
   -4    2   21      7.44      0.00
   -2    2   19      1.87      0.00
    0    2   17     -5.55      0.00
    2    2   15      9.65      0.00
    4    2   13     -3.42      0.00
    6    2   11     -1.31      0.00
    8    2    9      6.95      0.00
   10    2    7     -3.31      0.00
   12    2    5     12.63      0.00
   14    2    3      0.45      0.00
   16    2    1     12.64      0.00
  -18    2    1      5.04      0.00
  -20    2    3     -5.49      0.00
  -22    2    5      2.24      0.00
  -24    2    7      3.67      0.00
  -26    2    9     -0.59      0.00
  -28    2   11     -0.58      0.00
  -30    2   13     -2.17      0.00
   -7    3   24      2.30      0.00
   -5    3   22     -0.27      0.00
   -3    3   20     -3.39      0.00
   -1    3   18      3.97      0.00
    1    3   16      5.51      0.00
    3    3   14     -8.71      0.00
    5    3   12     -6.55      0.00
    7    3   10      3.92      0.00
    9    3    8     25.50      0.00
   11    3    6     -0.27      0.00
   13    3    4    -12.99      0.00
   15    3    2      8.64      0.00
   17    3    0    -11.46      0.00
  -19    3    2      1.71      0.00
  -21    3    4      9.77      0.00
  -23    3    6      3.35      0.00
  -25    3    8      3.84      0.00
  -27    3   10     -3.13      0.00
  -29    3   12      2.18      0.00
  -31    3   14     -1.49      0.00
   -6    4   23     -2.99      0.00
   -4    4   21      4.88      0.00
   -2    4   19     -1.42      0.00
    0    4   17     -5.91      0.00
    2    4   15      1.52      0.00
    4    4   13    -11.21      0.00
    6    4   11      1.41      0.00
    8    4    9      9.84      0.00
   10    4    7     -4.33      0.00
   12    4    5      7.82      0.00
   14    4    3     -2.20      0.00
   16    4    1      8.81      0.00
  -18    4    1     -3.13      0.00
  -20    4    3     -5.53      0.00
  -22    4    5      3.28      0.00
  -24    4    7      4.89      0.00
  -26    4    9     -1.82      0.00
  -28    4   11      0.85      0.00
  -30    4   13     -1.00      0.00
   -7    5   24     -3.83      0.00
   -5    5   22     -6.40      0.00
   -3    5   20     -0.67      0.00
   -1    5   18     -0.64      0.00
    1    5   16     -6.00      0.00
    3    5   14    -10.44      0.00
    5    5   12     -1.26      0.00
    7    5   10      3.67      0.00
    9    5    8     16.87      0.00
   11    5    6     -4.01      0.00
   13    5    4    -17.63      0.00
   15    5    2     -6.58      0.00
   17    5    0    -14.87      0.00
  -19    5    2      6.87      0.00
  -21    5    4     11.33      0.00
  -23    5    6      1.48      0.00
  -25    5    8     -0.14      0.00
  -27    5   10     -2.80      0.00
  -29    5   12      2.00      0.00
  -31    5   14     -1.03      0.00
   -6    6   23     -0.12      0.00
   -4    6   21      7.50      0.00
   -2    6   19      0.80      0.00
    0    6   17     -5.59      0.00
    2    6   15     -4.02      0.00
    4    6   13     -2.98      0.00
    6    6   11      9.64      0.00
    8    6    9      9.70      0.00
   10    6    7      5.32      0.00
   12    6    5     12.40      0.00
   14    6    3    -17.61      0.00
   16    6    1     -1.46      0.00
  -18    6    1      6.56      0.00
  -20    6    3     -0.81      0.00
  -22    6    5      3.66      0.00
  -24    6    7     -1.70      0.00
  -26    6    9     -4.14      0.00
  -28    6   11     -2.67      0.00
  -30    6   13     -2.57      0.00
   -5    7   22     -2.23      0.00
   -3    7   20      8.65      0.00
   -1    7   18      7.25      0.00
    1    7   16     -0.11      0.00
    3    7   14     -3.20      0.00
    5    7   12     10.14      0.00
    7    7   10     12.46      0.00
    9    7    8     20.80      0.00
   11    7    6      6.74      0.00
   13    7    4     -5.74      0.00
   15    7    2     -4.47      0.00
   17    7    0     -0.77      0.00
  -19    7    2     10.63      0.00
  -21    7    4     12.08      0.00
  -23    7    6     -1.78      0.00
  -25    7    8      0.79      0.00
  -27    7   10     -2.80      0.00
  -29    7   12      0.95      0.00
  -31    7   14     -1.86      0.00
   -6    8   23      7.17      0.00
   -4    8   21     10.49      0.00
   -2    8   19      0.83      0.00
    0    8   17     -3.84      0.00
    2    8   15     -3.62      0.00
    4    8   13     -6.05      0.00
    6    8   11     -1.76      0.00
    8    8    9     13.13      0.00
   10    8    7     17.49      0.00
   12    8    5     12.69      0.00
   14    8    3     -8.03      0.00
   16    8    1      6.52      0.00
  -18    8    1      6.32      0.00
  -20    8    3     -0.69      0.00
  -22    8    5      3.23      0.00
  -24    8    7     -1.08      0.00
  -26    8    9     -4.32      0.00
  -28    8   11     -4.19      0.00
  -30    8   13     -4.29      0.00
   -5    9   22      3.25      0.00
   -3    9   20      4.00      0.00
   -1    9   18      5.65      0.00
    1    9   16     -1.08      0.00
    3    9   14     -8.91      0.00
    5    9   12      0.60      0.00
    7    9   10      2.95      0.00
    9    9    8      7.95      0.00
   11    9    6      3.12      0.00
   13    9    4      5.43      0.00
   15    9    2      8.20      0.00
   17    9    0     -7.29      0.00
  -19    9    2      5.66      0.00
  -21    9    4      9.84      0.00
  -23    9    6     -3.46      0.00
  -25    9    8      3.04      0.00
  -27    9   10     -2.63      0.00
  -29    9   12      0.34      0.00
  -31    9   14      0.70      0.00
   -6   10   23      4.11      0.00
   -4   10   21      5.34      0.00
   -2   10   19     -1.87      0.00
    0   10   17     -4.71      0.00
    2   10   15     -0.43      0.00
    4   10   13     -9.01      0.00
    6   10   11     -4.82      0.00
    8   10    9      7.78      0.00
   10   10    7      1.48      0.00
   12   10    5     -5.90      0.00
   14   10    3     -4.88      0.00
   16   10    1     -2.74      0.00
  -18   10    1    -11.22      0.00
  -20   10    3     -6.30      0.00
  -22   10    5      4.26      0.00
  -24   10    7      1.74      0.00
  -26   10    9     -4.37      0.00
  -28   10   11      1.80      0.00
  -30   10   13     -2.39      0.00
   -5   11   22      2.95      0.00
   -3   11   20      0.69      0.00
   -1   11   18      9.27      0.00
    1   11   16     -1.16      0.00
    3   11   14    -11.04      0.00
    5   11   12      2.90      0.00
    7   11   10      1.63      0.00
    9   11    8     -5.95      0.00
   11   11    6     -6.06      0.00
   13   11    4      1.59      0.00
   15   11    2      1.73      0.00
   17   11    0    -14.62      0.00
  -19   11    2      6.11      0.00
  -21   11    4      9.39      0.00
  -23   11    6      2.35      0.00
  -25   11    8      2.03      0.00
  -27   11   10      0.19      0.00
  -29   11   12      1.54      0.00
   -6   12   23      2.44      0.00
   -4   12   21      6.89      0.00
   -2   12   19      3.94      0.00
    0   12   17     -1.30      0.00
    2   12   15      4.57      0.00
    4   12   13     -5.20      0.00
    6   12   11      1.05      0.00
    8   12    9     10.69      0.00
   10   12    7      2.01      0.00
   12   12    5     -6.21      0.00
   14   12    3     -9.08      0.00
   16   12    1      6.48      0.00
  -18   12    1      2.28      0.00
  -20   12    3     -5.18      0.00
  -22   12    5      5.53      0.00
  -24   12    7      6.49      0.00
  -26   12    9     -1.64      0.00
  -28   12   11      4.05      0.00
  -30   12   13     -2.64      0.00
   -5   13   22      3.21      0.00
   -3   13   20      4.29      0.00
   -1   13   18     13.83      0.00
    1   13   16      0.47      0.00
    3   13   14     -6.22      0.00
    5   13   12      3.64      0.00
    7   13   10      5.60      0.00
    9   13    8      9.18      0.00
   11   13    6      0.52      0.00
   13   13    4     -5.08      0.00
   15   13    2     -3.72      0.00
   17   13    0     -5.21      0.00
  -19   13    2      5.81      0.00
  -21   13    4      8.53      0.00
  -23   13    6      4.51      0.00
  -25   13    8      5.22      0.00
  -27   13   10     -0.34      0.00
  -29   13   12     -0.42      0.00
   -4   14   21      9.40      0.00
   -2   14   19      1.92      0.00
    0   14   17     -4.21      0.00
    2   14   15      0.52      0.00
    4   14   13     -6.24      0.00
    6   14   11     -1.52      0.00
    8   14    9      5.96      0.00
   10   14    7      0.79      0.00
   12   14    5     -7.01      0.00
   14   14    3    -16.91      0.00
   16   14    1      6.00      0.00
  -18   14    1     -0.14      0.00
  -20   14    3     -4.63      0.00
  -22   14    5     -1.87      0.00
  -24   14    7      4.11      0.00
  -26   14    9      0.17      0.00
  -28   14   11     -0.23      0.00
  -30   14   13     -1.67      0.00
   -5   15   22      1.51      0.00
   -3   15   20      1.15      0.00
   -1   15   18      3.74      0.00
    1   15   16     -5.75      0.00
    3   15   14     -8.08      0.00
    5   15   12     -1.38      0.00
    7   15   10     -4.74      0.00
    9   15    8     -1.58      0.00
   11   15    6    -11.11      0.00
   13   15    4     -7.35      0.00
   15   15    2     -5.91      0.00
   17   15    0    -12.85      0.00
  -19   15    2     -0.76      0.00
  -21   15    4     11.24      0.00
  -23   15    6      1.47      0.00
  -25   15    8      6.07      0.00
  -27   15   10     -0.85      0.00
  -29   15   12      3.45      0.00
   -4   16   21      5.85      0.00
   -2   16   19     -2.48      0.00
    0   16   17     -4.74      0.00
    2   16   15      1.92      0.00
    4   16   13     -3.46      0.00
    6   16   11      4.12      0.00
    8   16    9      0.67      0.00
   10   16    7     -8.33      0.00
   12   16    5     -8.45      0.00
   14   16    3     -8.88      0.00
   16   16    1      1.35      0.00
  -18   16    1     -8.86      0.00
  -20   16    3     -0.70      0.00
  -22   16    5      3.65      0.00
  -24   16    7      1.34      0.00
  -26   16    9     -2.48      0.00
  -28   16   11      0.97      0.00
   -5   17   22      0.48      0.00
   -3   17   20      0.86      0.00
   -1   17   18      7.19      0.00
    1   17   16      4.01      0.00
    3   17   14     -2.26      0.00
    5   17   12      6.90      0.00
    7   17   10      4.85      0.00
    9   17    8     -1.78      0.00
   11   17    6    -14.11      0.00
   13   17    4     -3.85      0.00
   15   17    2     -6.23      0.00
   17   17    0    -10.43      0.00
  -19   17    2      4.62      0.00
  -21   17    4     10.45      0.00
  -23   17    6      3.95      0.00
  -25   17    8      5.55      0.00
  -27   17   10      2.23      0.00
  -29   17   12      6.35      0.00
   -4   18   21      4.65      0.00
   -2   18   19      0.73      0.00
    0   18   17     -1.86      0.00
    2   18   15      8.78      0.00
    4   18   13      1.25      0.00
    6   18   11      5.58      0.00
    8   18    9      8.92      0.00
   10   18    7     -2.64      0.00
   12   18    5     -7.57      0.00
   14   18    3     -5.03      0.00
   16   18    1      6.81      0.00
  -18   18    1      0.09      0.00
  -20   18    3     -2.58      0.00
  -22   18    5      5.90      0.00
  -24   18    7      3.95      0.00
  -26   18    9      0.25      0.00
  -28   18   11      1.77      0.00
   -3   19   20     -4.64      0.00
   -1   19   18      3.90      0.00
    1   19   16      1.53      0.00
    3   19   14     -9.27      0.00
    5   19   12     -2.34      0.00
    7   19   10      2.80      0.00
    9   19    8      4.64      0.00
   11   19    6     -8.20      0.00
   13   19    4     -3.53      0.00
   15   19    2     -6.63      0.00
   17   19    0     -4.00      0.00
  -19   19    2      8.18      0.00
  -21   19    4      2.40      0.00
  -23   19    6      1.31      0.00
  -25   19    8      4.16      0.00
  -27   19   10     -0.17      0.00
   -4   20   21      6.33      0.00
   -2   20   19      1.26      0.00
    0   20   17     -6.56      0.00
    2   20   15      4.23      0.00
    4   20   13      2.95      0.00
    6   20   11      2.20      0.00
    8   20    9      3.30      0.00
   10   20    7     -5.11      0.00
   12   20    5     -2.09      0.00
   14   20    3     -4.46      0.00
   16   20    1      3.81      0.00
  -18   20    1     -4.31      0.00
  -20   20    3     -5.68      0.00
  -22   20    5      0.34      0.00
  -24   20    7      0.57      0.00
  -26   20    9      1.79      0.00
  -28   20   11     -0.35      0.00
   -3   21   20     -3.73      0.00
   -1   21   18     -0.84      0.00
    1   21   16      0.58      0.00
    3   21   14     -4.74      0.00
    5   21   12      1.01      0.00
    7   21   10     -1.67      0.00
    9   21    8      4.86      0.00
   11   21    6     -3.53      0.00
   13   21    4     -0.98      0.00
   15   21    2     -2.16      0.00
   17   21    0     -7.62      0.00
  -19   21    2      4.77      0.00
  -21   21    4      5.48      0.00
  -23   21    6      1.06      0.00
  -25   21    8      0.82      0.00
  -27   21   10     -3.20      0.00
   -2   22   19      0.15      0.00
    0   22   17     -5.16      0.00
    2   22   15      0.52      0.00
    4   22   13      3.11      0.00
    6   22   11      8.57      0.00
    8   22    9      3.14      0.00
   10   22    7     -6.29      0.00
   12   22    5      4.37      0.00
   14   22    3      2.25      0.00
   16   22    1      6.40      0.00
  -18   22    1     -1.57      0.00
  -20   22    3      4.65      0.00
  -22   22    5      5.56      0.00
  -24   22    7     -2.01      0.00
  -26   22    9     -2.78      0.00
   -1   23   18      0.30      0.00
    1   23   16      1.64      0.00
    3   23   14     -0.66      0.00
    5   23   12      5.15      0.00
    7   23   10      1.92      0.00
    9   23    8     12.39      0.00
   11   23    6     -1.31      0.00
   13   23    4     -0.41      0.00
   15   23    2      4.02      0.00
   17   23    0     -3.05      0.00
  -19   23    2      2.40      0.00
  -21   23    4      4.00      0.00
  -23   23    6      2.58      0.00
  -25   23    8      3.05      0.00
  -27   23   10     -4.39      0.00
   -2   24   19     -1.94      0.00
    0   24   17     -3.06      0.00
    2   24   15     -0.72      0.00
    4   24   13     -2.92      0.00
    6   24   11      6.33      0.00
    8   24    9      4.80      0.00
   10   24    7     -7.73      0.00
   12   24    5     -1.58      0.00
   14   24    3     -4.57      0.00
   16   24    1      4.00      0.00
  -18   24    1     -0.22      0.00
  -20   24    3     -2.45      0.00
  -22   24    5      0.93      0.00
  -24   24    7      1.85      0.00
  -26   24    9     -1.22      0.00
   -1   25   18     -0.85      0.00
    1   25   16     -3.70      0.00
    3   25   14     -7.04      0.00
    5   25   12     -1.74      0.00
    7   25   10     -2.65      0.00
    9   25    8      7.35      0.00
   11   25    6     -5.43      0.00
   13   25    4     -4.67      0.00
   15   25    2     -0.51      0.00
   17   25    0     -2.54      0.00
  -19   25    2     -3.02      0.00
  -21   25    4     -2.16      0.00
  -23   25    6     -2.51      0.00
  -25   25    8      3.09      0.00
    0   26   17     -8.74      0.00
    2   26   15     -2.43      0.00
    4   26   13     -8.00      0.00
    6   26   11      0.95      0.00
    8   26    9      0.64      0.00
   10   26    7     -4.74      0.00
   12   26    5      4.31      0.00
   14   26    3     -1.76      0.00
   16   26    1      2.93      0.00
  -18   26    1      0.98      0.00
  -20   26    3     -4.16      0.00
  -22   26    5      0.18      0.00
  -24   26    7      3.53      0.00
    1   27   16      1.35      0.00
    3   27   14     -1.51      0.00
    5   27   12      4.52      0.00
    7   27   10      2.02      0.00
    9   27    8      6.79      0.00
   11   27    6     -1.32      0.00
   13   27    4      1.01      0.00
   15   27    2     -0.60      0.00
   17   27    0     -4.25      0.00
  -19   27    2      2.13      0.00
  -21   27    4      5.86      0.00
  -23   27    6     -3.33      0.00
    2   28   15      4.35      0.00
    4   28   13     -2.34      0.00
    6   28   11     -0.43      0.00
    8   28    9     -1.58      0.00
   10   28    7     -3.51      0.00
   12   28    5      3.52      0.00
   14   28    3      1.56      0.00
   16   28    1      0.34      0.00
  -18   28    1      2.68      0.00
  -20   28    3      1.74      0.00
  -22   28    5      0.51      0.00
  -24   28    7      0.66      0.00
    1   29   16     -1.20      0.00
    3   29   14     -3.75      0.00
    5   29   12      1.53      0.00
    7   29   10     -1.55      0.00
    9   29    8      4.23      0.00
   11   29    6     -3.01      0.00
   13   29    4      0.12      0.00
   15   29    2      2.19      0.00
   17   29    0     -1.75      0.00
  -19   29    2      2.41      0.00
  -21   29    4      2.80      0.00
  -23   29    6     -5.46      0.00
    2   30   15      2.41      0.00
    4   30   13     -0.92      0.00
    6   30   11     -3.95      0.00
    8   30    9     -2.64      0.00
   10   30    7     -5.74      0.00
   12   30    5     -3.65      0.00
   14   30    3     -0.86      0.00
   16   30    1      2.62      0.00
  -18   30    1      0.83      0.00
  -20   30    3     -3.72      0.00
  -22   30    5     -2.00      0.00
    3   31   14     -4.74      0.00
    5   31   12     -1.63      0.00
    7   31   10     -1.83      0.00
    9   31    8      1.67      0.00
   11   31    6     -4.02      0.00
   13   31    4     -4.81      0.00
   15   31    2      0.72      0.00
   17   31    0      0.77      0.00
  -19   31    2     -6.42      0.00
  -21   31    4     -2.68      0.00
    4   32   13     -4.11      0.00
    6   32   11      0.97      0.00
    8   32    9      1.86      0.00
   10   32    7     -4.84      0.00
   12   32    5     -0.69      0.00
   14   32    3      0.64      0.00
   16   32    1      5.02      0.00
  -18   32    1      4.50      0.00
  -20   32    3     -6.45      0.00
    5   33   12     -0.87      0.00
    7   33   10     -3.08      0.00
    9   33    8     -0.72      0.00
   11   33    6     -0.42      0.00
   13   33    4     -1.58      0.00
   15   33    2     -2.09      0.00
   17   33    0      1.23      0.00
  -19   33    2     -3.47      0.00
    8   34    9      3.33      0.00
   10   34    7     -2.13      0.00
   12   34    5     -1.83      0.00
   14   34    3     -4.22      0.00
   16   34    1     -1.35      0.00
  -18   34    1      6.34      0.00
    9   35    8     -1.29      0.00
   11   35    6      0.10      0.00
   13   35    4     -0.14      0.00
   15   35    2     -0.11      0.00
   -6    0   24      4.69      0.00
   -4    0   22      5.90      0.00
   -2    0   20     -5.50      0.00
    0    0   18      8.32      0.00
    2    0   16     21.41      0.00
    4    0   14      1.77      0.00
    6    0   12     -1.52      0.00
    8    0   10      3.03      0.00
   10    0    8     12.82      0.00
   12    0    6     16.95      0.00
   14    0    4     -5.90      0.00
   16    0    2      8.89      0.00
   18    0    0      4.77      0.00
  -20    0    2     -8.56      0.00
  -22    0    4      9.29      0.00
  -24    0    6     -2.45      0.00
  -26    0    8      7.19      0.00
  -28    0   10      0.39      0.00
  -30    0   12     -0.81      0.00
   -5    1   23      1.02      0.00
   -3    1   21      6.01      0.00
   -1    1   19     12.97      0.00
    1    1   17      0.93      0.00
    3    1   15     -0.40      0.00
    5    1   13      8.03      0.00
    7    1   11     -5.22      0.00
    9    1    9      1.38      0.00
   11    1    7      2.84      0.00
   13    1    5      2.77      0.00
   15    1    3      2.92      0.00
   17    1    1     -0.40      0.00
  -19    1    1     10.99      0.00
  -21    1    3     -0.84      0.00
  -23    1    5     -5.28      0.00
  -25    1    7     14.67      0.00
  -27    1    9      0.01      0.00
  -29    1   11      3.82      0.00
  -31    1   13     -1.79      0.00
   -6    2   24      0.86      0.00
   -4    2   22      1.05      0.00
   -2    2   20     -6.09      0.00
    0    2   18      5.13      0.00
    2    2   16     13.33      0.00
    4    2   14    -11.11      0.00
    6    2   12     -0.09      0.00
    8    2   10      8.73      0.00
   10    2    8     -3.46      0.00
   12    2    6     -6.49      0.00
   14    2    4    -13.07      0.00
   16    2    2      1.91      0.00
   18    2    0     -5.98      0.00
  -20    2    2    -10.24      0.00
  -22    2    4     14.88      0.00
  -24    2    6      3.44      0.00
  -26    2    8      4.92      0.00
  -28    2   10      2.98      0.00
  -30    2   12      1.95      0.00
   -5    3   23     -3.99      0.00
   -3    3   21      1.49      0.00
   -1    3   19      9.64      0.00
    1    3   17     -3.37      0.00
    3    3   15     -6.14      0.00
    5    3   13      3.82      0.00
    7    3   11      6.22      0.00
    9    3    9      2.20      0.00
   11    3    7    -14.72      0.00
   13    3    5    -11.46      0.00
   15    3    3     -2.03      0.00
   17    3    1    -18.55      0.00
  -19    3    1     11.34      0.00
  -21    3    3     -0.45      0.00
  -23    3    5     -2.35      0.00
  -25    3    7      9.10      0.00
  -27    3    9     -0.09      0.00
  -29    3   11      3.88      0.00
  -31    3   13     -0.04      0.00
   -4    4   22      4.16      0.00
   -2    4   20     -1.33      0.00
    0    4   18      3.42      0.00
    2    4   16     10.17      0.00
    4    4   14     -8.92      0.00
    6    4   12      5.48      0.00
    8    4   10      7.20      0.00
   10    4    8    -11.03      0.00
   12    4    6     -9.76      0.00
   14    4    4     -8.46      0.00
   16    4    2      6.34      0.00
   18    4    0     -4.37      0.00
  -20    4    2     -9.03      0.00
  -22    4    4     16.64      0.00
  -24    4    6      2.97      0.00
  -26    4    8      2.92      0.00
  -28    4   10      4.17      0.00
  -30    4   12      4.56      0.00
   -5    5   23      3.33      0.00
   -3    5   21      4.13      0.00
   -1    5   19      5.17      0.00
    1    5   17     -1.21      0.00
    3    5   15      0.07      0.00
    5    5   13     -0.11      0.00
    7    5   11     -7.88      0.00
    9    5    9     -2.44      0.00
   11    5    7     -2.10      0.00
   13    5    5      0.63      0.00
   15    5    3      6.65      0.00
   17    5    1     -5.23      0.00
  -19    5    1     18.75      0.00
  -21    5    3      0.64      0.00
  -23    5    5     -7.99      0.00
  -25    5    7      2.89      0.00
  -27    5    9     -0.51      0.00
  -29    5   11      3.52      0.00
  -31    5   13     -1.02      0.00
   -4    6   22     10.34      0.00
   -2    6   20      1.80      0.00
    0    6   18     -0.91      0.00
    2    6   16      3.58      0.00
    4    6   14     -0.64      0.00
    6    6   12      1.32      0.00
    8    6   10     -4.43      0.00
   10    6    8     -5.42      0.00
   12    6    6      1.34      0.00
   14    6    4     -7.61      0.00
   16    6    2     13.86      0.00
   18    6    0      3.06      0.00
  -20    6    2    -12.09      0.00
  -22    6    4      8.34      0.00
  -24    6    6     -7.04      0.00
  -26    6    8      2.47      0.00
  -28    6   10      1.22      0.00
  -30    6   12      0.51      0.00
   -5    7   23      1.87      0.00
   -3    7   21      0.82      0.00
   -1    7   19      1.81      0.00
    1    7   17      0.35      0.00
    3    7   15      2.55      0.00
    5    7   13     -1.11      0.00
    7    7   11     -9.10      0.00
    9    7    9     -3.29      0.00
   11    7    7     -2.75      0.00
   13    7    5     -3.74      0.00
   15    7    3      3.21      0.00
   17    7    1     -3.46      0.00
  -19    7    1      3.73      0.00
  -21    7    3    -10.41      0.00
  -23    7    5    -16.22      0.00
  -25    7    7      0.58      0.00
  -27    7    9     -4.69      0.00
  -29    7   11      2.53      0.00
  -31    7   13     -1.27      0.00
   -4    8   22      4.77      0.00
   -2    8   20      1.58      0.00
    0    8   18     -0.29      0.00
    2    8   16     -2.55      0.00
    4    8   14     -5.71      0.00
    6    8   12     -3.43      0.00
    8    8   10      3.41      0.00
   10    8    8     -4.72      0.00
   12    8    6    -11.67      0.00
   14    8    4    -11.81      0.00
   16    8    2      5.53      0.00
   18    8    0     -2.15      0.00
  -20    8    2    -12.88      0.00
  -22    8    4      4.45      0.00
  -24    8    6     -4.53      0.00
  -26    8    8      2.43      0.00
  -28    8   10     -0.35      0.00
  -30    8   12     -0.65      0.00
   -5    9   23      0.64      0.00
   -3    9   21      0.58      0.00
   -1    9   19      8.12      0.00
    1    9   17      0.24      0.00
    3    9   15     -2.91      0.00
    5    9   13      0.39      0.00
    7    9   11      0.27      0.00
    9    9    9     -4.09      0.00
   11    9    7     -2.99      0.00
   13    9    5      4.59      0.00
   15    9    3      7.92      0.00
   17    9    1     -7.73      0.00
  -19    9    1      7.84      0.00
  -21    9    3     -8.54      0.00
  -23    9    5    -14.53      0.00
  -25    9    7      1.69      0.00
  -27    9    9     -6.62      0.00
  -29    9   11      0.68      0.00
  -31    9   13      2.10      0.00
   -4   10   22      3.27      0.00
   -2   10   20      4.13      0.00
    0   10   18      4.59      0.00
    2   10   16      3.93      0.00
    4   10   14     -3.19      0.00
    6   10   12      1.62      0.00
    8   10   10     13.17      0.00
   10   10    8      5.54      0.00
   12   10    6      0.98      0.00
   14   10    4      5.88      0.00
   16   10    2      1.77      0.00
   18   10    0      0.30      0.00
  -20   10    2     -6.17      0.00
  -22   10    4      8.78      0.00
  -24   10    6     -2.87      0.00
  -26   10    8      0.15      0.00
  -28   10   10      1.90      0.00
  -30   10   12      0.84      0.00
   -5   11   23      1.79      0.00
   -3   11   21      3.19      0.00
   -1   11   19      8.63      0.00
    1   11   17     -6.17      0.00
    3   11   15     -9.14      0.00
    5   11   13      0.48      0.00
    7   11   11     -0.84      0.00
    9   11    9     -6.95      0.00
   11   11    7      7.61      0.00
   13   11    5     14.46      0.00
   15   11    3     11.99      0.00
   17   11    1     -6.43      0.00
  -19   11    1      9.21      0.00
  -21   11    3     -4.58      0.00
  -23   11    5    -11.58      0.00
  -25   11    7     -3.36      0.00
  -27   11    9     -4.46      0.00
  -29   11   11     -1.95      0.00
   -4   12   22      5.33      0.00
   -2   12   20     -2.33      0.00
    0   12   18     -3.83      0.00
    2   12   16      2.18      0.00
    4   12   14     -5.88      0.00
    6   12   12     -3.65      0.00
    8   12   10      2.80      0.00
   10   12    8     -1.77      0.00
   12   12    6      4.25      0.00
   14   12    4     11.26      0.00
   16   12    2     10.56      0.00
   18   12    0     -0.34      0.00
  -20   12    2    -12.53      0.00
  -22   12    4      6.97      0.00
  -24   12    6     -7.16      0.00
  -26   12    8     -1.84      0.00
  -28   12   10      2.37      0.00
  -30   12   12     -1.69      0.00
   -3   13   21      2.12      0.00
   -1   13   19      6.77      0.00
    1   13   17     -6.92      0.00
    3   13   15     -4.32      0.00
    5   13   13     -1.36      0.00
    7   13   11     -1.90      0.00
    9   13    9     -2.93      0.00
   11   13    7      1.88      0.00
   13   13    5      1.11      0.00
   15   13    3     13.68      0.00
   17   13    1     -0.47      0.00
  -19   13    1     -1.95      0.00
  -21   13    3     -7.96      0.00
  -23   13    5     -7.18      0.00
  -25   13    7      1.05      0.00
  -27   13    9     -6.60      0.00
  -29   13   11     -2.74      0.00
   -4   14   22      9.06      0.00
   -2   14   20     -4.26      0.00
    0   14   18     -1.47      0.00
    2   14   16      6.04      0.00
    4   14   14      0.39      0.00
    6   14   12      1.63      0.00
    8   14   10      3.33      0.00
   10   14    8     -5.04      0.00
   12   14    6      1.45      0.00
   14   14    4      8.53      0.00
   16   14    2     14.13      0.00
   18   14    0     -0.17      0.00
  -20   14    2     -9.14      0.00
  -22   14    4      0.83      0.00
  -24   14    6     -5.43      0.00
  -26   14    8     -0.55      0.00
  -28   14   10      1.13      0.00
  -30   14   12     -1.83      0.00
   -3   15   21      4.75      0.00
   -1   15   19      9.63      0.00
    1   15   17     -2.69      0.00
    3   15   15      0.46      0.00
    5   15   13      2.06      0.00
    7   15   11      1.83      0.00
    9   15    9      3.72      0.00
   11   15    7      3.25      0.00
   13   15    5      2.84      0.00
   15   15    3     13.32      0.00
   17   15    1      2.94      0.00
  -19   15    1      8.84      0.00
  -21   15    3      0.52      0.00
  -23   15    5     -5.33      0.00
  -25   15    7      7.17      0.00
  -27   15    9     -5.60      0.00
  -29   15   11      3.99      0.00
   -2   16   20     -3.08      0.00
    0   16   18     -0.45      0.00
    2   16   16      1.81      0.00
    4   16   14     -1.60      0.00
    6   16   12      3.14      0.00
    8   16   10     -0.51      0.00
   10   16    8     -1.54      0.00
   12   16    6      8.53      0.00
   14   16    4      8.33      0.00
   16   16    2      5.17      0.00
   18   16    0      2.81      0.00
  -20   16    2     -2.36      0.00
  -22   16    4      0.64      0.00
  -24   16    6     -6.88      0.00
  -26   16    8     -1.08      0.00
  -28   16   10      2.05      0.00
   -3   17   21      4.62      0.00
   -1   17   19      7.65      0.00
    1   17   17     -2.91      0.00
    3   17   15     -5.34      0.00
    5   17   13      0.75      0.00
    7   17   11      3.98      0.00
    9   17    9      0.17      0.00
   11   17    7     -0.55      0.00
   13   17    5      6.04      0.00
   15   17    3      7.84      0.00
   17   17    1     -3.50      0.00
  -19   17    1      5.64      0.00
  -21   17    3      0.38      0.00
  -23   17    5     -7.99      0.00
  -25   17    7      3.76      0.00
  -27   17    9     -0.88      0.00
  -29   17   11      6.88      0.00
   -2   18   20     -1.71      0.00
    0   18   18     -3.19      0.00
    2   18   16      1.16      0.00
    4   18   14     -2.99      0.00
    6   18   12      1.13      0.00
    8   18   10     -1.94      0.00
   10   18    8     -7.21      0.00
   12   18    6      3.39      0.00
   14   18    4      6.49      0.00
   16   18    2      4.56      0.00
   18   18    0      1.64      0.00
  -20   18    2    -11.95      0.00
  -22   18    4      2.20      0.00
  -24   18    6     -3.72      0.00
  -26   18    8      1.86      0.00
  -28   18   10      1.64      0.00
   -1   19   19      6.99      0.00
    1   19   17      1.53      0.00
    3   19   15     -2.77      0.00
    5   19   13     -0.08      0.00
    7   19   11      5.16      0.00
    9   19    9      1.04      0.00
   11   19    7     -2.08      0.00
   13   19    5      4.22      0.00
   15   19    3      9.98      0.00
   17   19    1      0.43      0.00
  -19   19    1      6.04      0.00
  -21   19    3      3.97      0.00
  -23   19    5     -1.12      0.00
  -25   19    7      6.19      0.00
  -27   19    9     -1.59      0.00
   -2   20   20     -1.57      0.00
    0   20   18     -0.33      0.00
    2   20   16      9.17      0.00
    4   20   14      4.60      0.00
    6   20   12      4.41      0.00
    8   20   10      5.41      0.00
   10   20    8     -3.08      0.00
   12   20    6      4.10      0.00
   14   20    4      5.89      0.00
   16   20    2      5.71      0.00
   18   20    0      0.21      0.00
  -20   20    2    -11.71      0.00
  -22   20    4      2.58      0.00
  -24   20    6     -0.03      0.00
  -26   20    8      4.24      0.00
  -28   20   10     -0.11      0.00
   -1   21   19      5.35      0.00
    1   21   17      1.04      0.00
    3   21   15      0.50      0.00
    5   21   13      3.57      0.00
    7   21   11      0.69      0.00
    9   21    9      3.18      0.00
   11   21    7      3.37      0.00
   13   21    5     -0.91      0.00
   15   21    3      1.40      0.00
   17   21    1     -5.02      0.00
  -19   21    1      8.40      0.00
  -21   21    3      2.33      0.00
  -23   21    5     -6.78      0.00
  -25   21    7      3.61      0.00
  -27   21    9     -1.80      0.00
    0   22   18     -6.54      0.00
    2   22   16      0.54      0.00
    4   22   14     -2.38      0.00
    6   22   12     -2.74      0.00
    8   22   10     -2.94      0.00
   10   22    8     -9.09      0.00
   12   22    6     -0.22      0.00
   14   22    4      2.57      0.00
   16   22    2     -0.40      0.00
   18   22    0     -6.70      0.00
  -20   22    2    -11.97      0.00
  -22   22    4     -0.64      0.00
  -24   22    6     -4.49      0.00
  -26   22    8     -1.88      0.00
   -1   23   19      3.51      0.00
    1   23   17     -6.81      0.00
    3   23   15     -5.92      0.00
    5   23   13      0.68      0.00
    7   23   11     -2.06      0.00
    9   23    9      1.08      0.00
   11   23    7      0.27      0.00
   13   23    5     -1.46      0.00
   15   23    3     -1.28      0.00
   17   23    1     -9.95      0.00
  -19   23    1      1.72      0.00
  -21   23    3     -6.14      0.00
  -23   23    5    -12.92      0.00
  -25   23    7     -0.32      0.00
  -27   23    9     -2.44      0.00
    0   24   18     -6.36      0.00
    2   24   16      1.49      0.00
    4   24   14      1.38      0.00
    6   24   12      4.67      0.00
    8   24   10      1.90      0.00
   10   24    8     -8.33      0.00
   12   24    6     -1.95      0.00
   14   24    4      2.89      0.00
   16   24    2      1.28      0.00
   18   24    0     -8.22      0.00
  -20   24    2    -13.29      0.00
  -22   24    4      2.82      0.00
  -24   24    6     -0.13      0.00
  -26   24    8     -4.42      0.00
    1   25   17     -2.73      0.00
    3   25   15     -0.94      0.00
    5   25   13      2.39      0.00
    7   25   11      0.37      0.00
    9   25    9      0.56      0.00
   11   25    7     -0.97      0.00
   13   25    5     -0.72      0.00
   15   25    3      0.80      0.00
   17   25    1     -5.62      0.00
  -19   25    1      1.04      0.00
  -21   25    3     -3.51      0.00
  -23   25    5     -7.09      0.00
  -25   25    7      1.63      0.00
    2   26   16      3.38      0.00
    4   26   14      0.68      0.00
    6   26   12      4.90      0.00
    8   26   10      1.07      0.00
   10   26    8     -3.33      0.00
   12   26    6     -0.41      0.00
   14   26    4      2.50      0.00
   16   26    2      4.45      0.00
   18   26    0     -2.68      0.00
  -20   26    2     -6.57      0.00
  -22   26    4      5.18      0.00
  -24   26    6      0.15      0.00
    1   27   17      1.56      0.00
    3   27   15      1.95      0.00
    5   27   13      2.60      0.00
    7   27   11     -3.06      0.00
    9   27    9     -2.72      0.00
   11   27    7     -0.94      0.00
   13   27    5     -0.47      0.00
   15   27    3     -2.68      0.00
   17   27    1     -5.26      0.00
  -19   27    1      3.13      0.00
  -21   27    3     -5.58      0.00
  -23   27    5     -6.48      0.00
    2   28   16      3.91      0.00
    4   28   14     -2.06      0.00
    6   28   12      0.49      0.00
    8   28   10      0.04      0.00
   10   28    8      0.39      0.00
   12   28    6     -0.63      0.00
   14   28    4      1.43      0.00
   16   28    2      3.27      0.00
   18   28    0      1.78      0.00
  -20   28    2     -3.09      0.00
  -22   28    4      1.45      0.00
  -24   28    6     -3.58      0.00
    3   29   15     -2.27      0.00
    5   29   13     -1.84      0.00
    7   29   11     -2.47      0.00
    9   29    9      0.92      0.00
   11   29    7      0.05      0.00
   13   29    5      4.09      0.00
   15   29    3      1.99      0.00
   17   29    1     -2.01      0.00
  -19   29    1      7.29      0.00
  -21   29    3     -6.09      0.00
  -23   29    5     -2.56      0.00
    4   30   14      3.43      0.00
    6   30   12      4.07      0.00
    8   30   10      5.50      0.00
   10   30    8      4.15      0.00
   12   30    6      1.69      0.00
   14   30    4      4.41      0.00
   16   30    2      6.90      0.00
   18   30    0      0.49      0.00
  -20   30    2     -1.86      0.00
  -22   30    4      6.73      0.00
    5   31   13      0.15      0.00
    7   31   11     -2.39      0.00
    9   31    9     -1.99      0.00
   11   31    7     -1.46      0.00
   13   31    5      0.38      0.00
   15   31    3     -0.63      0.00
   17   31    1     -9.25      0.00
  -19   31    1     -1.20      0.00
  -21   31    3     -3.41      0.00
    6   32   12      3.20      0.00
    8   32   10     -0.32      0.00
   10   32    8     -2.70      0.00
   12   32    6     -0.73      0.00
   14   32    4      1.09      0.00
   16   32    2      5.31      0.00
   18   32    0     -4.27      0.00
  -20   32    2     -7.10      0.00
    7   33   11     -9.80      0.00
    9   33    9     -6.70      0.00
   11   33    7      0.05      0.00
   13   33    5     -0.74      0.00
   15   33    3     -1.73      0.00
   17   33    1     -6.11      0.00
   10   34    8     -1.56      0.00
   12   34    6     -2.03      0.00
   14   34    4      0.31      0.00
   16   34    2      7.18      0.00
   -4    0   23     -5.68      0.00
   -2    0   21     -6.81      0.00
    0    0   19     -9.16      0.00
    2    0   17     -6.57      0.00
    4    0   15     -0.74      0.00
    6    0   13      5.11      0.00
    8    0   11     17.18      0.00
   10    0    9      9.09      0.00
   12    0    7     -3.44      0.00
   14    0    5    -24.97      0.00
   16    0    3     -4.12      0.00
   18    0    1     -3.70      0.00
  -20    0    1     -4.02      0.00
  -22    0    3      2.24      0.00
  -24    0    5     -1.62      0.00
  -26    0    7     -3.00      0.00
  -28    0    9     -4.91      0.00
  -30    0   11     -6.19      0.00
   -3    1   22     -2.06      0.00
   -1    1   20     -0.93      0.00
    1    1   18      0.97      0.00
    3    1   16     -4.17      0.00
    5    1   14      4.06      0.00
    7    1   12      1.86      0.00
    9    1   10     13.60      0.00
   11    1    8      6.52      0.00
   13    1    6    -13.87      0.00
   15    1    4     -8.78      0.00
   17    1    2     -8.89      0.00
   19    1    0     -2.57      0.00
  -21    1    2     -4.98      0.00
  -23    1    4     -6.44      0.00
  -25    1    6      6.68      0.00
  -27    1    8     -7.29      0.00
  -29    1   10      1.93      0.00
  -31    1   12      3.26      0.00
   -4    2   23      1.34      0.00
   -2    2   21     -1.12      0.00
    0    2   19     -5.68      0.00
    2    2   17     -3.42      0.00
    4    2   15     -3.33      0.00
    6    2   13      6.52      0.00
    8    2   11      6.86      0.00
   10    2    9     -6.43      0.00
   12    2    7      3.33      0.00
   14    2    5     -1.47      0.00
   16    2    3      6.24      0.00
   18    2    1      2.36      0.00
  -20    2    1      3.05      0.00
  -22    2    3     11.41      0.00
  -24    2    5      0.83      0.00
  -26    2    7     -4.09      0.00
  -28    2    9     -0.31      0.00
  -30    2   11     -3.58      0.00
   -3    3   22      5.47      0.00
   -1    3   20      3.17      0.00
    1    3   18     -1.45      0.00
    3    3   16     -7.28      0.00
    5    3   14      6.29      0.00
    7    3   12      4.94      0.00
    9    3   10      1.18      0.00
   11    3    8      3.72      0.00
   13    3    6      8.77      0.00
   15    3    4     10.71      0.00
   17    3    2    -10.46      0.00
   19    3    0      5.83      0.00
  -21    3    2      0.74      0.00
  -23    3    4     -0.35      0.00
  -25    3    6     -0.27      0.00
  -27    3    8     -6.19      0.00
  -29    3   10      2.07      0.00
  -31    3   12      2.39      0.00
   -4    4   23      2.42      0.00
   -2    4   21     -2.69      0.00
    0    4   19     -2.23      0.00
    2    4   17      0.69      0.00
    4    4   15     -6.90      0.00
    6    4   13      4.45      0.00
    8    4   11      2.32      0.00
   10    4    9     -9.53      0.00
   12    4    7      2.85      0.00
   14    4    5     -1.18      0.00
   16    4    3      3.67      0.00
   18    4    1      0.65      0.00
  -20    4    1      2.30      0.00
  -22    4    3     10.52      0.00
  -24    4    5     -4.35      0.00
  -26    4    7     -4.12      0.00
  -28    4    9      2.45      0.00
  -30    4   11     -1.79      0.00
   -3    5   22      4.00      0.00
   -1    5   20      1.19      0.00
    1    5   18     -3.91      0.00
    3    5   16     -5.75      0.00
    5    5   14     -1.10      0.00
    7    5   12     -6.90      0.00
    9    5   10      2.37      0.00
   11    5    8      4.56      0.00
   13    5    6     -3.42      0.00
   15    5    4     -1.61      0.00
   17    5    2    -10.61      0.00
   19    5    0      5.82      0.00
  -21    5    2     -0.87      0.00
  -23    5    4     -1.47      0.00
  -25    5    6      4.38      0.00
  -27    5    8     -5.40      0.00
  -29    5   10     -1.05      0.00
  -31    5   12      0.13      0.00
   -4    6   23      3.58      0.00
   -2    6   21     -3.09      0.00
    0    6   19      4.08      0.00
    2    6   17      3.73      0.00
    4    6   15     -6.51      0.00
    6    6   13     -1.72      0.00
    8    6   11      6.38      0.00
   10    6    9      1.74      0.00
   12    6    7     -4.26      0.00
   14    6    5    -15.45      0.00
   16    6    3      4.77      0.00
   18    6    1     -2.61      0.00
  -20    6    1      1.64      0.00
  -22    6    3      8.03      0.00
  -24    6    5     -5.95      0.00
  -26    6    7     -1.61      0.00
  -28    6    9     -1.57      0.00
  -30    6   11     -5.75      0.00
   -3    7   22      8.27      0.00
   -1    7   20      4.73      0.00
    1    7   18     -2.43      0.00
    3    7   16      2.19      0.00
    5    7   14      3.05      0.00
    7    7   12     -3.45      0.00
    9    7   10      4.72      0.00
   11    7    8      4.24      0.00
   13    7    6      1.84      0.00
   15    7    4      3.98      0.00
   17    7    2     -3.31      0.00
   19    7    0      2.53      0.00
  -21    7    2     -2.62      0.00
  -23    7    4     -0.75      0.00
  -25    7    6      8.24      0.00
  -27    7    8     -8.96      0.00
  -29    7   10     -3.12      0.00
  -31    7   12     -0.18      0.00
   -4    8   23      5.33      0.00
   -2    8   21      2.04      0.00
    0    8   19      4.84      0.00
    2    8   17      1.92      0.00
    4    8   15     -5.51      0.00
    6    8   13     -2.41      0.00
    8    8   11      6.77      0.00
   10    8    9     -0.43      0.00
   12    8    7     -3.83      0.00
   14    8    5     -4.50      0.00
   16    8    3      6.87      0.00
   18    8    1     -2.48      0.00
  -20    8    1      4.18      0.00
  -22    8    3     12.53      0.00
  -24    8    5      3.90      0.00
  -26    8    7     -2.71      0.00
  -28    8    9     -2.55      0.00
  -30    8   11     -4.92      0.00
   -3    9   22     10.28      0.00
   -1    9   20      4.39      0.00
    1    9   18     -9.22      0.00
    3    9   16     -4.02      0.00
    5    9   14      3.83      0.00
    7    9   12     -2.18      0.00
    9    9   10     -7.69      0.00
   11    9    8     -3.39      0.00
   13    9    6     10.26      0.00
   15    9    4     -0.09      0.00
   17    9    2    -10.40      0.00
   19    9    0      3.74      0.00
  -21    9    2     -4.23      0.00
  -23    9    4     -0.65      0.00
  -25    9    6      3.08      0.00
  -27    9    8     -6.24      0.00
  -29    9   10      0.60      0.00
  -31    9   12     -0.02      0.00
   -2   10   21      0.68      0.00
    0   10   19      0.70      0.00
    2   10   17      1.95      0.00
    4   10   15     -2.45      0.00
    6   10   13      2.22      0.00
    8   10   11      5.40      0.00
   10   10    9     -1.88      0.00
   12   10    7     -4.77      0.00
   14   10    5     -8.03      0.00
   16   10    3     -7.54      0.00
   18   10    1     -5.10      0.00
  -20   10    1     -0.21      0.00
  -22   10    3      9.14      0.00
  -24   10    5      4.41      0.00
  -26   10    7     -0.58      0.00
  -28   10    9      0.98      0.00
  -30   10   11     -1.66      0.00
   -3   11   22      7.97      0.00
   -1   11   20      2.45      0.00
    1   11   18     -8.38      0.00
    3   11   16     -3.80      0.00
    5   11   14      7.55      0.00
    7   11   12     -3.39      0.00
    9   11   10     -7.30      0.00
   11   11    8      1.33      0.00
   13   11    6      4.04      0.00
   15   11    4    -11.13      0.00
   17   11    2    -14.56      0.00
   19   11    0      3.87      0.00
  -21   11    2     -0.13      0.00
  -23   11    4      0.66      0.00
  -25   11    6      2.13      0.00
  -27   11    8      2.23      0.00
  -29   11   10      0.17      0.00
   -2   12   21      3.06      0.00
    0   12   19      5.16      0.00
    2   12   17      6.47      0.00
    4   12   15     -3.87      0.00
    6   12   13      5.82      0.00
    8   12   11     10.57      0.00
   10   12    9     -0.29      0.00
   12   12    7     -4.60      0.00
   14   12    5     -4.58      0.00
   16   12    3      1.69      0.00
   18   12    1     -5.28      0.00
  -20   12    1      6.60      0.00
  -22   12    3     15.28      0.00
  -24   12    5      3.39      0.00
  -26   12    7      1.52      0.00
  -28   12    9      0.33      0.00
  -30   12   11     -0.69      0.00
   -3   13   22      6.42      0.00
   -1   13   20      3.83      0.00
    1   13   18     -2.97      0.00
    3   13   16      2.55      0.00
    5   13   14      7.57      0.00
    7   13   12     -1.68      0.00
    9   13   10      1.87      0.00
   11   13    8      4.82      0.00
   13   13    6      3.39      0.00
   15   13    4     -3.82      0.00
   17   13    2    -11.96      0.00
   19   13    0      1.44      0.00
  -21   13    2      2.64      0.00
  -23   13    4      7.53      0.00
  -25   13    6      5.81      0.00
  -27   13    8     -3.12      0.00
  -29   13   10     -2.82      0.00
   -2   14   21     -0.20      0.00
    0   14   19      3.03      0.00
    2   14   17      2.74      0.00
    4   14   15     -8.56      0.00
    6   14   13      3.03      0.00
    8   14   11      9.54      0.00
   10   14    9     -4.80      0.00
   12   14    7     -7.96      0.00
   14   14    5     -3.61      0.00
   16   14    3      5.43      0.00
   18   14    1    -11.94      0.00
  -20   14    1      4.14      0.00
  -22   14    3      8.66      0.00
  -24   14    5      2.03      0.00
  -26   14    7     -4.09      0.00
  -28   14    9     -2.04      0.00
  -30   14   11     -1.70      0.00
   -1   15   20     -0.43      0.00
    1   15   18     -6.81      0.00
    3   15   16      2.24      0.00
    5   15   14      4.50      0.00
    7   15   12     -8.61      0.00
    9   15   10     -3.72      0.00
   11   15    8     -4.99      0.00
   13   15    6     -0.65      0.00
   15   15    4     -8.47      0.00
   17   15    2    -11.96      0.00
   19   15    0      4.45      0.00
  -21   15    2     -4.03      0.00
  -23   15    4      4.20      0.00
  -25   15    6      5.27      0.00
  -27   15    8     -4.77      0.00
  -29   15   10      2.46      0.00
   -2   16   21     -3.62      0.00
    0   16   19      0.77      0.00
    2   16   17      1.67      0.00
    4   16   15     -2.97      0.00
    6   16   13      3.32      0.00
    8   16   11     -1.97      0.00
   10   16    9     -8.99      0.00
   12   16    7     -8.41      0.00
   14   16    5     -8.88      0.00
   16   16    3      3.55      0.00
   18   16    1     -6.35      0.00
  -20   16    1      1.52      0.00
  -22   16    3      5.14      0.00
  -24   16    5      3.63      0.00
  -26   16    7      1.00      0.00
  -28   16    9      0.29      0.00
   -1   17   20      2.00      0.00
    1   17   18     -1.21      0.00
    3   17   16      5.37      0.00
    5   17   14     11.48      0.00
    7   17   12     -0.05      0.00
    9   17   10      0.64      0.00
   11   17    8     -3.27      0.00
   13   17    6      2.14      0.00
   15   17    4    -10.40      0.00
   17   17    2     -6.33      0.00
   19   17    0      9.74      0.00
  -21   17    2      0.34      0.00
  -23   17    4      3.75      0.00
  -25   17    6      5.82      0.00
  -27   17    8      1.47      0.00
  -29   17   10      5.71      0.00
    0   18   19      2.44      0.00
    2   18   17      2.69      0.00
    4   18   15     -0.75      0.00
    6   18   13      8.11      0.00
    8   18   11     -0.07      0.00
   10   18    9     -8.36      0.00
   12   18    7     -3.09      0.00
   14   18    5     -3.64      0.00
   16   18    3      7.84      0.00
   18   18    1     -3.59      0.00
  -20   18    1      1.10      0.00
  -22   18    3     11.57      0.00
  -24   18    5      5.40      0.00
  -26   18    7      5.76      0.00
  -28   18    9     -0.15      0.00
   -1   19   20      1.63      0.00
    1   19   18     -0.14      0.00
    3   19   16     -0.63      0.00
    5   19   14      2.92      0.00
    7   19   12     -1.03      0.00
    9   19   10     -1.57      0.00
   11   19    8     -6.25      0.00
   13   19    6     -0.09      0.00
   15   19    4     -8.39      0.00
   17   19    2     -4.06      0.00
   19   19    0     11.35      0.00
  -21   19    2      3.86      0.00
  -23   19    4      6.27      0.00
  -25   19    6      7.54      0.00
  -27   19    8     -2.01      0.00
    0   20   19      0.79      0.00
    2   20   17     -0.08      0.00
    4   20   15     -5.63      0.00
    6   20   13      1.39      0.00
    8   20   11     -1.00      0.00
   10   20    9     -9.91      0.00
   12   20    7     -1.68      0.00
   14   20    5     -0.25      0.00
   16   20    3      7.22      0.00
   18   20    1     -9.64      0.00
  -20   20    1     -4.15      0.00
  -22   20    3      5.83      0.00
  -24   20    5      0.32      0.00
  -26   20    7      2.96      0.00
  -28   20    9     -0.65      0.00
    1   21   18      0.24      0.00
    3   21   16      3.84      0.00
    5   21   14      3.73      0.00
    7   21   12     -3.61      0.00
    9   21   10      2.83      0.00
   11   21    8     -3.39      0.00
   13   21    6     -2.74      0.00
   15   21    4     -7.95      0.00
   17   21    2     -4.34      0.00
   19   21    0     13.49      0.00
  -21   21    2      0.09      0.00
  -23   21    4      2.06      0.00
  -25   21    6      6.80      0.00
  -27   21    8     -3.47      0.00
    0   22   19      0.92      0.00
    2   22   17      2.00      0.00
    4   22   15     -0.85      0.00
    6   22   13      1.46      0.00
    8   22   11     -1.54      0.00
   10   22    9     -7.67      0.00
   12   22    7      2.49      0.00
   14   22    5      0.74      0.00
   16   22    3      5.45      0.00
   18   22    1     -6.45      0.00
  -20   22    1     -0.03      0.00
  -22   22    3      5.75      0.00
  -24   22    5     -0.72      0.00
  -26   22    7      2.17      0.00
    1   23   18     -0.92      0.00
    3   23   16      7.26      0.00
    5   23   14      6.98      0.00
    7   23   12     -1.98      0.00
    9   23   10      7.98      0.00
   11   23    8      0.29      0.00
   13   23    6      0.71      0.00
   15   23    4     -2.76      0.00
   17   23    2     -2.66      0.00
   19   23    0      8.62      0.00
  -21   23    2     -1.62      0.00
  -23   23    4      1.16      0.00
  -25   23    6      1.29      0.00
  -27   23    8     -5.29      0.00
    2   24   17      1.72      0.00
    4   24   15     -0.93      0.00
    6   24   13      6.32      0.00
    8   24   11      1.76      0.00
   10   24    9     -6.71      0.00
   12   24    7      4.71      0.00
   14   24    5      0.02      0.00
   16   24    3      0.86      0.00
   18   24    1    -10.22      0.00
  -20   24    1     -4.50      0.00
  -22   24    3      2.43      0.00
  -24   24    5     -1.84      0.00
  -26   24    7      0.18      0.00
    3   25   16      0.03      0.00
    5   25   14      0.83      0.00
    7   25   12     -6.16      0.00
    9   25   10      2.86      0.00
   11   25    8     -2.79      0.00
   13   25    6     -0.44      0.00
   15   25    4     -0.12      0.00
   17   25    2     -2.10      0.00
   19   25    0      0.34      0.00
  -21   25    2     -4.46      0.00
  -23   25    4     -1.59      0.00
  -25   25    6     -2.75      0.00
    2   26   17     -0.11      0.00
    4   26   15     -7.29      0.00
    6   26   13      1.34      0.00
    8   26   11      1.24      0.00
   10   26    9     -1.64      0.00
   12   26    7      6.09      0.00
   14   26    5      1.30      0.00
   16   26    3      2.61      0.00
   18   26    1     -6.94      0.00
  -20   26    1     -2.43      0.00
  -22   26    3      0.45      0.00
  -24   26    5      0.10      0.00
    3   27   16     -1.94      0.00
    5   27   14      3.51      0.00
    7   27   12     -1.81      0.00
    9   27   10      8.46      0.00
   11   27    8      2.41      0.00
   13   27    6      2.55      0.00
   15   27    4      0.06      0.00
   17   27    2      2.76      0.00
   19   27    0      5.07      0.00
  -21   27    2     -2.55      0.00
  -23   27    4     -0.77      0.00
    4   28   15     -0.67      0.00
    6   28   13      2.80      0.00
    8   28   11      1.48      0.00
   10   28    9     -1.33      0.00
   12   28    7      4.03      0.00
   14   28    5      0.56      0.00
   16   28    3      3.55      0.00
   18   28    1     -1.53      0.00
  -20   28    1     -2.40      0.00
  -22   28    3      0.26      0.00
    5   29   14     -1.81      0.00
    7   29   12     -3.06      0.00
    9   29   10      5.07      0.00
   11   29    8     -4.95      0.00
   13   29    6     -1.90      0.00
   15   29    4     -1.95      0.00
   17   29    2      1.77      0.00
   19   29    0      2.36      0.00
  -21   29    2     -3.32      0.00
    6   30   13      3.25      0.00
    8   30   11     -1.24      0.00
   10   30    9     -7.45      0.00
   12   30    7     -0.47      0.00
   14   30    5     -1.14      0.00
   16   30    3      0.50      0.00
   18   30    1     -5.31      0.00
  -20   30    1     -4.84      0.00
    7   31   12     -4.50      0.00
    9   31   10      2.37      0.00
   11   31    8     -4.63      0.00
   13   31    6     -6.34      0.00
   15   31    4     -3.90      0.00
   17   31    2     -4.47      0.00
   19   31    0     -5.83      0.00
    8   32   11      0.81      0.00
   10   32    9     -2.37      0.00
   12   32    7      0.42      0.00
   14   32    5     -2.42      0.00
   16   32    3     -0.27      0.00
   18   32    1     -4.86      0.00
   11   33    8      0.67      0.00
   13   33    6     -3.32      0.00
   15   33    4     -0.85      0.00
   17   33    2      0.39      0.00
   -2    0   22     -3.04      0.00
    0    0   20      4.04      0.00
    2    0   18      8.64      0.00
    4    0   16     -4.32      0.00
    6    0   14     -3.53      0.00
    8    0   12      0.50      0.00
   10    0   10     -1.06      0.00
   12    0    8      2.78      0.00
   14    0    6      6.86      0.00
   16    0    4     21.75      0.00
   18    0    2     -5.67      0.00
   20    0    0     -8.01      0.00
  -22    0    2      2.51      0.00
  -24    0    4     -4.15      0.00
  -26    0    6     -0.55      0.00
  -28    0    8     -2.46      0.00
  -30    0   10     -3.36      0.00
  -32    0   12      6.12      0.00
   -3    1   23     -2.66      0.00
   -1    1   21     -0.07      0.00
    1    1   19     -5.17      0.00
    3    1   17      4.58      0.00
    5    1   15      3.44      0.00
    7    1   13     -6.00      0.00
    9    1   11      4.06      0.00
   11    1    9     -4.38      0.00
   13    1    7     -6.90      0.00
   15    1    5      0.65      0.00
   17    1    3     -0.54      0.00
   19    1    1     -1.72      0.00
  -21    1    1    -10.61      0.00
  -23    1    3      2.30      0.00
  -25    1    5     13.73      0.00
  -27    1    7     -6.18      0.00
  -29    1    9      5.55      0.00
  -31    1   11      1.73      0.00
   -2    2   22     -4.22      0.00
    0    2   20      0.59      0.00
    2    2   18      3.48      0.00
    4    2   16     -5.23      0.00
    6    2   14      2.94      0.00
    8    2   12     -5.65      0.00
   10    2   10     -5.85      0.00
   12    2    8      7.13      0.00
   14    2    6     -0.05      0.00
   16    2    4      1.33      0.00
   18    2    2     -8.55      0.00
   20    2    0     -4.28      0.00
  -22    2    2      5.70      0.00
  -24    2    4     -8.16      0.00
  -26    2    6      2.96      0.00
  -28    2    8      2.50      0.00
  -30    2   10     -2.34      0.00
  -32    2   12      8.60      0.00
   -3    3   23     -0.09      0.00
   -1    3   21     -3.07      0.00
    1    3   19     -6.36      0.00
    3    3   17      0.41      0.00
    5    3   15      3.09      0.00
    7    3   13     -5.43      0.00
    9    3   11      4.19      0.00
   11    3    9      6.59      0.00
   13    3    7     -1.02      0.00
   15    3    5    -11.01      0.00
   17    3    3    -15.05      0.00
   19    3    1      4.39      0.00
  -21    3    1     -5.45      0.00
  -23    3    3      0.44      0.00
  -25    3    5      5.42      0.00
  -27    3    7     -1.38      0.00
  -29    3    9      5.80      0.00
  -31    3   11      1.55      0.00
   -2    4   22      0.87      0.00
    0    4   20      3.84      0.00
    2    4   18     -0.50      0.00
    4    4   16     -5.81      0.00
    6    4   14      9.64      0.00
    8    4   12     -3.70      0.00
   10    4   10     -6.71      0.00
   12    4    8      6.71      0.00
   14    4    6      0.81      0.00
   16    4    4      3.87      0.00
   18    4    2     -0.60      0.00
   20    4    0     -1.25      0.00
  -22    4    2      4.88      0.00
  -24    4    4    -12.74      0.00
  -26    4    6      5.12      0.00
  -28    4    8      2.33      0.00
  -30    4   10     -1.52      0.00
   -3    5   23      7.09      0.00
   -1    5   21     -0.28      0.00
    1    5   19     -2.77      0.00
    3    5   17      2.81      0.00
    5    5   15     -5.10      0.00
    7    5   13    -13.70      0.00
    9    5   11      0.35      0.00
   11    5    9      0.95      0.00
   13    5    7     -1.49      0.00
   15    5    5      3.45      0.00
   17    5    3     -1.09      0.00
   19    5    1     11.96      0.00
  -21    5    1     -2.55      0.00
  -23    5    3      1.15      0.00
  -25    5    5     10.86      0.00
  -27    5    7     -2.31      0.00
  -29    5    9      5.02      0.00
  -31    5   11      0.14      0.00
   -2    6   22      4.07      0.00
    0    6   20      7.82      0.00
    2    6   18     -2.88      0.00
    4    6   16     -9.71      0.00
    6    6   14      2.85      0.00
    8    6   12      0.85      0.00
   10    6   10     -6.25      0.00
   12    6    8     -4.14      0.00
   14    6    6     -0.26      0.00
   16    6    4     15.24      0.00
   18    6    2     -2.90      0.00
   20    6    0     -4.26      0.00
  -22    6    2      2.75      0.00
  -24    6    4    -12.12      0.00
  -26    6    6      0.06      0.00
  -28    6    8     -3.51      0.00
  -30    6   10     -1.27      0.00
   -1    7   21     -5.57      0.00
    1    7   19     -5.79      0.00
    3    7   17      5.25      0.00
    5    7   15     -7.89      0.00
    7    7   13    -11.88      0.00
    9    7   11     -5.92      0.00
   11    7    9     -6.80      0.00
   13    7    7     -1.36      0.00
   15    7    5      2.21      0.00
   17    7    3     -6.36      0.00
   19    7    1      0.54      0.00
  -21    7    1    -11.00      0.00
  -23    7    3     -3.53      0.00
  -25    7    5      6.21      0.00
  -27    7    7     -9.63      0.00
  -29    7    9      5.34      0.00
  -31    7   11      0.69      0.00
   -2    8   22      1.73      0.00
    0    8   20      3.89      0.00
    2    8   18     -3.08      0.00
    4    8   16     -7.10      0.00
    6    8   14      1.30      0.00
    8    8   12      0.14      0.00
   10    8   10     -5.32      0.00
   12    8    8     -1.91      0.00
   14    8    6     -3.85      0.00
   16    8    4      0.60      0.00
   18    8    2     -7.40      0.00
   20    8    0     -4.35      0.00
  -22    8    2      5.98      0.00
  -24    8    4     -7.96      0.00
  -26    8    6     -1.13      0.00
  -28    8    8     -1.35      0.00
  -30    8   10     -1.89      0.00
   -1    9   21     -1.44      0.00
    1    9   19     -4.07      0.00
    3    9   17      6.38      0.00
    5    9   15     -2.76      0.00
    7    9   13     -6.05      0.00
    9    9   11     -8.86      0.00
   11    9    9     -1.29      0.00
   13    9    7      5.61      0.00
   15    9    5     -3.18      0.00
   17    9    3     -2.43      0.00
   19    9    1      4.71      0.00
  -21    9    1    -10.30      0.00
  -23    9    3     -1.46      0.00
  -25    9    5      1.38      0.00
  -27    9    7     -7.74      0.00
  -29    9    9      4.66      0.00
  -31    9   11      0.20      0.00
   -2   10   22      3.01      0.00
    0   10   20      2.29      0.00
    2   10   18      2.94      0.00
    4   10   16      2.15      0.00
    6   10   14      5.07      0.00
    8   10   12      3.05      0.00
   10   10   10      6.67      0.00
   12   10    8     10.03      0.00
   14   10    6      5.12      0.00
   16   10    4      3.02      0.00
   18   10    2      5.06      0.00
   20   10    0      1.32      0.00
  -22   10    2      7.94      0.00
  -24   10    4     -7.60      0.00
  -26   10    6      3.95      0.00
  -28   10    8     -1.91      0.00
  -30   10   10     -4.76      0.00
   -1   11   21      0.19      0.00
    1   11   19     -6.58      0.00
    3   11   17      0.57      0.00
    5   11   15      1.09      0.00
    7   11   13     -4.42      0.00
    9   11   11     -6.17      0.00
   11   11    9      7.15      0.00
   13   11    7      6.60      0.00
   15   11    5      0.48      0.00
   17   11    3      4.73      0.00
   19   11    1     10.27      0.00
  -21   11    1     -6.68      0.00
  -23   11    3     -6.24      0.00
  -25   11    5      0.62      0.00
  -27   11    7     -5.14      0.00
  -29   11    9     -0.15      0.00
  -31   11   11      0.06      0.00
   -2   12   22      0.91      0.00
    0   12   20     -1.56      0.00
    2   12   18      1.61      0.00
    4   12   16     -1.62      0.00
    6   12   14      1.43      0.00
    8   12   12     -0.54      0.00
   10   12   10     -0.06      0.00
   12   12    8      4.07      0.00
   14   12    6      9.24      0.00
   16   12    4      6.77      0.00
   18   12    2     -1.69      0.00
   20   12    0      2.15      0.00
  -22   12    2      7.20      0.00
  -24   12    4    -11.83      0.00
  -26   12    6     -0.24      0.00
  -28   12    8     -4.49      0.00
  -30   12   10     -0.70      0.00
   -1   13   21      0.85      0.00
    1   13   19     -6.74      0.00
    3   13   17     -0.05      0.00
    5   13   15      1.74      0.00
    7   13   13     -0.64      0.00
    9   13   11     -6.35      0.00
   11   13    9     -0.26      0.00
   13   13    7      1.73      0.00
   15   13    5      3.35      0.00
   17   13    3     -2.55      0.00
   19   13    1      7.37      0.00
  -21   13    1     -8.07      0.00
  -23   13    3     -8.16      0.00
  -25   13    5     -0.03      0.00
  -27   13    7     -7.80      0.00
  -29   13    9      1.72      0.00
    0   14   20      2.04      0.00
    2   14   18      4.61      0.00
    4   14   16     -0.93      0.00
    6   14   14      5.12      0.00
    8   14   12      2.97      0.00
   10   14   10     -2.32      0.00
   12   14    8      5.75      0.00
   14   14    6      9.64      0.00
   16   14    4      5.11      0.00
   18   14    2     -5.79      0.00
   20   14    0     -0.36      0.00
  -22   14    2      6.51      0.00
  -24   14    4     -8.00      0.00
  -26   14    6     -4.57      0.00
  -28   14    8      0.15      0.00
  -30   14   10      1.19      0.00
   -1   15   21      5.19      0.00
    1   15   19     -0.79      0.00
    3   15   17      6.13      0.00
    5   15   15     -0.63      0.00
    7   15   13     -1.22      0.00
    9   15   11      4.05      0.00
   11   15    9      2.30      0.00
   13   15    7      1.68      0.00
   15   15    5      5.22      0.00
   17   15    3      2.49      0.00
   19   15    1     10.42      0.00
  -21   15    1     -7.00      0.00
  -23   15    3     -1.57      0.00
  -25   15    5      2.97      0.00
  -27   15    7     -6.88      0.00
  -29   15    9      4.45      0.00
    0   16   20      4.73      0.00
    2   16   18      3.64      0.00
    4   16   16     -0.99      0.00
    6   16   14      3.19      0.00
    8   16   12     -1.05      0.00
   10   16   10      0.68      0.00
   12   16    8     10.92      0.00
   14   16    6      4.46      0.00
   16   16    4      2.13      0.00
   18   16    2      0.00      0.00
   20   16    0     -0.77      0.00
  -22   16    2      5.49      0.00
  -24   16    4     -5.78      0.00
  -26   16    6      1.12      0.00
  -28   16    8      0.68      0.00
    1   17   19     -4.72      0.00
    3   17   17      1.98      0.00
    5   17   15     -1.74      0.00
    7   17   13     -6.11      0.00
    9   17   11      3.64      0.00
   11   17    9      3.51      0.00
   13   17    7      1.47      0.00
   15   17    5      5.83      0.00
   17   17    3      4.07      0.00
   19   17    1      2.17      0.00
  -21   17    1     -8.77      0.00
  -23   17    3     -5.52      0.00
  -25   17    5      2.57      0.00
  -27   17    7     -6.74      0.00
  -29   17    9      2.97      0.00
    0   18   20      0.61      0.00
    2   18   18     -0.76      0.00
    4   18   16     -2.65      0.00
    6   18   14      3.18      0.00
    8   18   12     -5.81      0.00
   10   18   10     -6.24      0.00
   12   18    8      9.56      0.00
   14   18    6      4.95      0.00
   16   18    4      0.85      0.00
   18   18    2     -2.73      0.00
   20   18    0     -2.30      0.00
  -22   18    2      5.28      0.00
  -24   18    4     -6.98      0.00
  -26   18    6      2.51      0.00
  -28   18    8     -1.23      0.00
    1   19   19     -2.94      0.00
    3   19   17      1.01      0.00
    5   19   15      2.75      0.00
    7   19   13     -3.34      0.00
    9   19   11     -3.44      0.00
   11   19    9     -0.56      0.00
   13   19    7     -0.36      0.00
   15   19    5      5.73      0.00
   17   19    3      2.85      0.00
   19   19    1      4.36      0.00
  -21   19    1     -1.73      0.00
  -23   19    3     -0.20      0.00
  -25   19    5      7.66      0.00
  -27   19    7     -4.71      0.00
    2   20   18      3.96      0.00
    4   20   16     -1.18      0.00
    6   20   14      2.14      0.00
    8   20   12     -0.12      0.00
   10   20   10     -3.22      0.00
   12   20    8     10.02      0.00
   14   20    6      5.80      0.00
   16   20    4      2.37      0.00
   18   20    2     -2.06      0.00
   20   20    0     -4.41      0.00
  -22   20    2      4.47      0.00
  -24   20    4     -1.93      0.00
  -26   20    6      1.51      0.00
  -28   20    8     -1.88      0.00
    1   21   19      1.79      0.00
    3   21   17      2.80      0.00
    5   21   15      0.89      0.00
    7   21   13     -1.77      0.00
    9   21   11      3.48      0.00
   11   21    9      2.11      0.00
   13   21    7     -3.83      0.00
   15   21    5     -0.03      0.00
   17   21    3     -0.12      0.00
   19   21    1      7.96      0.00
  -21   21    1     -4.27      0.00
  -23   21    3     -2.87      0.00
  -25   21    5      6.83      0.00
  -27   21    7     -2.73      0.00
    2   22   18      2.26      0.00
    4   22   16     -5.57      0.00
    6   22   14     -6.87      0.00
    8   22   12     -4.09      0.00
   10   22   10     -6.95      0.00
   12   22    8      3.42      0.00
   14   22    6     -0.21      0.00
   16   22    4     -1.02      0.00
   18   22    2     -4.37      0.00
   20   22    0     -9.56      0.00
  -22   22    2     -2.51      0.00
  -24   22    4     -5.21      0.00
  -26   22    6      1.41      0.00
    3   23   17      1.84      0.00
    5   23   15     -2.74      0.00
    7   23   13     -6.23      0.00
    9   23   11      1.47      0.00
   11   23    9      1.17      0.00
   13   23    7     -1.17      0.00
   15   23    5     -0.80      0.00
   17   23    3     -3.92      0.00
   19   23    1      2.48      0.00
  -21   23    1     -8.21      0.00
  -23   23    3     -8.52      0.00
  -25   23    5     -1.38      0.00
    4   24   16     -2.39      0.00
    6   24   14      1.31      0.00
    8   24   12      0.05      0.00
   10   24   10     -2.92      0.00
   12   24    8      6.48      0.00
   14   24    6      2.50      0.00
   16   24    4     -2.98      0.00
   18   24    2    -10.14      0.00
   20   24    0     -6.99      0.00
  -22   24    2      0.84      0.00
  -24   24    4     -7.52      0.00
  -26   24    6      1.74      0.00
    5   25   15      4.44      0.00
    7   25   13     -1.54      0.00
    9   25   11     -0.44      0.00
   11   25    9     -0.71      0.00
   13   25    7      1.99      0.00
   15   25    5      1.81      0.00
   17   25    3     -1.95      0.00
   19   25    1      3.93      0.00
  -21   25    1     -4.20      0.00
  -23   25    3     -4.23      0.00
  -25   25    5     -0.92      0.00
    4   26   16     -1.95      0.00
    6   26   14      1.10      0.00
    8   26   12     -0.81      0.00
   10   26   10      0.29      0.00
   12   26    8      2.06      0.00
   14   26    6     -1.44      0.00
   16   26    4     -0.73      0.00
   18   26    2     -6.01      0.00
   20   26    0     -1.76      0.00
  -22   26    2      5.47      0.00
  -24   26    4     -1.26      0.00
    5   27   15      4.56      0.00
    7   27   13     -0.08      0.00
    9   27   11      1.43      0.00
   11   27    9     -5.01      0.00
   13   27    7     -0.42      0.00
   15   27    5      1.38      0.00
   17   27    3      2.14      0.00
   19   27    1      3.74      0.00
  -21   27    1     -9.33      0.00
  -23   27    3     -1.97      0.00
    6   28   14     -2.16      0.00
    8   28   12     -3.91      0.00
   10   28   10     -1.68      0.00
   12   28    8     -0.40      0.00
   14   28    6     -4.68      0.00
   16   28    4      1.36      0.00
   18   28    2     -2.03      0.00
   20   28    0     -4.56      0.00
  -22   28    2      4.84      0.00
    7   29   13     -0.78      0.00
    9   29   11      1.51      0.00
   11   29    9     -5.85      0.00
   13   29    7      1.73      0.00
   15   29    5      3.15      0.00
   17   29    3      0.53      0.00
   19   29    1      1.59      0.00
  -21   29    1     -6.83      0.00
    8   30   12     -1.92      0.00
   10   30   10     -1.02      0.00
   12   30    8      4.49      0.00
   14   30    6      0.78      0.00
   16   30    4      0.42      0.00
   18   30    2     -3.42      0.00
   20   30    0     -0.48      0.00
   11   31    9     -3.62      0.00
   13   31    7      0.34      0.00
   15   31    5      2.73      0.00
   17   31    3     -5.64      0.00
   19   31    1     -0.60      0.00
   12   32    8     -0.13      0.00
   14   32    6     -0.65      0.00
   16   32    4     -0.25      0.00
    0    0   21     -2.05      0.00
    2    0   19     -8.18      0.00
    4    0   17     -6.67      0.00
    6    0   15     -4.29      0.00
    8    0   13     -0.69      0.00
   10    0   11      2.65      0.00
   12    0    9      4.31      0.00
   14    0    7     -4.83      0.00
   16    0    5     -6.16      0.00
   18    0    3    -23.23      0.00
   20    0    1     -8.49      0.00
  -22    0    1     -1.73      0.00
  -24    0    3     -3.61      0.00
  -26    0    5     -6.63      0.00
  -28    0    7     -6.26      0.00
  -30    0    9     -3.89      0.00
  -32    0   11      4.18      0.00
   -1    1   22    -11.81      0.00
    1    1   20     -5.40      0.00
    3    1   18     -4.95      0.00
    5    1   16     -8.06      0.00
    7    1   14     -0.75      0.00
    9    1   12      8.66      0.00
   11    1   10     -3.17      0.00
   13    1    8     -8.15      0.00
   15    1    6      2.15      0.00
   17    1    4     -5.38      0.00
   19    1    2     -3.61      0.00
   21    1    0     -4.31      0.00
  -23    1    2      1.67      0.00
  -25    1    4     -6.27      0.00
  -27    1    6    -12.91      0.00
  -29    1    8      1.84      0.00
  -31    1   10     -1.33      0.00
    0    2   21      0.76      0.00
    2    2   19     -3.59      0.00
    4    2   17     -0.22      0.00
    6    2   15      0.02      0.00
    8    2   13     -8.95      0.00
   10    2   11     -1.07      0.00
   12    2    9      7.46      0.00
   14    2    7     -2.86      0.00
   16    2    5     -1.65      0.00
   18    2    3     -4.93      0.00
   20    2    1      2.96      0.00
  -22    2    1      2.47      0.00
  -24    2    3     -6.06      0.00
  -26    2    5      0.81      0.00
  -28    2    7     -2.09      0.00
  -30    2    9     -3.53      0.00
  -32    2   11      3.42      0.00
   -1    3   22     -7.48      0.00
    1    3   20      0.30      0.00
    3    3   18      1.67      0.00
    5    3   16      0.82      0.00
    7    3   14     -5.27      0.00
    9    3   12      5.68      0.00
   11    3   10      5.71      0.00
   13    3    8     -2.01      0.00
   15    3    6      4.58      0.00
   17    3    4      6.83      0.00
   19    3    2     10.86      0.00
   21    3    0     -3.82      0.00
  -23    3    2      1.36      0.00
  -25    3    4     -1.53      0.00
  -27    3    6     -9.54      0.00
  -29    3    8     -3.44      0.00
  -31    3   10     -1.21      0.00
    0    4   21     -0.90      0.00
    2    4   19     -3.16      0.00
    4    4   17      2.57      0.00
    6    4   15      4.92      0.00
    8    4   13     -6.57      0.00
   10    4   11      1.11      0.00
   12    4    9      8.70      0.00
   14    4    7     -2.96      0.00
   16    4    5     -2.00      0.00
   18    4    3     -0.71      0.00
   20    4    1      4.78      0.00
  -22    4    1      1.89      0.00
  -24    4    3     -9.57      0.00
  -26    4    5      1.85      0.00
  -28    4    7     -3.05      0.00
  -30    4    9     -3.17      0.00
   -1    5   22     -4.60      0.00
    1    5   20      0.75      0.00
    3    5   18      2.22      0.00
    5    5   16     -0.02      0.00
    7    5   14     -2.12      0.00
    9    5   12      6.35      0.00
   11    5   10     -2.27      0.00
   13    5    8     -4.25      0.00
   15    5    6      4.54      0.00
   17    5    4     -2.98      0.00
   19    5    2      5.16      0.00
   21    5    0     -4.23      0.00
  -23    5    2      6.24      0.00
  -25    5    4      7.10      0.00
  -27    5    6     -9.02      0.00
  -29    5    8     -1.72      0.00
  -31    5   10     -2.19      0.00
    0    6   21      3.28      0.00
    2    6   19     -0.13      0.00
    4    6   17      1.19      0.00
    6    6   15      5.20      0.00
    8    6   13      0.62      0.00
   10    6   11      3.93      0.00
   12    6    9      6.96      0.00
   14    6    7     -4.25      0.00
   16    6    5     -1.34      0.00
   18    6    3     -9.20      0.00
   20    6    1      3.99      0.00
  -22    6    1      4.70      0.00
  -24    6    3     -4.95      0.00
  -26    6    5     -2.66      0.00
  -28    6    7     -4.18      0.00
  -30    6    9     -3.21      0.00
   -1    7   22      0.29      0.00
    1    7   20      2.87      0.00
    3    7   18      5.42      0.00
    5    7   16      0.07      0.00
    7    7   14      3.16      0.00
    9    7   12      3.37      0.00
   11    7   10     -5.60      0.00
   13    7    8      2.16      0.00
   15    7    6      7.42      0.00
   17    7    4     -3.22      0.00
   19    7    2      3.85      0.00
   21    7    0     -1.76      0.00
  -23    7    2      8.07      0.00
  -25    7    4      2.43      0.00
  -27    7    6     -9.53      0.00
  -29    7    8      2.18      0.00
  -31    7   10     -3.10      0.00
    0    8   21      3.36      0.00
    2    8   19      1.48      0.00
    4    8   17      1.15      0.00
    6    8   15      5.53      0.00
    8    8   13     -2.72      0.00
   10    8   11      2.00      0.00
   12    8    9      9.92      0.00
   14    8    7     -3.32      0.00
   16    8    5      0.34      0.00
   18    8    3     -4.56      0.00
   20    8    1      7.25      0.00
  -22    8    1     10.87      0.00
  -24    8    3     -2.53      0.00
  -26    8    5     -1.43      0.00
  -28    8    7      0.24      0.00
  -30    8    9     -3.86      0.00
   -1    9   22     -0.38      0.00
    1    9   20      1.38      0.00
    3    9   18      7.07      0.00
    5    9   16      0.65      0.00
    7    9   14     -2.50      0.00
    9    9   12     -3.07      0.00
   11    9   10     -3.94      0.00
   13    9    8      0.55      0.00
   15    9    6     -3.27      0.00
   17    9    4      1.24      0.00
   19    9    2      0.71      0.00
   21    9    0     -6.90      0.00
  -23    9    2      6.74      0.00
  -25    9    4     -2.16      0.00
  -27    9    6     -7.65      0.00
  -29    9    8      0.86      0.00
  -31    9   10     -1.41      0.00
    0   10   21     -1.10      0.00
    2   10   19      0.47      0.00
    4   10   17      1.43      0.00
    6   10   15      3.25      0.00
    8   10   13     -2.60      0.00
   10   10   11      2.90      0.00
   12   10    9      3.62      0.00
   14   10    7     -6.12      0.00
   16   10    5     -1.57      0.00
   18   10    3     -5.15      0.00
   20   10    1      0.86      0.00
  -22   10    1      3.76      0.00
  -24   10    3     -4.93      0.00
  -26   10    5      2.87      0.00
  -28   10    7     -2.86      0.00
  -30   10    9     -4.03      0.00
    1   11   20     -0.13      0.00
    3   11   18      6.65      0.00
    5   11   16      4.00      0.00
    7   11   14     -5.26      0.00
    9   11   12     -0.66      0.00
   11   11   10      0.68      0.00
   13   11    8     -1.23      0.00
   15   11    6     -5.04      0.00
   17   11    4      3.10      0.00
   19   11    2      2.13      0.00
   21   11    0    -10.52      0.00
  -23   11    2      3.49      0.00
  -25   11    4      4.29      0.00
  -27   11    6     -3.25      0.00
  -29   11    8     -0.48      0.00
    0   12   21      5.26      0.00
    2   12   19      5.30      0.00
    4   12   17      2.64      0.00
    6   12   15      2.43      0.00
    8   12   13     -2.41      0.00
   10   12   11      1.83      0.00
   12   12    9      2.97      0.00
   14   12    7     -1.19      0.00
   16   12    5     -0.92      0.00
   18   12    3     -4.57      0.00
   20   12    1      9.94      0.00
  -22   12    1      5.97      0.00
  -24   12    3     -0.70      0.00
  -26   12    5      5.12      0.00
  -28   12    7     -3.27      0.00
  -30   12    9     -0.67      0.00
    1   13   20     -0.35      0.00
    3   13   18      5.56      0.00
    5   13   16      4.91      0.00
    7   13   14     -2.90      0.00
    9   13   12     -0.71      0.00
   11   13   10      0.84      0.00
   13   13    8      4.55      0.00
   15   13    6      1.15      0.00
   17   13    4     -0.03      0.00
   19   13    2      8.62      0.00
   21   13    0     -4.36      0.00
  -23   13    2      8.83      0.00
  -25   13    4      3.77      0.00
  -27   13    6     -1.82      0.00
  -29   13    8      2.21      0.00
    0   14   21      3.48      0.00
    2   14   19     -0.70      0.00
    4   14   17     -4.16      0.00
    6   14   15      3.72      0.00
    8   14   13     -1.12      0.00
   10   14   11     -3.71      0.00
   12   14    9      2.73      0.00
   14   14    7     -1.91      0.00
   16   14    5     -2.83      0.00
   18   14    3     -6.98      0.00
   20   14    1      9.16      0.00
  -22   14    1      7.23      0.00
  -24   14    3     -3.85      0.00
  -26   14    5     -1.11      0.00
  -28   14    7      0.41      0.00
  -30   14    9     -2.56      0.00
    1   15   20     -4.99      0.00
    3   15   18      2.02      0.00
    5   15   16     -1.41      0.00
    7   15   14     -5.18      0.00
    9   15   12     -0.23      0.00
   11   15   10     -8.77      0.00
   13   15    8     -3.39      0.00
   15   15    6     -0.88      0.00
   17   15    4      0.47      0.00
   19   15    2      3.01      0.00
   21   15    0     -8.55      0.00
  -23   15    2      9.76      0.00
  -25   15    4     -0.06      0.00
  -27   15    6     -3.65      0.00
  -29   15    8      1.25      0.00
    2   16   19     -1.01      0.00
    4   16   17     -0.77      0.00
    6   16   15      6.36      0.00
    8   16   13      1.05      0.00
   10   16   11     -4.43      0.00
   12   16    9     -3.92      0.00
   14   16    7    -10.57      0.00
   16   16    5     -1.92      0.00
   18   16    3     -6.27      0.00
   20   16    1      4.36      0.00
  -22   16    1      5.84      0.00
  -24   16    3     -2.80      0.00
  -26   16    5      3.38      0.00
  -28   16    7      0.36      0.00
    1   17   20     -3.10      0.00
    3   17   18      5.28      0.00
    5   17   16      1.73      0.00
    7   17   14     -3.62      0.00
    9   17   12      6.45      0.00
   11   17   10     -2.35      0.00
   13   17    8     -0.27      0.00
   15   17    6     -1.38      0.00
   17   17    4      1.17      0.00
   19   17    2      1.34      0.00
   21   17    0     -7.70      0.00
  -23   17    2      5.06      0.00
  -25   17    4      3.67      0.00
  -27   17    6     -4.27      0.00
  -29   17    8      1.31      0.00
    2   18   19      1.84      0.00
    4   18   17      6.37      0.00
    6   18   15      7.04      0.00
    8   18   13     -2.58      0.00
   10   18   11      0.67      0.00
   12   18    9      3.46      0.00
   14   18    7     -7.91      0.00
   16   18    5     -1.59      0.00
   18   18    3     -4.45      0.00
   20   18    1      7.42      0.00
  -22   18    1      8.08      0.00
  -24   18    3      1.39      0.00
  -26   18    5      5.25      0.00
  -28   18    7     -0.74      0.00
    3   19   18      1.03      0.00
    5   19   16     -1.92      0.00
    7   19   14     -5.60      0.00
    9   19   12      1.61      0.00
   11   19   10     -2.46      0.00
   13   19    8     -0.54      0.00
   15   19    6     -3.31      0.00
   17   19    4     -4.15      0.00
   19   19    2      2.96      0.00
   21   19    0     -1.90      0.00
  -23   19    2      4.56      0.00
  -25   19    4      1.89      0.00
  -27   19    6     -4.24      0.00
    4   20   17      0.00      0.00
    6   20   15      2.37      0.00
    8   20   13     -6.13      0.00
   10   20   11     -4.99      0.00
   12   20    9      1.86      0.00
   14   20    7     -4.29      0.00
   16   20    5      2.48      0.00
   18   20    3     -4.04      0.00
   20   20    1     -0.39      0.00
  -22   20    1      3.13      0.00
  -24   20    3      0.30      0.00
  -26   20    5      1.11      0.00
  -28   20    7     -1.45      0.00
    3   21   18     -1.07      0.00
    5   21   16     -4.30      0.00
    7   21   14     -0.62      0.00
    9   21   12      8.07      0.00
   11   21   10     -3.12      0.00
   13   21    8     -3.35      0.00
   15   21    6      0.77      0.00
   17   21    4     -1.71      0.00
   19   21    2      0.04      0.00
   21   21    0     -5.63      0.00
  -23   21    2      5.95      0.00
  -25   21    4      1.87      0.00
  -27   21    6     -4.26      0.00
    4   22   17     -1.49      0.00
    6   22   15      3.65      0.00
    8   22   13     -0.12      0.00
   10   22   11     -5.04      0.00
   12   22    9      2.77      0.00
   14   22    7     -2.52      0.00
   16   22    5      3.17      0.00
   18   22    3     -2.64      0.00
   20   22    1     -0.52      0.00
  -22   22    1      2.80      0.00
  -24   22    3      1.30      0.00
  -26   22    5      5.11      0.00
    5   23   16      0.54      0.00
    7   23   14     -0.46      0.00
    9   23   12     10.03      0.00
   11   23   10      1.72      0.00
   13   23    8     -0.38      0.00
   15   23    6      0.10      0.00
   17   23    4      0.00      0.00
   19   23    2      1.86      0.00
   21   23    0     -5.03      0.00
  -23   23    2      4.88      0.00
  -25   23    4      3.10      0.00
    6   24   15      1.29      0.00
    8   24   13     -0.92      0.00
   10   24   11      1.69      0.00
   12   24    9     10.35      0.00
   14   24    7     -1.98      0.00
   16   24    5     -2.69      0.00
   18   24    3     -4.64      0.00
   20   24    1      3.15      0.00
  -22   24    1     -0.69      0.00
  -24   24    3     -4.72      0.00
    5   25   16      2.89      0.00
    7   25   14     -3.98      0.00
    9   25   12      3.18      0.00
   11   25   10     -1.67      0.00
   13   25    8      0.26      0.00
   15   25    6     -0.12      0.00
   17   25    4      1.09      0.00
   19   25    2      4.53      0.00
   21   25    0     -4.06      0.00
  -23   25    2     -0.04      0.00
  -25   25    4     -2.24      0.00
    6   26   15     -4.38      0.00
    8   26   13     -2.85      0.00
   10   26   11      2.21      0.00
   12   26    9      7.17      0.00
   14   26    7     -0.29      0.00
   16   26    5      2.74      0.00
   18   26    3     -2.87      0.00
   20   26    1      1.77      0.00
  -22   26    1     -0.18      0.00
  -24   26    3     -0.05      0.00
    7   27   14      0.09      0.00
    9   27   12      7.57      0.00
   11   27   10     -1.82      0.00
   13   27    8      4.30      0.00
   15   27    6      6.37      0.00
   17   27    4      4.16      0.00
   19   27    2      1.02      0.00
   21   27    0     -2.16      0.00
  -23   27    2      5.48      0.00
    8   28   13      0.46      0.00
   10   28   11     -0.97      0.00
   12   28    9      3.71      0.00
   14   28    7     -0.24      0.00
   16   28    5      6.86      0.00
   18   28    3     -3.05      0.00
   20   28    1     -1.42      0.00
  -22   28    1      2.86      0.00
    9   29   12      3.70      0.00
   11   29   10     -3.89      0.00
   13   29    8      0.77      0.00
   15   29    6      0.30      0.00
   17   29    4     -1.51      0.00
   19   29    2     -3.13      0.00
   21   29    0     -2.16      0.00
   12   30    9      2.46      0.00
   14   30    7     -3.25      0.00
   16   30    5      0.07      0.00
   18   30    3     -4.30      0.00
   15   31    6     -2.33      0.00
    0    0   22     -6.42      0.00
    2    0   20     -0.40      0.00
    4    0   18     -1.55      0.00
    6    0   16     -0.83      0.00
    8    0   14     -9.55      0.00
   10    0   12     -5.25      0.00
   12    0   10      7.68      0.00
   14    0    8      1.77      0.00
   16    0    6      5.25      0.00
   18    0    4     -8.86      0.00
   20    0    2      4.26      0.00
   22    0    0     -2.88      0.00
  -24    0    2     -8.98      0.00
  -26    0    4      7.09      0.00
  -28    0    6      4.00      0.00
  -30    0    8     -1.85      0.00
    1    1   21     -3.41      0.00
    3    1   19     -1.43      0.00
    5    1   17     -9.02      0.00
    7    1   15     -5.43      0.00
    9    1   13      3.05      0.00
   11    1   11    -10.84      0.00
   13    1    9     -2.11      0.00
   15    1    7      8.78      0.00
   17    1    5     -2.01      0.00
   19    1    3     -2.35      0.00
   21    1    1     -7.82      0.00
  -23    1    1      5.53      0.00
  -25    1    3      1.18      0.00
  -27    1    5     -4.88      0.00
  -29    1    7      8.86      0.00
  -31    1    9      0.64      0.00
    0    2   22     -4.43      0.00
    2    2   20     -1.08      0.00
    4    2   18     -1.91      0.00
    6    2   16     -1.51      0.00
    8    2   14     -8.12      0.00
   10    2   12      3.59      0.00
   12    2   10      9.27      0.00
   14    2    8     -5.60      0.00
   16    2    6     -0.74      0.00
   18    2    4     -7.01      0.00
   20    2    2      1.39      0.00
   22    2    0     -1.92      0.00
  -24    2    2     -8.54      0.00
  -26    2    4     11.38      0.00
  -28    2    6      2.65      0.00
  -30    2    8     -0.85      0.00
    1    3   21      1.78      0.00
    3    3   19      3.35      0.00
    5    3   17     -3.88      0.00
    7    3   15     -8.25      0.00
    9    3   13     10.65      0.00
   11    3   11      5.47      0.00
   13    3    9     -0.69      0.00
   15    3    7      0.98      0.00
   17    3    5      1.27      0.00
   19    3    3      1.49      0.00
   21    3    1    -12.21      0.00
  -23    3    1      1.34      0.00
  -25    3    3      3.57      0.00
  -27    3    5     -6.28      0.00
  -29    3    7      4.00      0.00
  -31    3    9      0.19      0.00
    0    4   22      0.94      0.00
    2    4   20     -1.78      0.00
    4    4   18     -1.29      0.00
    6    4   16      2.51      0.00
    8    4   14     -3.40      0.00
   10    4   12      5.02      0.00
   12    4   10      9.01      0.00
   14    4    8     -3.13      0.00
   16    4    6      2.66      0.00
   18    4    4      1.66      0.00
   20    4    2      4.76      0.00
   22    4    0      0.60      0.00
  -24    4    2     -8.44      0.00
  -26    4    4      8.21      0.00
  -28    4    6     -2.47      0.00
  -30    4    8     -0.47      0.00
    1    5   21      5.33      0.00
    3    5   19      8.21      0.00
    5    5   17     -1.41      0.00
    7    5   15     -3.75      0.00
    9    5   13      7.01      0.00
   11    5   11     -2.78      0.00
   13    5    9     -0.67      0.00
   15    5    7      8.94      0.00
   17    5    5      4.64      0.00
   19    5    3      8.06      0.00
   21    5    1     -6.72      0.00
  -23    5    1      6.38      0.00
  -25    5    3      4.91      0.00
  -27    5    5     -7.46      0.00
  -29    5    7     10.68      0.00
  -31    5    9      2.34      0.00
    0    6   22      2.54      0.00
    2    6   20     -2.88      0.00
    4    6   18     -0.85      0.00
    6    6   16      6.98      0.00
    8    6   14     -4.64      0.00
   10    6   12     -3.74      0.00
   12    6   10      5.37      0.00
   14    6    8     -2.39      0.00
   16    6    6      0.63      0.00
   18    6    4     -1.84      0.00
   20    6    2      8.19      0.00
   22    6    0      2.10      0.00
  -24    6    2     -9.54      0.00
  -26    6    4      2.60      0.00
  -28    6    6     -2.03      0.00
  -30    6    8     -1.44      0.00
    1    7   21      1.28      0.00
    3    7   19      6.08      0.00
    5    7   17     -4.98      0.00
    7    7   15     -1.44      0.00
    9    7   13      1.85      0.00
   11    7   11     -5.71      0.00
   13    7    9     -1.29      0.00
   15    7    7      6.09      0.00
   17    7    5     -1.79      0.00
   19    7    3      0.89      0.00
   21    7    1    -10.02      0.00
  -23    7    1      0.53      0.00
  -25    7    3     -2.88      0.00
  -27    7    5     -6.52      0.00
  -29    7    7     12.34      0.00
  -31    7    9      0.73      0.00
    2    8   20     -2.22      0.00
    4    8   18     -0.66      0.00
    6    8   16      4.80      0.00
    8    8   14     -9.82      0.00
   10    8   12      0.56      0.00
   12    8   10      7.87      0.00
   14    8    8     -8.42      0.00
   16    8    6     -4.44      0.00
   18    8    4     -6.54      0.00
   20    8    2      4.62      0.00
   22    8    0      2.36      0.00
  -24    8    2    -14.56      0.00
  -26    8    4      4.75      0.00
  -28    8    6      2.13      0.00
  -30    8    8     -2.62      0.00
    1    9   21      7.23      0.00
    3    9   19      9.46      0.00
    5    9   17     -3.27      0.00
    7    9   15     -0.16      0.00
    9    9   13      1.37      0.00
   11    9   11      0.84      0.00
   13    9    9      3.61      0.00
   15    9    7      3.51      0.00
   17    9    5      3.84      0.00
   19    9    3     -1.05      0.00
   21    9    1    -10.05      0.00
  -23    9    1     -1.20      0.00
  -25    9    3     -1.16      0.00
  -27    9    5     -3.62      0.00
  -29    9    7      5.00      0.00
  -31    9    9     -3.63      0.00
    2   10   20      1.03      0.00
    4   10   18      1.75      0.00
    6   10   16     -0.44      0.00
    8   10   14     -8.80      0.00
   10   10   12      7.48      0.00
   12   10   10      7.96      0.00
   14   10    8     -0.67      0.00
   16   10    6      6.87      0.00
   18   10    4     -1.06      0.00
   20   10    2      1.22      0.00
   22   10    0      3.61      0.00
  -24   10    2     -9.73      0.00
  -26   10    4      3.72      0.00
  -28   10    6     -5.66      0.00
  -30   10    8     -2.31      0.00
    1   11   21      5.29      0.00
    3   11   19      2.05      0.00
    5   11   17     -6.79      0.00
    7   11   15     -0.78      0.00
    9   11   13      3.32      0.00
   11   11   11      2.18      0.00
   13   11    9      6.76      0.00
   15   11    7      9.23      0.00
   17   11    5      9.31      0.00
   19   11    3      2.92      0.00
   21   11    1     -8.84      0.00
  -23   11    1      1.76      0.00
  -25   11    3      2.20      0.00
  -27   11    5     -8.86      0.00
  -29   11    7      1.08      0.00
    2   12   20     -1.33      0.00
    4   12   18      1.02      0.00
    6   12   16     -3.76      0.00
    8   12   14    -12.60      0.00
   10   12   12      1.05      0.00
   12   12   10      2.47      0.00
   14   12    8     -0.31      0.00
   16   12    6      2.99      0.00
   18   12    4     -0.36      0.00
   20   12    2      0.44      0.00
   22   12    0     -0.21      0.00
  -24   12    2     -6.61      0.00
  -26   12    4      0.83      0.00
  -28   12    6     -7.85      0.00
  -30   12    8     -0.61      0.00
    3   13   19      0.39      0.00
    5   13   17     -5.97      0.00
    7   13   15     -2.02      0.00
    9   13   13     -0.22      0.00
   11   13   11      0.23      0.00
   13   13    9      3.28      0.00
   15   13    7      5.26      0.00
   17   13    5      2.88      0.00
   19   13    3      5.81      0.00
   21   13    1     -8.53      0.00
  -23   13    1      0.38      0.00
  -25   13    3     -1.76      0.00
  -27   13    5     -5.45      0.00
  -29   13    7      4.93      0.00
    2   14   20     -1.36      0.00
    4   14   18      1.27      0.00
    6   14   16      4.46      0.00
    8   14   14     -6.92      0.00
   10   14   12     -1.38      0.00
   12   14   10      8.76      0.00
   14   14    8      3.64      0.00
   16   14    6      0.07      0.00
   18   14    4     -0.02      0.00
   20   14    2      2.94      0.00
   22   14    0      0.59      0.00
  -24   14    2    -11.35      0.00
  -26   14    4      3.31      0.00
  -28   14    6      0.82      0.00
  -30   14    8     -1.17      0.00
    3   15   19      7.88      0.00
    5   15   17     -0.14      0.00
    7   15   15      0.23      0.00
    9   15   13      1.42      0.00
   11   15   11      0.96      0.00
   13   15    9      4.50      0.00
   15   15    7      7.62      0.00
   17   15    5      2.50      0.00
   19   15    3      2.93      0.00
   21   15    1     -4.83      0.00
  -23   15    1      3.27      0.00
  -25   15    3      2.06      0.00
  -27   15    5      0.15      0.00
  -29   15    7      4.56      0.00
    4   16   18      0.49      0.00
    6   16   16      4.86      0.00
    8   16   14      0.83      0.00
   10   16   12      0.97      0.00
   12   16   10      9.02      0.00
   14   16    8      4.27      0.00
   16   16    6      2.61      0.00
   18   16    4     -1.47      0.00
   20   16    2      3.25      0.00
   22   16    0      5.06      0.00
  -24   16    2     -6.35      0.00
  -26   16    4      4.64      0.00
  -28   16    6     -0.68      0.00
    3   17   19      4.12      0.00
    5   17   17     -3.91      0.00
    7   17   15     -3.57      0.00
    9   17   13      3.02      0.00
   11   17   11     -0.48      0.00
   13   17    9     -0.80      0.00
   15   17    7      6.63      0.00
   17   17    5      3.68      0.00
   19   17    3     -2.34      0.00
   21   17    1     -8.79      0.00
  -23   17    1     -2.09      0.00
  -25   17    3      1.50      0.00
  -27   17    5     -5.53      0.00
  -29   17    7      3.89      0.00
    4   18   18      1.26      0.00
    6   18   16     -0.74      0.00
    8   18   14     -1.48      0.00
   10   18   12      3.66      0.00
   12   18   10      7.20      0.00
   14   18    8     -0.44      0.00
   16   18    6      0.05      0.00
   18   18    4      1.34      0.00
   20   18    2      3.80      0.00
   22   18    0      1.14      0.00
  -24   18    2     -3.16      0.00
  -26   18    4      3.61      0.00
  -28   18    6      0.21      0.00
    5   19   17     -0.44      0.00
    7   19   15     -1.15      0.00
    9   19   13      2.09      0.00
   11   19   11     -0.14      0.00
   13   19    9     -4.51      0.00
   15   19    7      2.64      0.00
   17   19    5     -0.39      0.00
   19   19    3     -1.85      0.00
   21   19    1     -4.32      0.00
  -23   19    1      1.25      0.00
  -25   19    3      1.51      0.00
  -27   19    5     -1.56      0.00
    4   20   18      5.70      0.00
    6   20   16      3.26      0.00
    8   20   14     -0.62      0.00
   10   20   12      1.17      0.00
   12   20   10      7.82      0.00
   14   20    8      3.15      0.00
   16   20    6     -0.36      0.00
   18   20    4      0.23      0.00
   20   20    2      2.94      0.00
   22   20    0      2.45      0.00
  -24   20    2     -0.44      0.00
  -26   20    4      6.88      0.00
    5   21   17      0.99      0.00
    7   21   15      2.64      0.00
    9   21   13      0.72      0.00
   11   21   11     -0.12      0.00
   13   21    9     -0.84      0.00
   15   21    7      2.49      0.00
   17   21    5     -5.79      0.00
   19   21    3     -2.90      0.00
   21   21    1     -0.43      0.00
  -23   21    1      6.00      0.00
  -25   21    3      2.13      0.00
  -27   21    5     -1.25      0.00
    6   22   16      0.19      0.00
    8   22   14     -0.86      0.00
   10   22   12     -5.12      0.00
   12   22   10      0.55      0.00
   14   22    8     -0.84      0.00
   16   22    6      0.18      0.00
   18   22    4     -3.62      0.00
   20   22    2     -1.88      0.00
   22   22    0      0.65      0.00
  -24   22    2     -2.46      0.00
  -26   22    4      4.49      0.00
    7   23   15     -1.14      0.00
    9   23   13      0.38      0.00
   11   23   11     -1.31      0.00
   13   23    9     -3.49      0.00
   15   23    7     -2.26      0.00
   17   23    5     -3.15      0.00
   19   23    3      2.07      0.00
   21   23    1     -2.45      0.00
  -23   23    1      2.04      0.00
  -25   23    3      1.67      0.00
    8   24   14      0.42      0.00
   10   24   12      4.27      0.00
   12   24   10      3.63      0.00
   14   24    8     -3.63      0.00
   16   24    6      2.55      0.00
   18   24    4     -1.37      0.00
   20   24    2     -2.70      0.00
   22   24    0     -3.63      0.00
  -24   24    2     -4.74      0.00
    9   25   13      4.99      0.00
   11   25   11     -0.59      0.00
   13   25    9     -1.29      0.00
   15   25    7     -1.11      0.00
   17   25    5      1.65      0.00
   19   25    3      7.44      0.00
   21   25    1     -0.71      0.00
  -23   25    1      4.57      0.00
    8   26   14      0.16      0.00
   10   26   12      2.77      0.00
   12   26   10      2.31      0.00
   14   26    8     -4.73      0.00
   16   26    6     -0.19      0.00
   18   26    4     -3.82      0.00
   20   26    2     -0.49      0.00
   22   26    0      0.17      0.00
   11   27   11     -4.17      0.00
   13   27    9      4.24      0.00
   15   27    7      3.40      0.00
   17   27    5     -1.14      0.00
   19   27    3      1.86      0.00
   21   27    1     -0.92      0.00
   12   28   10      3.15      0.00
   14   28    8     -4.28      0.00
   16   28    6     -2.16      0.00
   18   28    4     -7.83      0.00
   20   28    2     -0.29      0.00
   13   29    9      5.25      0.00
   15   29    7      3.88      0.00
   17   29    5     -2.66      0.00
   19   29    3     -0.25      0.00
    2    0   21      2.91      0.00
    4    0   19     -2.07      0.00
    6    0   17     -2.24      0.00
    8    0   15     -2.72      0.00
   10    0   13      3.75      0.00
   12    0   11      8.53      0.00
   14    0    9      1.67      0.00
   16    0    7     -1.30      0.00
   18    0    5     -7.05      0.00
   20    0    3      2.65      0.00
   22    0    1     -5.49      0.00
  -24    0    1     -5.44      0.00
  -26    0    3      5.43      0.00
  -28    0    5     -4.51      0.00
  -30    0    7     -3.69      0.00
    3    1   20     -6.48      0.00
    5    1   18     -7.89      0.00
    7    1   16     -1.86      0.00
    9    1   14      1.50      0.00
   11    1   12     -4.88      0.00
   13    1   10     -0.54      0.00
   15    1    8     -0.87      0.00
   17    1    6    -15.91      0.00
   19    1    4     -5.51      0.00
   21    1    2     -3.71      0.00
   23    1    0      8.89      0.00
  -25    1    2      0.12      0.00
  -27    1    4     -1.94      0.00
  -29    1    6      7.82      0.00
  -31    1    8     -0.05      0.00
    2    2   21      3.94      0.00
    4    2   19      2.93      0.00
    6    2   17     -3.00      0.00
    8    2   15     -1.77      0.00
   10    2   13      7.79      0.00
   12    2   11      1.89      0.00
   14    2    9     -3.68      0.00
   16    2    7      7.89      0.00
   18    2    5      4.32      0.00
   20    2    3      2.63      0.00
   22    2    1     -3.23      0.00
  -24    2    1     -1.84      0.00
  -26    2    3      7.78      0.00
  -28    2    5     -6.45      0.00
  -30    2    7     -1.25      0.00
    3    3   20     -2.69      0.00
    5    3   18     -0.52      0.00
    7    3   16      1.34      0.00
    9    3   14      7.67      0.00
   11    3   12     -4.59      0.00
   13    3   10     -6.46      0.00
   15    3    8      2.58      0.00
   17    3    6      0.89      0.00
   19    3    4      0.34      0.00
   21    3    2     -6.18      0.00
   23    3    0      7.24      0.00
  -25    3    2      2.73      0.00
  -27    3    4     -5.91      0.00
  -29    3    6      2.66      0.00
  -31    3    8     -1.97      0.00
    2    4   21     -0.81      0.00
    4    4   19      5.77      0.00
    6    4   17     -2.81      0.00
    8    4   15     -3.01      0.00
   10    4   13      7.61      0.00
   12    4   11      3.29      0.00
   14    4    9     -3.46      0.00
   16    4    7      7.14      0.00
   18    4    5      6.02      0.00
   20    4    3      1.00      0.00
   22    4    1     -1.48      0.00
  -24    4    1     -1.70      0.00
  -26    4    3      3.66      0.00
  -28    4    5     -6.29      0.00
  -30    4    7     -0.49      0.00
    3    5   20     -0.58      0.00
    5    5   18      2.19      0.00
    7    5   16      4.44      0.00
    9    5   14      5.03      0.00
   11    5   12     -3.70      0.00
   13    5   10     -0.11      0.00
   15    5    8      3.63      0.00
   17    5    6     -4.92      0.00
   19    5    4     -0.04      0.00
   21    5    2     -5.34      0.00
   23    5    0     10.79      0.00
  -25    5    2      3.20      0.00
  -27    5    4     -4.22      0.00
  -29    5    6      7.04      0.00
  -31    5    8      0.30      0.00
    2    6   21      0.33      0.00
    4    6   19      7.46      0.00
    6    6   17      3.52      0.00
    8    6   15     -4.79      0.00
   10    6   13      3.12      0.00
   12    6   11      9.59      0.00
   14    6    9      0.11      0.00
   16    6    7     -1.22      0.00
   18    6    5     -1.00      0.00
   20    6    3      5.18      0.00
   22    6    1      0.44      0.00
  -24    6    1     -4.36      0.00
  -26    6    3      3.07      0.00
  -28    6    5      1.03      0.00
  -30    6    7     -2.71      0.00
    3    7   20      0.66      0.00
    5    7   18      0.22      0.00
    7    7   16      3.45      0.00
    9    7   14      3.25      0.00
   11    7   12     -1.50      0.00
   13    7   10      3.72      0.00
   15    7    8      8.21      0.00
   17    7    6     -1.97      0.00
   19    7    4      3.42      0.00
   21    7    2     -2.01      0.00
   23    7    0      7.88      0.00
  -25    7    2      0.72      0.00
  -27    7    4     -0.37      0.00
  -29    7    6      4.76      0.00
  -31    7    8     -1.05      0.00
    2    8   21      2.35      0.00
    4    8   19      3.98      0.00
    6    8   17      2.83      0.00
    8    8   15     -6.51      0.00
   10    8   13      6.38      0.00
   12    8   11      6.69      0.00
   14    8    9     -6.56      0.00
   16    8    7      1.72      0.00
   18    8    5     -0.11      0.00
   20    8    3      4.27      0.00
   22    8    1     -1.55      0.00
  -24    8    1     -4.36      0.00
  -26    8    3      8.29      0.00
  -28    8    5     -1.11      0.00
  -30    8    7     -3.28      0.00
    3    9   20      1.66      0.00
    5    9   18      0.18      0.00
    7    9   16      2.59      0.00
    9    9   14      3.77      0.00
   11    9   12     -3.30      0.00
   13    9   10     -0.33      0.00
   15    9    8      2.52      0.00
   17    9    6     -2.18      0.00
   19    9    4     -3.56      0.00
   21    9    2     -2.12      0.00
   23    9    0      5.60      0.00
  -25    9    2     -0.55      0.00
  -27    9    4     -1.17      0.00
  -29    9    6     -1.17      0.00
  -31    9    8     -5.30      0.00
    4   10   19      2.32      0.00
    6   10   17     -1.93      0.00
    8   10   15     -6.21      0.00
   10   10   13      5.39      0.00
   12   10   11     -1.05      0.00
   14   10    9     -8.92      0.00
   16   10    7      1.63      0.00
   18   10    5     -6.71      0.00
   20   10    3     -4.80      0.00
   22   10    1     -6.51      0.00
  -24   10    1     -4.00      0.00
  -26   10    3      2.70      0.00
  -28   10    5     -9.09      0.00
  -30   10    7      0.44      0.00
    3   11   20     -0.60      0.00
    5   11   18     -0.75      0.00
    7   11   16      1.70      0.00
    9   11   14      4.29      0.00
   11   11   12     -3.72      0.00
   13   11   10      2.35      0.00
   15   11    8      1.58      0.00
   17   11    6     -1.59      0.00
   19   11    4     -4.67      0.00
   21   11    2     -3.14      0.00
   23   11    0      9.45      0.00
  -25   11    2     -4.24      0.00
  -27   11    4     -4.71      0.00
  -29   11    6      1.23      0.00
    4   12   19      7.78      0.00
    6   12   17      0.57      0.00
    8   12   15     -3.90      0.00
   10   12   13      3.08      0.00
   12   12   11     -0.80      0.00
   14   12    9     -2.57      0.00
   16   12    7      0.49      0.00
   18   12    5     -5.51      0.00
   20   12    3      0.39      0.00
   22   12    1     -1.17      0.00
  -24   12    1     -0.59      0.00
  -26   12    3      4.32      0.00
  -28   12    5     -3.23      0.00
  -30   12    7      2.00      0.00
    3   13   20      0.02      0.00
    5   13   18     -0.93      0.00
    7   13   16     -2.17      0.00
    9   13   14      0.64      0.00
   11   13   12     -0.84      0.00
   13   13   10      2.97      0.00
   15   13    8     -1.36      0.00
   17   13    6      2.80      0.00
   19   13    4      4.31      0.00
   21   13    2     -3.24      0.00
   23   13    0     12.43      0.00
  -25   13    2     -0.50      0.00
  -27   13    4      1.36      0.00
  -29   13    6      1.29      0.00
    4   14   19      0.98      0.00
    6   14   17     -0.38      0.00
    8   14   15     -5.99      0.00
   10   14   13      0.68      0.00
   12   14   11      1.55      0.00
   14   14    9     -4.17      0.00
   16   14    7     -0.92      0.00
   18   14    5     -2.40      0.00
   20   14    3      6.06      0.00
   22   14    1      2.59      0.00
  -24   14    1     -2.52      0.00
  -26   14    3      7.83      0.00
  -28   14    5     -3.11      0.00
    5   15   18     -2.01      0.00
    7   15   16     -2.50      0.00
    9   15   14     -4.10      0.00
   11   15   12     -8.02      0.00
   13   15   10     -2.25      0.00
   15   15    8     -6.43      0.00
   17   15    6     -1.73      0.00
   19   15    4      1.92      0.00
   21   15    2     -4.69      0.00
   23   15    0      6.81      0.00
  -25   15    2      0.12      0.00
  -27   15    4      2.57      0.00
  -29   15    6      1.20      0.00
    4   16   19      2.08      0.00
    6   16   17      3.97      0.00
    8   16   15     -0.92      0.00
   10   16   13      1.06      0.00
   12   16   11     -0.37      0.00
   14   16    9     -7.33      0.00
   16   16    7      0.67      0.00
   18   16    5     -4.10      0.00
   20   16    3      4.13      0.00
   22   16    1      2.06      0.00
  -24   16    1      1.67      0.00
  -26   16    3      6.84      0.00
  -28   16    5     -6.51      0.00
    5   17   18     -3.44      0.00
    7   17   16      2.34      0.00
    9   17   14      3.94      0.00
   11   17   12     -8.83      0.00
   13   17   10     -0.75      0.00
   15   17    8     -1.39      0.00
   17   17    6     -1.43      0.00
   19   17    4     -1.72      0.00
   21   17    2     -4.36      0.00
   23   17    0      4.18      0.00
  -25   17    2     -4.04      0.00
  -27   17    4     -0.27      0.00
    6   18   17      5.55      0.00
    8   18   15      0.63      0.00
   10   18   13      4.99      0.00
   12   18   11      1.77      0.00
   14   18    9     -5.14      0.00
   16   18    7      2.07      0.00
   18   18    5     -0.59      0.00
   20   18    3      5.70      0.00
   22   18    1      1.86      0.00
  -24   18    1      6.49      0.00
  -26   18    3      8.52      0.00
  -28   18    5     -2.33      0.00
    7   19   16     -2.62      0.00
    9   19   14      4.89      0.00
   11   19   12     -6.87      0.00
   13   19   10     -3.30      0.00
   15   19    8     -2.99      0.00
   17   19    6     -0.94      0.00
   19   19    4      0.56      0.00
   21   19    2     -1.09      0.00
   23   19    0      5.95      0.00
  -25   19    2     -5.34      0.00
  -27   19    4      0.55      0.00
    6   20   17      2.32      0.00
    8   20   15     -6.42      0.00
   10   20   13     -1.08      0.00
   12   20   11      0.45      0.00
   14   20    9     -5.67      0.00
   16   20    7     -2.03      0.00
   18   20    5     -0.39      0.00
   20   20    3      6.89      0.00
   22   20    1      0.97      0.00
  -24   20    1      1.47      0.00
  -26   20    3      6.69      0.00
    7   21   16     -3.32      0.00
    9   21   14      2.13      0.00
   11   21   12     -3.80      0.00
   13   21   10     -0.10      0.00
   15   21    8     -1.38      0.00
   17   21    6     -0.58      0.00
   19   21    4      3.36      0.00
   21   21    2      0.60      0.00
   23   21    0      6.43      0.00
  -25   21    2     -3.62      0.00
    8   22   15     -1.90      0.00
   10   22   13     -2.02      0.00
   12   22   11      1.81      0.00
   14   22    9     -3.15      0.00
   16   22    7      0.26      0.00
   18   22    5     -2.92      0.00
   20   22    3      3.92      0.00
   22   22    1      1.24      0.00
  -24   22    1      1.65      0.00
  -26   22    3      5.63      0.00
    9   23   14      7.36      0.00
   11   23   12     -2.55      0.00
   13   23   10     -1.04      0.00
   15   23    8      0.01      0.00
   17   23    6      2.20      0.00
   19   23    4      4.90      0.00
   21   23    2      0.22      0.00
   23   23    0      9.08      0.00
  -25   23    2      1.69      0.00
   10   24   13      0.36      0.00
   12   24   11     -0.08      0.00
   14   24    9     -2.91      0.00
   16   24    7      4.50      0.00
   18   24    5     -3.18      0.00
   20   24    3      0.63      0.00
   22   24    1     -3.01      0.00
  -24   24    1     -0.78      0.00
   11   25   12     -2.80      0.00
   13   25   10     -1.66      0.00
   15   25    8      0.52      0.00
   17   25    6      5.71      0.00
   19   25    4      6.64      0.00
   21   25    2     -0.47      0.00
   23   25    0      9.73      0.00
   12   26   11      0.63      0.00
   14   26    9     -4.26      0.00
   16   26    7      2.79      0.00
   18   26    5     -3.37      0.00
   20   26    3      2.77      0.00
   22   26    1     -1.49      0.00
   13   27   10      6.68      0.00
   15   27    8      2.69      0.00
   17   27    6      2.74      0.00
   19   27    4      5.95      0.00
   16   28    7      0.74      0.00
    4    0   20     -2.04      0.00
    6    0   18      1.42      0.00
    8    0   16     -4.91      0.00
   10    0   14      0.49      0.00
   12    0   12      2.96      0.00
   14    0   10     -6.64      0.00
   16    0    8     -1.10      0.00
   18    0    6      0.46      0.00
   20    0    4      3.32      0.00
   22    0    2     -7.10      0.00
   24    0    0     -0.94      0.00
  -26    0    2      8.38      0.00
  -28    0    4     -2.40      0.00
  -30    0    6      3.35      0.00
    3    1   21     -5.20      0.00
    5    1   19     -4.86      0.00
    7    1   17     -2.08      0.00
    9    1   15     -3.30      0.00
   11    1   13     -8.22      0.00
   13    1   11      0.80      0.00
   15    1    9      1.42      0.00
   17    1    7     -5.88      0.00
   19    1    5      5.49      0.00
   21    1    3      0.27      0.00
   23    1    1      8.25      0.00
  -25    1    1      3.51      0.00
  -27    1    3      4.60      0.00
  -29    1    5      9.71      0.00
  -31    1    7     -0.66      0.00
    4    2   20     -0.32      0.00
    6    2   18     -1.71      0.00
    8    2   16     -1.53      0.00
   10    2   14      3.42      0.00
   12    2   12     -0.79      0.00
   14    2   10     -3.69      0.00
   16    2    8      4.27      0.00
   18    2    6     -5.28      0.00
   20    2    4     -4.45      0.00
   22    2    2     -4.62      0.00
   24    2    0      3.91      0.00
  -26    2    2     10.18      0.00
  -28    2    4     -4.13      0.00
  -30    2    6      3.53      0.00
    3    3   21     -2.39      0.00
    5    3   19     -5.66      0.00
    7    3   17     -1.13      0.00
    9    3   15      4.05      0.00
   11    3   13     -6.44      0.00
   13    3   11     -1.24      0.00
   15    3    9      4.05      0.00
   17    3    7     -3.47      0.00
   19    3    5     -4.18      0.00
   21    3    3     -1.42      0.00
   23    3    1     10.94      0.00
  -25    3    1     -0.94      0.00
  -27    3    3     -5.59      0.00
  -29    3    5      7.45      0.00
  -31    3    7     -2.73      0.00
    4    4   20      1.18      0.00
    6    4   18     -5.63      0.00
    8    4   16     -1.51      0.00
   10    4   14      5.12      0.00
   12    4   12     -0.74      0.00
   14    4   10     -0.25      0.00
   16    4    8      9.94      0.00
   18    4    6     -0.78      0.00
   20    4    4     -3.27      0.00
   22    4    2     -1.40      0.00
   24    4    0      2.55      0.00
  -26    4    2      7.52      0.00
  -28    4    4     -3.54      0.00
  -30    4    6      0.26      0.00
    5    5   19     -2.71      0.00
    7    5   17     -2.25      0.00
    9    5   15     -0.85      0.00
   11    5   13     -0.24      0.00
   13    5   11      1.68      0.00
   15    5    9     -2.11      0.00
   17    5    7     -2.16      0.00
   19    5    5      6.41      0.00
   21    5    3     -0.28      0.00
   23    5    1      7.48      0.00
  -25    5    1     -4.35      0.00
  -27    5    3     -3.46      0.00
  -29    5    5      9.74      0.00
  -31    5    7     -0.17      0.00
    4    6   20      1.41      0.00
    6    6   18     -1.76      0.00
    8    6   16     -4.29      0.00
   10    6   14      4.84      0.00
   12    6   12      1.29      0.00
   14    6   10     -2.93      0.00
   16    6    8      2.66      0.00
   18    6    6     -0.09      0.00
   20    6    4      1.89      0.00
   22    6    2     -1.02      0.00
   24    6    0     -0.72      0.00
  -26    6    2     10.23      0.00
  -28    6    4      1.56      0.00
  -30    6    6     -1.87      0.00
    5    7   19     -2.20      0.00
    7    7   17     -4.43      0.00
    9    7   15     -6.40      0.00
   11    7   13     -1.52      0.00
   13    7   11      0.43      0.00
   15    7    9     -4.97      0.00
   17    7    7     -6.59      0.00
   19    7    5      5.95      0.00
   21    7    3     -4.78      0.00
   23    7    1     -1.14      0.00
  -25    7    1     -3.21      0.00
  -27    7    3      0.90      0.00
  -29    7    5      7.56      0.00
  -31    7    7     -0.60      0.00
    4    8   20     -0.91      0.00
    6    8   18     -0.55      0.00
    8    8   16     -6.12      0.00
   10    8   14      6.54      0.00
   12    8   12     -1.20      0.00
   14    8   10     -5.57      0.00
   16    8    8      2.16      0.00
   18    8    6     -5.62      0.00
   20    8    4     -1.49      0.00
   22    8    2     -4.03      0.00
   24    8    0     -0.78      0.00
  -26    8    2     12.37      0.00
  -28    8    4     -3.71      0.00
  -30    8    6     -1.25      0.00
    5    9   19      1.45      0.00
    7    9   17      2.10      0.00
    9    9   15     -1.05      0.00
   11    9   13     -5.13      0.00
   13    9   11      0.69      0.00
   15    9    9      0.23      0.00
   17    9    7     -6.27      0.00
   19    9    5     -2.70      0.00
   21    9    3     -3.12      0.00
   23    9    1      1.11      0.00
  -25    9    1     -2.58      0.00
  -27    9    3     -1.01      0.00
  -29    9    5      6.64      0.00
    4   10   20      1.45      0.00
    6   10   18     -2.45      0.00
    8   10   16     -6.36      0.00
   10   10   14      4.35      0.00
   12   10   12     -2.82      0.00
   14   10   10     -1.47      0.00
   16   10    8      7.34      0.00
   18   10    6     -4.76      0.00
   20   10    4     -1.15      0.00
   22   10    2     -2.98      0.00
   24   10    0     -1.70      0.00
  -26   10    2      5.33      0.00
  -28   10    4     -9.08      0.00
  -30   10    6     -0.54      0.00
    5   11   19     -3.03      0.00
    7   11   17      1.40      0.00
    9   11   15     -2.61      0.00
   11   11   13     -7.36      0.00
   13   11   11      4.08      0.00
   15   11    9      0.71      0.00
   17   11    7     -4.65      0.00
   19   11    5     -1.06      0.00
   21   11    3      0.90      0.00
   23   11    1      6.60      0.00
  -25   11    1     -5.42      0.00
  -27   11    3     -2.69      0.00
  -29   11    5      5.40      0.00
    6   12   18     -2.64      0.00
    8   12   16     -5.56      0.00
   10   12   14      1.12      0.00
   12   12   12     -6.98      0.00
   14   12   10     -4.18      0.00
   16   12    8      2.84      0.00
   18   12    6     -5.95      0.00
   20   12    4     -4.00      0.00
   22   12    2     -2.00      0.00
   24   12    0     -3.25      0.00
  -26   12    2      4.72      0.00
  -28   12    4     -4.79      0.00
  -30   12    6      0.74      0.00
    5   13   19      0.18      0.00
    7   13   17     -0.38      0.00
    9   13   15     -5.31      0.00
   11   13   13     -3.57      0.00
   13   13   11      1.68      0.00
   15   13    9     -4.67      0.00
   17   13    7     -2.15      0.00
   19   13    5      4.40      0.00
   21   13    3     -3.83      0.00
   23   13    1      0.38      0.00
  -25   13    1     -2.96      0.00
  -27   13    3      2.19      0.00
  -29   13    5      3.92      0.00
    6   14   18     -1.38      0.00
    8   14   16     -4.87      0.00
   10   14   14      3.87      0.00
   12   14   12     -1.35      0.00
   14   14   10     -2.65      0.00
   16   14    8      4.27      0.00
   18   14    6     -3.31      0.00
   20   14    4     -4.85      0.00
   22   14    2     -3.14      0.00
   24   14    0     -3.96      0.00
  -26   14    2      7.33      0.00
  -28   14    4     -4.26      0.00
    7   15   17      3.81      0.00
    9   15   15     -3.28      0.00
   11   15   13      2.07      0.00
   13   15   11      5.74      0.00
   15   15    9      1.10      0.00
   17   15    7     -0.38      0.00
   19   15    5      3.53      0.00
   21   15    3     -3.79      0.00
   23   15    1     -1.06      0.00
  -25   15    1      0.48      0.00
  -27   15    3      4.04      0.00
  -29   15    5     10.59      0.00
    6   16   18     -0.40      0.00
    8   16   16     -3.21      0.00
   10   16   14      1.60      0.00
   12   16   12      3.06      0.00
   14   16   10      1.51      0.00
   16   16    8      3.01      0.00
   18   16    6     -5.89      0.00
   20   16    4     -2.04      0.00
   22   16    2     -0.21      0.00
   24   16    0      0.47      0.00
  -26   16    2      5.37      0.00
  -28   16    4     -4.31      0.00
    7   17   17      2.19      0.00
    9   17   15     -3.22      0.00
   11   17   13     -2.60      0.00
   13   17   11      2.39      0.00
   15   17    9      3.79      0.00
   17   17    7      1.52      0.00
   19   17    5     -0.44      0.00
   21   17    3     -5.16      0.00
   23   17    1     -0.23      0.00
  -25   17    1     -4.40      0.00
  -27   17    3      0.11      0.00
    8   18   16     -0.91      0.00
   10   18   14     -0.51      0.00
   12   18   12     -0.95      0.00
   14   18   10      0.50      0.00
   16   18    8      1.54      0.00
   18   18    6     -3.02      0.00
   20   18    4      0.65      0.00
   22   18    2     -1.37      0.00
   24   18    0     -0.23      0.00
  -26   18    2      4.93      0.00
    9   19   15      1.80      0.00
   11   19   13     -0.85      0.00
   13   19   11     -0.46      0.00
   15   19    9      2.98      0.00
   17   19    7      5.71      0.00
   19   19    5      2.37      0.00
   21   19    3     -6.94      0.00
   23   19    1     -1.39      0.00
  -25   19    1     -2.17      0.00
  -27   19    3      4.49      0.00
    8   20   16     -0.17      0.00
   10   20   14      2.03      0.00
   12   20   12      0.56      0.00
   14   20   10     -0.08      0.00
   16   20    8      0.67      0.00
   18   20    6      0.39      0.00
   20   20    4      2.25      0.00
   22   20    2     -1.86      0.00
   24   20    0     -0.11      0.00
  -26   20    2      8.73      0.00
    9   21   15     -1.85      0.00
   11   21   13     -0.09      0.00
   13   21   11      0.82      0.00
   15   21    9      0.58      0.00
   17   21    7     -1.05      0.00
   19   21    5      3.43      0.00
   21   21    3     -2.35      0.00
   23   21    1      0.39      0.00
  -25   21    1     -1.90      0.00
   10   22   14     -1.53      0.00
   12   22   12     -1.36      0.00
   14   22   10     -4.60      0.00
   16   22    8      0.27      0.00
   18   22    6     -0.52      0.00
   20   22    4      0.23      0.00
   22   22    2     -2.52      0.00
   24   22    0     -1.11      0.00
   11   23   13     -4.96      0.00
   13   23   11     -1.88      0.00
   15   23    9     -2.59      0.00
   17   23    7     -7.78      0.00
   19   23    5      0.97      0.00
   21   23    3     -0.70      0.00
   23   23    1      4.91      0.00
   12   24   12     -4.85      0.00
   14   24   10     -3.91      0.00
   16   24    8      7.32      0.00
   18   24    6      0.04      0.00
   20   24    4     -1.85      0.00
   22   24    2     -2.65      0.00
   13   25   11      0.72      0.00
   15   25    9     -0.92      0.00
   17   25    7     -4.90      0.00
   19   25    5      2.89      0.00
   21   25    3     -1.13      0.00
   16   26    8      3.97      0.00
   18   26    6     -3.00      0.00
    6    0   19     -7.44      0.00
    8    0   17     -0.31      0.00
   10    0   15      8.39      0.00
   12    0   13     -1.38      0.00
   14    0   11     -6.54      0.00
   16    0    9      1.97      0.00
   18    0    7      1.30      0.00
   20    0    5     -4.96      0.00
   22    0    3     -5.12      0.00
   24    0    1      5.43      0.00
  -26    0    1      2.11      0.00
  -28    0    3    -11.14      0.00
  -30    0    5      3.07      0.00
    5    1   20      6.08      0.00
    7    1   18     -2.05      0.00
    9    1   16     -6.22      0.00
   11    1   14      0.52      0.00
   13    1   12      9.21      0.00
   15    1   10     -0.84      0.00
   17    1    8     -6.32      0.00
   19    1    6      3.31      0.00
   21    1    4     -3.17      0.00
   23    1    2      7.59      0.00
   25    1    0      2.21      0.00
  -27    1    2      3.89      0.00
  -29    1    4      9.19      0.00
  -31    1    6      1.13      0.00
    6    2   19     -3.62      0.00
    8    2   17      3.76      0.00
   10    2   15      3.86      0.00
   12    2   13     -5.67      0.00
   14    2   11     -0.70      0.00
   16    2    9      5.56      0.00
   18    2    7     -2.89      0.00
   20    2    5     -1.10      0.00
   22    2    3     -1.17      0.00
   24    2    1      1.00      0.00
  -26    2    1     -1.38      0.00
  -28    2    3     -8.70      0.00
  -30    2    5      4.60      0.00
    5    3   20      1.14      0.00
    7    3   18      2.40      0.00
    9    3   16     -0.72      0.00
   11    3   14     -4.45      0.00
   13    3   12      4.67      0.00
   15    3   10      0.67      0.00
   17    3    8     -5.69      0.00
   19    3    6     -1.68      0.00
   21    3    4     -0.96      0.00
   23    3    2      6.67      0.00
   25    3    0     -4.10      0.00
  -27    3    2     -3.77      0.00
  -29    3    4      2.36      0.00
  -31    3    6     -3.91      0.00
    6    4   19     -2.62      0.00
    8    4   17      3.43      0.00
   10    4   15      1.57      0.00
   12    4   13     -7.78      0.00
   14    4   11     -0.20      0.00
   16    4    9      5.94      0.00
   18    4    7     -5.72      0.00
   20    4    5     -1.93      0.00
   22    4    3      1.03      0.00
   24    4    1     -0.82      0.00
  -26    4    1     -1.43      0.00
  -28    4    3     -3.24      0.00
  -30    4    5      5.06      0.00
    5    5   20     -1.83      0.00
    7    5   18      1.75      0.00
    9    5   16      1.90      0.00
   11    5   14      1.45      0.00
   13    5   12      3.04      0.00
   15    5   10     -3.80      0.00
   17    5    8     -4.14      0.00
   19    5    6     -0.20      0.00
   21    5    4     -4.50      0.00
   23    5    2      5.23      0.00
   25    5    0     -1.48      0.00
  -27    5    2      2.59      0.00
  -29    5    4     -1.32      0.00
    6    6   19     -0.81      0.00
    8    6   17      0.23      0.00
   10    6   15      8.45      0.00
   12    6   13     -1.22      0.00
   14    6   11     -2.98      0.00
   16    6    9      3.16      0.00
   18    6    7     -0.09      0.00
   20    6    5     -2.62      0.00
   22    6    3     -0.54      0.00
   24    6    1      6.02      0.00
  -26    6    1      5.50      0.00
  -28    6    3     -3.14      0.00
  -30    6    5      5.09      0.00
    7    7   18     -3.53      0.00
    9    7   16      0.77      0.00
   11    7   14      3.02      0.00
   13    7   12      4.49      0.00
   15    7   10     -0.16      0.00
   17    7    8      1.58      0.00
   19    7    6      6.84      0.00
   21    7    4     -3.14      0.00
   23    7    2      2.57      0.00
   25    7    0     -0.40      0.00
  -27    7    2      2.64      0.00
  -29    7    4     -4.64      0.00
    6    8   19     -0.27      0.00
    8    8   17     -2.34      0.00
   10    8   15      5.98      0.00
   12    8   13     -2.48      0.00
   14    8   11     -1.61      0.00
   16    8    9      3.82      0.00
   18    8    7     -0.41      0.00
   20    8    5      1.82      0.00
   22    8    3     -0.81      0.00
   24    8    1      9.14      0.00
  -26    8    1      7.09      0.00
  -28    8    3    -10.17      0.00
  -30    8    5      4.23      0.00
    7    9   18     -0.89      0.00
    9    9   16      0.51      0.00
   11    9   14     -1.77      0.00
   13    9   12      3.92      0.00
   15    9   10     -1.40      0.00
   17    9    8     -2.91      0.00
   19    9    6     -1.01      0.00
   21    9    4     -2.59      0.00
   23    9    2      4.16      0.00
   25    9    0     -2.85      0.00
  -27    9    2      0.72      0.00
  -29    9    4     -1.51      0.00
    6   10   19     -0.27      0.00
    8   10   17     -2.21      0.00
   10   10   15     -1.90      0.00
   12   10   13     -7.19      0.00
   14   10   11     -2.43      0.00
   16   10    9      0.15      0.00
   18   10    7     -7.92      0.00
   20   10    5      4.56      0.00
   22   10    3     -0.79      0.00
   24   10    1      0.77      0.00
  -26   10    1      1.52      0.00
  -28   10    3    -11.04      0.00
  -30   10    5      2.71      0.00
    7   11   18     -0.07      0.00
    9   11   16     -4.84      0.00
   11   11   14     -4.14      0.00
   13   11   12      8.04      0.00
   15   11   10     -4.91      0.00
   17   11    8     -4.04      0.00
   19   11    6     -0.39      0.00
   21   11    4     -0.95      0.00
   23   11    2      4.44      0.00
   25   11    0     -7.46      0.00
  -27   11    2      4.17      0.00
  -29   11    4      0.18      0.00
    8   12   17      1.43      0.00
   10   12   15      2.48      0.00
   12   12   13     -4.93      0.00
   14   12   11     -0.78      0.00
   16   12    9      4.29      0.00
   18   12    7     -6.02      0.00
   20   12    5      3.22      0.00
   22   12    3      2.15      0.00
   24   12    1      1.98      0.00
  -26   12    1      4.87      0.00
  -28   12    3     -8.27      0.00
    7   13   18     -1.89      0.00
    9   13   16     -5.77      0.00
   11   13   14     -3.26      0.00
   13   13   12      6.32      0.00
   15   13   10     -5.82      0.00
   17   13    8      1.26      0.00
   19   13    6      4.75      0.00
   21   13    4     -1.28      0.00
   23   13    2      6.69      0.00
   25   13    0      0.88      0.00
  -27   13    2      8.43      0.00
  -29   13    4      0.73      0.00
    8   14   17     -5.52      0.00
   10   14   15      4.12      0.00
   12   14   13     -6.53      0.00
   14   14   11     -7.91      0.00
   16   14    9      3.82      0.00
   18   14    7     -4.78      0.00
   20   14    5     -0.10      0.00
   22   14    3      1.81      0.00
   24   14    1      7.84      0.00
  -26   14    1      7.72      0.00
  -28   14    3    -10.98      0.00
    9   15   16     -3.41      0.00
   11   15   14     -2.86      0.00
   13   15   12      1.10      0.00
   15   15   10     -9.65      0.00
   17   15    8     -2.93      0.00
   19   15    6      2.71      0.00
   21   15    4     -1.74      0.00
   23   15    2      5.88      0.00
   25   15    0      0.62      0.00
  -27   15    2      6.79      0.00
    8   16   17     -3.39      0.00
   10   16   15      4.79      0.00
   12   16   13     -1.27      0.00
   14   16   11     -8.50      0.00
   16   16    9     -1.54      0.00
   18   16    7     -7.67      0.00
   20   16    5      2.40      0.00
   22   16    3     -1.00      0.00
   24   16    1      2.08      0.00
  -26   16    1      3.81      0.00
    9   17   16     -0.29      0.00
   11   17   14     -3.02      0.00
   13   17   12      5.91      0.00
   15   17   10     -2.91      0.00
   17   17    8     -1.56      0.00
   19   17    6     -0.01      0.00
   21   17    4     -0.63      0.00
   23   17    2      5.27      0.00
   25   17    0     -5.73      0.00
  -27   17    2      7.51      0.00
   10   18   15      3.76      0.00
   12   18   13      2.01      0.00
   14   18   11     -1.84      0.00
   16   18    9      2.40      0.00
   18   18    7     -6.19      0.00
   20   18    5      0.82      0.00
   22   18    3     -1.57      0.00
   24   18    1      3.32      0.00
  -26   18    1      5.40      0.00
   11   19   14     -4.54      0.00
   13   19   12      4.44      0.00
   15   19   10     -0.77      0.00
   17   19    8      2.19      0.00
   19   19    6     -1.02      0.00
   21   19    4     -2.58      0.00
   23   19    2      6.53      0.00
   25   19    0     -2.22      0.00
   12   20   13     -0.44      0.00
   14   20   11     -5.01      0.00
   16   20    9      0.31      0.00
   18   20    7     -3.00      0.00
   20   20    5     -1.92      0.00
   22   20    3     -5.42      0.00
   24   20    1      4.47      0.00
   13   21   12     -0.29      0.00
   15   21   10     -4.50      0.00
   17   21    8      1.78      0.00
   19   21    6      2.84      0.00
   21   21    4     -3.63      0.00
   23   21    2      3.82      0.00
   14   22   11     -2.95      0.00
   16   22    9      1.50      0.00
   18   22    7     -0.90      0.00
   20   22    5      0.00      0.00
   22   22    3     -6.35      0.00
   15   23   10     -3.66      0.00
   17   23    8     -3.14      0.00
   19   23    6      0.94      0.00
   21   23    4     -3.48      0.00
   16   24    9      3.83      0.00
   18   24    7     -3.44      0.00
   20   24    5      0.75      0.00
    8    0   18     -2.53      0.00
   10    0   16      3.42      0.00
   12    0   14     -0.35      0.00
   14    0   12     -2.97      0.00
   16    0   10      4.42      0.00
   18    0    8      6.36      0.00
   20    0    6      1.93      0.00
   22    0    4     -2.89      0.00
   24    0    2      5.46      0.00
   26    0    0      2.30      0.00
  -28    0    2     -5.66      0.00
  -30    0    4      6.51      0.00
    7    1   19      0.06      0.00
    9    1   17      3.32      0.00
   11    1   15      0.78      0.00
   13    1   13     -1.23      0.00
   15    1   11     -3.92      0.00
   17    1    9     -0.12      0.00
   19    1    7      0.33      0.00
   21    1    5     -5.03      0.00
   23    1    3      5.17      0.00
   25    1    1     -5.86      0.00
  -27    1    1      4.70      0.00
  -29    1    3     10.10      0.00
    8    2   18      0.15      0.00
   10    2   16     -0.41      0.00
   12    2   14     -1.78      0.00
   14    2   12      1.59      0.00
   16    2   10      1.02      0.00
   18    2    8     -4.71      0.00
   20    2    6      2.11      0.00
   22    2    4     -1.75      0.00
   24    2    2      3.50      0.00
   26    2    0      3.62      0.00
  -28    2    2     -1.35      0.00
  -30    2    4      7.97      0.00
    7    3   19     -1.11      0.00
    9    3   17     -3.11      0.00
   11    3   15     -2.27      0.00
   13    3   13      3.25      0.00
   15    3   11     -7.30      0.00
   17    3    9    -10.63      0.00
   19    3    7     -4.14      0.00
   21    3    5     -3.94      0.00
   23    3    3      4.48      0.00
   25    3    1     -5.00      0.00
  -27    3    1      0.91      0.00
  -29    3    3      1.16      0.00
    8    4   18      0.59      0.00
   10    4   16     -1.29      0.00
   12    4   14     -5.90      0.00
   14    4   12      2.61      0.00
   16    4   10      4.15      0.00
   18    4    8     -6.23      0.00
   20    4    6      3.48      0.00
   22    4    4     -0.64      0.00
   24    4    2     -2.37      0.00
   26    4    0      0.91      0.00
  -28    4    2     -1.77      0.00
  -30    4    4      5.27      0.00
    7    5   19     -0.38      0.00
    9    5   17     -1.80      0.00
   11    5   15     -0.55      0.00
   13    5   13      0.81      0.00
   15    5   11     -6.75      0.00
   17    5    9     -3.43      0.00
   19    5    7      0.63      0.00
   21    5    5     -3.11      0.00
   23    5    3      5.87      0.00
   25    5    1     -5.51      0.00
  -27    5    1     -1.20      0.00
  -29    5    3     -3.51      0.00
    8    6   18      1.08      0.00
   10    6   16      5.83      0.00
   12    6   14     -6.65      0.00
   14    6   12     -2.65      0.00
   16    6   10      5.32      0.00
   18    6    8     -0.04      0.00
   20    6    6     -1.15      0.00
   22    6    4     -3.85      0.00
   24    6    2     -0.81      0.00
   26    6    0      3.41      0.00
  -28    6    2     -2.91      0.00
  -30    6    4      6.37      0.00
    9    7   17     -0.60      0.00
   11    7   15     -2.90      0.00
   13    7   13     -2.99      0.00
   15    7   11     -7.34      0.00
   17    7    9     -1.74      0.00
   19    7    7      1.20      0.00
   21    7    5     -6.12      0.00
   23    7    3      5.06      0.00
   25    7    1     -2.98      0.00
  -27    7    1     -1.68      0.00
  -29    7    3      0.36      0.00
    8    8   18     -1.23      0.00
   10    8   16      3.17      0.00
   12    8   14     -6.46      0.00
   14    8   12     -2.21      0.00
   16    8   10      1.85      0.00
   18    8    8     -5.71      0.00
   20    8    6     -2.72      0.00
   22    8    4     -3.65      0.00
   24    8    2      0.46      0.00
   26    8    0      1.76      0.00
  -28    8    2     -3.81      0.00
    9    9   17     -1.29      0.00
   11    9   15     -1.32      0.00
   13    9   13      4.54      0.00
   15    9   11     -4.28      0.00
   17    9    9     -4.31      0.00
   19    9    7      0.59      0.00
   21    9    5     -6.61      0.00
   23    9    3      1.27      0.00
   25    9    1     -2.36      0.00
  -27    9    1      0.39      0.00
  -29    9    3      2.14      0.00
    8   10   18     -4.65      0.00
   10   10   16     -1.63      0.00
   12   10   14     -3.90      0.00
   14   10   12     -1.41      0.00
   16   10   10      2.24      0.00
   18   10    8     -4.45      0.00
   20   10    6      3.91      0.00
   22   10    4     -1.84      0.00
   24   10    2     -4.26      0.00
   26   10    0      0.45      0.00
  -28   10    2     -4.74      0.00
    9   11   17     -8.30      0.00
   11   11   15     -2.61      0.00
   13   11   13      6.69      0.00
   15   11   11     -6.20      0.00
   17   11    9     -4.36      0.00
   19   11    7      3.97      0.00
   21   11    5     -3.94      0.00
   23   11    3     -0.26      0.00
   25   11    1     -1.35      0.00
  -27   11    1      5.11      0.00
  -29   11    3     -1.80      0.00
   10   12   16      1.01      0.00
   12   12   14     -3.27      0.00
   14   12   12     -3.98      0.00
   16   12   10      3.15      0.00
   18   12    8     -1.44      0.00
   20   12    6      1.27      0.00
   22   12    4     -3.72      0.00
   24   12    2     -3.49      0.00
   26   12    0      3.86      0.00
  -28   12    2     -5.14      0.00
    9   13   17     -4.13      0.00
   11   13   15     -1.12      0.00
   13   13   13      3.75      0.00
   15   13   11     -3.80      0.00
   17   13    9     -2.44      0.00
   19   13    7      1.63      0.00
   21   13    5     -2.52      0.00
   23   13    3      2.47      0.00
   25   13    1     -2.81      0.00
  -27   13    1     -0.04      0.00
   10   14   16      2.69      0.00
   12   14   14     -6.45      0.00
   14   14   12     -1.43      0.00
   16   14   10      9.15      0.00
   18   14    8      0.28      0.00
   20   14    6     -2.04      0.00
   22   14    4     -4.17      0.00
   24   14    2     -3.06      0.00
   26   14    0     -1.73      0.00
  -28   14    2     -5.12      0.00
   11   15   15      6.22      0.00
   13   15   13      5.08      0.00
   15   15   11      0.66      0.00
   17   15    9      1.90      0.00
   19   15    7      3.87      0.00
   21   15    5     -2.74      0.00
   23   15    3      0.80      0.00
   25   15    1     -4.18      0.00
  -27   15    1      0.37      0.00
   12   16   14     -4.08      0.00
   14   16   12      0.31      0.00
   16   16   10      4.82      0.00
   18   16    8     -3.52      0.00
   20   16    6      0.23      0.00
   22   16    4     -4.21      0.00
   24   16    2     -4.85      0.00
   26   16    0     -0.55      0.00
   11   17   15      4.22      0.00
   13   17   13      2.29      0.00
   15   17   11     -5.30      0.00
   17   17    9     -0.19      0.00
   19   17    7      4.85      0.00
   21   17    5     -3.02      0.00
   23   17    3     -2.79      0.00
   25   17    1     -4.66      0.00
   12   18   14     -1.58      0.00
   14   18   12      1.18      0.00
   16   18   10      0.21      0.00
   18   18    8     -7.17      0.00
   20   18    6      0.97      0.00
   22   18    4     -1.91      0.00
   24   18    2     -3.10      0.00
   13   19   13      2.46      0.00
   15   19   11     -1.92      0.00
   17   19    9      3.88      0.00
   19   19    7      2.28      0.00
   21   19    5     -3.16      0.00
   23   19    3      0.51      0.00
   14   20   12      0.56      0.00
   16   20   10      2.78      0.00
   18   20    8     -3.96      0.00
   20   20    6     -3.18      0.00
   22   20    4     -3.04      0.00
   15   21   11     -3.08      0.00
   17   21    9      1.92      0.00
   19   21    7     -0.31      0.00
   21   21    5     -5.66      0.00
   18   22    8     -2.20      0.00
   20   22    6     -4.64      0.00
   10    0   17      2.98      0.00
   12    0   15     -4.46      0.00
   14    0   13     -0.06      0.00
   16    0   11      7.90      0.00
   18    0    9     -0.55      0.00
   20    0    7     -8.24      0.00
   22    0    5     -1.03      0.00
   24    0    3      9.06      0.00
   26    0    1      7.86      0.00
  -28    0    1      0.81      0.00
  -30    0    3      5.04      0.00
    9    1   18     -1.35      0.00
   11    1   16      2.31      0.00
   13    1   14      5.98      0.00
   15    1   12      3.24      0.00
   17    1   10      4.67      0.00
   19    1    8      1.74      0.00
   21    1    6     -3.48      0.00
   23    1    4      5.62      0.00
   25    1    2     -4.07      0.00
   27    1    0      0.83      0.00
  -29    1    2      2.71      0.00
   10    2   17      3.06      0.00
   12    2   15     -0.60      0.00
   14    2   13      0.78      0.00
   16    2   11      3.62      0.00
   18    2    9      0.46      0.00
   20    2    7      0.46      0.00
   22    2    5     -1.48      0.00
   24    2    3      3.49      0.00
   26    2    1      1.52      0.00
  -28    2    1     -1.45      0.00
    9    3   18     -6.24      0.00
   11    3   16     -0.20      0.00
   13    3   14      6.30      0.00
   15    3   12     -4.70      0.00
   17    3   10     -1.91      0.00
   19    3    8      6.71      0.00
   21    3    6     -2.03      0.00
   23    3    4     -0.69      0.00
   25    3    2     -8.97      0.00
   27    3    0     -2.01      0.00
  -29    3    2     -3.73      0.00
   10    4   17      1.29      0.00
   12    4   15     -1.61      0.00
   14    4   13      0.84      0.00
   16    4   11     -0.19      0.00
   18    4    9     -3.60      0.00
   20    4    7      3.29      0.00
   22    4    5     -1.75      0.00
   24    4    3     -1.33      0.00
   26    4    1     -1.20      0.00
  -28    4    1     -2.08      0.00
   11    5   16     -1.57      0.00
   13    5   14      0.64      0.00
   15    5   12     -3.33      0.00
   17    5   10     -0.01      0.00
   19    5    8     -3.40      0.00
   21    5    6     -7.49      0.00
   23    5    4      4.44      0.00
   25    5    2     -3.18      0.00
   27    5    0      1.47      0.00
  -29    5    2     -4.03      0.00
   10    6   17      1.65      0.00
   12    6   15     -1.12      0.00
   14    6   13      6.22      0.00
   16    6   11      5.62      0.00
   18    6    9     -1.73      0.00
   20    6    7      0.27      0.00
   22    6    5     -1.19      0.00
   24    6    3      1.54      0.00
   26    6    1      1.39      0.00
  -28    6    1     -3.31      0.00
   11    7   16     -2.45      0.00
   13    7   14     -1.14      0.00
   15    7   12     -0.04      0.00
   17    7   10      6.64      0.00
   19    7    8     -3.12      0.00
   21    7    6     -6.27      0.00
   23    7    4      8.69      0.00
   25    7    2     -1.38      0.00
   27    7    0     -0.60      0.00
  -29    7    2     -3.21      0.00
   10    8   17     -2.41      0.00
   12    8   15     -0.53      0.00
   14    8   13      4.99      0.00
   16    8   11      4.62      0.00
   18    8    9      0.82      0.00
   20    8    7      5.28      0.00
   22    8    5      0.20      0.00
   24    8    3      4.29      0.00
   26    8    1      1.94      0.00
  -28    8    1     -4.08      0.00
   11    9   16      0.02      0.00
   13    9   14      2.03      0.00
   15    9   12     -5.57      0.00
   17    9   10      0.71      0.00
   19    9    8     -0.17      0.00
   21    9    6     -4.37      0.00
   23    9    4      3.77      0.00
   25    9    2     -2.57      0.00
   27    9    0      4.20      0.00
   12   10   15     -0.70      0.00
   14   10   13     -4.12      0.00
   16   10   11     -0.59      0.00
   18   10    9     -1.97      0.00
   20   10    7      5.10      0.00
   22   10    5     -2.44      0.00
   24   10    3      3.51      0.00
   26   10    1      4.81      0.00
  -28   10    1     -5.54      0.00
   11   11   16      0.65      0.00
   13   11   14      2.58      0.00
   15   11   12     -8.64      0.00
   17   11   10      0.51      0.00
   19   11    8      1.29      0.00
   21   11    6     -5.33      0.00
   23   11    4      3.00      0.00
   25   11    2     -1.37      0.00
   27   11    0      4.50      0.00
   12   12   15      2.30      0.00
   14   12   13     -0.45      0.00
   16   12   11      6.29      0.00
   18   12    9     -0.83      0.00
   20   12    7      3.14      0.00
   22   12    5     -2.94      0.00
   24   12    3      1.77      0.00
   26   12    1      3.97      0.00
   13   13   14      4.43      0.00
   15   13   12     -3.81      0.00
   17   13   10      1.93      0.00
   19   13    8     -0.15      0.00
   21   13    6     -3.33      0.00
   23   13    4      7.67      0.00
   25   13    2      0.16      0.00
   27   13    0      3.56      0.00
   12   14   15     -6.43      0.00
   14   14   13     -3.59      0.00
   16   14   11      2.90      0.00
   18   14    9     -7.21      0.00
   20   14    7      0.21      0.00
   22   14    5     -3.15      0.00
   24   14    3     -0.85      0.00
   26   14    1      0.12      0.00
   13   15   14      3.16      0.00
   15   15   12     -5.83      0.00
   17   15   10     -1.89      0.00
   19   15    8      0.33      0.00
   21   15    6     -3.37      0.00
   23   15    4      3.83      0.00
   25   15    2     -1.93      0.00
   14   16   13     -6.65      0.00
   16   16   11     -0.89      0.00
   18   16    9     -6.43      0.00
   20   16    7      0.44      0.00
   22   16    5     -7.82      0.00
   24   16    3     -1.98      0.00
   15   17   12     -6.60      0.00
   17   17   10      2.22      0.00
   19   17    8      4.47      0.00
   21   17    6     -2.42      0.00
   23   17    4      0.75      0.00
   16   18   11      1.06      0.00
   18   18    9     -4.83      0.00
   20   18    7      3.78      0.00
   22   18    5     -4.59      0.00
   17   19   10      4.07      0.00
   19   19    8     -0.63      0.00
   21   19    6     -2.26      0.00
   12    0   16      1.50      0.00
   14    0   14      8.80      0.00
   16    0   12      2.96      0.00
   18    0   10     -3.65      0.00
   20    0    8      3.09      0.00
   22    0    6      3.98      0.00
   24    0    4      1.40      0.00
   26    0    2     -5.39      0.00
   28    0    0     -3.40      0.00
   13    1   15      0.77      0.00
   15    1   13      2.35      0.00
   17    1   11      7.67      0.00
   19    1    9     -2.70      0.00
   21    1    7     -2.26      0.00
   23    1    5      6.80      0.00
   25    1    3     -4.79      0.00
   27    1    1      3.01      0.00
  -29    1    1     -1.18      0.00
   12    2   16      4.01      0.00
   14    2   14      3.13      0.00
   16    2   12     -2.11      0.00
   18    2   10     -3.61      0.00
   20    2    8     -0.89      0.00
   22    2    6     -4.98      0.00
   24    2    4      1.85      0.00
   26    2    2      1.80      0.00
   28    2    0      1.67      0.00
   13    3   15     -0.61      0.00
   15    3   13     -5.94      0.00
   17    3   11      3.37      0.00
   19    3    9     -0.12      0.00
   21    3    7     -8.40      0.00
   23    3    5      2.76      0.00
   25    3    3     -3.42      0.00
   27    3    1      5.95      0.00
   12    4   16      2.57      0.00
   14    4   14      2.09      0.00
   16    4   12     -1.93      0.00
   18    4   10     -2.10      0.00
   20    4    8      2.65      0.00
   22    4    6     -5.30      0.00
   24    4    4     -2.37      0.00
   26    4    2      1.57      0.00
   28    4    0      0.03      0.00
   13    5   15      3.76      0.00
   15    5   13     -1.27      0.00
   17    5   11      5.20      0.00
   19    5    9      2.44      0.00
   21    5    7     -1.89      0.00
   23    5    5      5.56      0.00
   25    5    3     -5.37      0.00
   27    5    1      2.66      0.00
   12    6   16     -0.91      0.00
   14    6   14      7.28      0.00
   16    6   12      4.21      0.00
   18    6   10     -2.99      0.00
   20    6    8      4.21      0.00
   22    6    6      3.25      0.00
   24    6    4     -2.35      0.00
   26    6    2     -3.96      0.00
   28    6    0     -2.36      0.00
   13    7   15      2.95      0.00
   15    7   13     -1.83      0.00
   17    7   11      2.52      0.00
   19    7    9     -1.84      0.00
   21    7    7     -1.58      0.00
   23    7    5      5.32      0.00
   25    7    3     -5.64      0.00
   27    7    1      3.37      0.00
   14    8   14      2.38      0.00
   16    8   12      2.11      0.00
   18    8   10     -3.07      0.00
   20    8    8     -0.35      0.00
   22    8    6     -0.61      0.00
   24    8    4      3.17      0.00
   26    8    2      0.46      0.00
   13    9   15      2.40      0.00
   15    9   13     -0.73      0.00
   17    9   11      3.47      0.00
   19    9    9      0.04      0.00
   21    9    7     -2.90      0.00
   23    9    5      0.90      0.00
   25    9    3     -5.70      0.00
   27    9    1      6.57      0.00
   14   10   14     -4.14      0.00
   16   10   12      1.77      0.00
   18   10   10      2.66      0.00
   20   10    8      0.63      0.00
   22   10    6     -5.17      0.00
   24   10    4      5.61      0.00
   26   10    2      7.68      0.00
   15   11   13     -2.82      0.00
   17   11   11      3.41      0.00
   19   11    9     -0.15      0.00
   21   11    7     -2.59      0.00
   23   11    5      3.55      0.00
   25   11    3     -2.31      0.00
   14   12   14     -2.56      0.00
   16   12   12      1.76      0.00
   18   12   10      1.04      0.00
   20   12    8      2.42      0.00
   22   12    6     -3.08      0.00
   24   12    4      0.77      0.00
   26   12    2      3.30      0.00
   15   13   13     -1.65      0.00
   17   13   11     -0.05      0.00
   19   13    9     -2.13      0.00
   21   13    7     -1.61      0.00
   23   13    5      5.02      0.00
   25   13    3     -3.51      0.00
   16   14   12      1.24      0.00
   18   14   10     -0.19      0.00
   20   14    8      4.66      0.00
   22   14    6     -2.83      0.00
   24   14    4     -5.66      0.00
   17   15   11      3.83      0.00
   19   15    9      0.91      0.00
   21   15    7     -4.27      0.00
   23   15    5      2.92      0.00
   18   16   10      1.09      0.00
   20   16    8      1.02      0.00
   22   16    6     -8.41      0.00
   14    0   15      0.41      0.00
   16    0   13     -0.92      0.00
   18    0   11     -3.14      0.00
   20    0    9     -3.26      0.00
   22    0    7     -4.23      0.00
   24    0    5      4.25      0.00
   26    0    3      1.54      0.00
   15    1   14      2.46      0.00
   17    1   12      1.08      0.00
   19    1   10     -4.88      0.00
   21    1    8      2.14      0.00
   23    1    6      4.75      0.00
   25    1    4     -6.58      0.00
   27    1    2      2.93      0.00
   16    2   13      1.47      0.00
   18    2   11      1.29      0.00
   20    2    9     -1.64      0.00
   22    2    7     -2.88      0.00
   24    2    5      5.85      0.00
   26    2    3      0.95      0.00
   15    3   14     -3.29      0.00
   17    3   12      8.29      0.00
   19    3   10      1.33      0.00
   21    3    8     -1.45      0.00
   23    3    6      9.10      0.00
   25    3    4     -3.74      0.00
   27    3    2     -0.35      0.00
   16    4   13     -1.90      0.00
   18    4   11     -2.52      0.00
   20    4    9     -1.02      0.00
   22    4    7     -3.65      0.00
   24    4    5      2.73      0.00
   26    4    3      2.18      0.00
   15    5   14     -4.54      0.00
   17    5   12      6.58      0.00
   19    5   10     -0.75      0.00
   21    5    8     -5.54      0.00
   23    5    6      2.82      0.00
   25    5    4     -1.92      0.00
   27    5    2      7.81      0.00
   16    6   13     -0.31      0.00
   18    6   11     -6.21      0.00
   20    6    9      3.31      0.00
   22    6    7      0.34      0.00
   24    6    5      0.62      0.00
   26    6    3     -0.70      0.00
   17    7   12      6.43      0.00
   19    7   10     -1.46      0.00
   21    7    8     -2.06      0.00
   23    7    6      2.30      0.00
   25    7    4     -4.22      0.00
   16    8   13      0.24      0.00
   18    8   11     -3.13      0.00
   20    8    9      8.49      0.00
   22    8    7      3.28      0.00
   24    8    5      5.98      0.00
   17    9   12      5.19      0.00
   19    9   10     -3.48      0.00
   21    9    8     -2.33      0.00
   23    9    6      7.27      0.00
   25    9    4     -0.83      0.00
   18   10   11     -3.99      0.00
   20   10    9      4.37      0.00
   22   10    7     -0.46      0.00
   24   10    5      8.71      0.00
   19   11   10     -5.45      0.00
   21   11    8     -3.55      0.00
   23   11    6      8.90      0.00
   20   12    9      5.11      0.00
   22   12    7     -0.49      0.00
   20    0   10      8.47      0.00
   22    0    8      1.40      0.00
   24    0    6      2.26      0.00
   19    1   11     -1.40      0.00
   21    1    9      4.35      0.00
   23    1    7      6.03      0.00
   20    2   10     -0.40      0.00
   22    2    8     -1.36      0.00
   24    2    6      0.33      0.00
   19    3   11     -4.66      0.00
   21    3    9     -1.93      0.00
   23    3    7      8.96      0.00
   20    4   10     -0.35      0.00
   22    4    8     -0.45      0.00
   21    5    9      4.41      0.00
   23    5    7      9.47      0.00
   30    0    0      4.57      0.00
   29    1    0     -0.09      0.00
   31    1    0      3.18      0.00
   30    2    0     10.76      0.00
   29    3    0     -4.68      0.00
   31    3    0      0.10      0.00
   30    4    0     10.07      0.00
   29    5    0     -1.04      0.00
   31    5    0     -0.80      0.00
   30    6    0      4.90      0.00
   29    7    0     -0.74      0.00
   31    7    0     -6.70      0.00
   28    8    0     -1.17      0.00
   30    8    0      4.42      0.00
   29    9    0     -0.89      0.00
   31    9    0     -5.23      0.00
   28   10    0     -2.19      0.00
   30   10    0      7.23      0.00
   29   11    0     -2.29      0.00
   28   12    0     -1.25      0.00
   30   12    0      6.55      0.00
   29   13    0     -1.15      0.00
   28   14    0     -3.76      0.00
   30   14    0      0.77      0.00
   27   15    0      7.42      0.00
   29   15    0     -0.89      0.00
   28   16    0     -6.39      0.00
   27   17    0      7.89      0.00
   29   17    0      1.00      0.00
   26   18    0      1.14      0.00
   28   18    0     -4.83      0.00
   27   19    0      4.52      0.00
   26   20    0      2.61      0.00
   28   20    0     -1.06      0.00
   25   21    0     -2.29      0.00
   27   21    0      3.20      0.00
   26   22    0      2.90      0.00
   28   22    0     -1.64      0.00
   25   23    0     -0.01      0.00
   27   23    0      4.30      0.00
   24   24    0     -2.31      0.00
   26   24    0      1.39      0.00
   25   25    0      1.09      0.00
   24   26    0     -3.93      0.00
   26   26    0      2.67      0.00
   23   27    0      8.06      0.00
   25   27    0      0.49      0.00
   22   28    0      2.50      0.00
   24   28    0     -7.42      0.00
   23   29    0      2.88      0.00
   25   29    0      0.04      0.00
   22   30    0      0.25      0.00
   24   30    0     -3.82      0.00
   21   31    0     -5.49      0.00
   23   31    0      2.30      0.00
   20   32    0     -0.91      0.00
   22   32    0     -1.49      0.00
   19   33    0     -5.52      0.00
   21   33    0     -0.40      0.00
   18   34    0      1.13      0.00
   20   34    0     -2.72      0.00
   22   34    0      0.62      0.00
   17   35    0     -1.28      0.00
   19   35    0     -3.54      0.00
   21   35    0      0.84      0.00
   16   36    0      9.17      0.00
   18   36    0      4.91      0.00
   20   36    0      1.75      0.00
   15   37    0      8.81      0.00
   17   37    0     -0.95      0.00
   19   37    0      1.20      0.00
   14   38    0      0.16      0.00
   16   38    0      3.65      0.00
   18   38    0      3.11      0.00
   13   39    0     -1.76      0.00
   15   39    0      7.28      0.00
   17   39    0      1.77      0.00
   12   40    0      3.05      0.00
   14   40    0      4.74      0.00
   16   40    0      1.35      0.00
    9   41    0      0.95      0.00
   11   41    0     -5.26      0.00
   13   41    0     -1.21      0.00
   15   41    0      3.03      0.00
    8   42    0      0.33      0.00
   10   42    0     -7.77      0.00
   12   42    0      0.62      0.00
   14   42    0      1.98      0.00
    3   43    0      4.71      0.00
    5   43    0      6.55      0.00
    7   43    0      6.66      0.00
    9   43    0      4.56      0.00
   11   43    0      1.43      0.00
   13   43    0      1.07      0.00
  -32    0    1     -8.92      0.00
  -30    0    1      3.47      0.00
   28    0    1      0.13      0.00
   30    0    1      0.00      0.00
  -31    1    1     -3.52      0.00
   29    1    1     -2.90      0.00
  -32    2    1     -6.38      0.00
  -30    2    1      3.54      0.00
   28    2    1     -1.73      0.00
   30    2    1      1.96      0.00
  -31    3    1     -1.39      0.00
  -29    3    1     -0.02      0.00
   29    3    1     -2.52      0.00
  -32    4    1     -2.68      0.00
  -30    4    1      7.51      0.00
   28    4    1     -0.55      0.00
   30    4    1      5.85      0.00
  -31    5    1     -2.40      0.00
  -29    5    1     -0.40      0.00
   29    5    1     -4.61      0.00
  -30    6    1      8.69      0.00
   28    6    1     -0.73      0.00
   30    6    1      1.26      0.00
  -31    7    1     -2.51      0.00
  -29    7    1      5.22      0.00
   29    7    1     -1.32      0.00
  -30    8    1      6.98      0.00
   -6    8    1     95.99      0.00
   28    8    1     -0.23      0.00
   30    8    1     -1.06      0.00
  -31    9    1     -2.55      0.00
  -29    9    1      7.18      0.00
   29    9    1     -1.38      0.00
  -30   10    1      9.50      0.00
   28   10    1      0.72      0.00
   30   10    1      3.61      0.00
  -31   11    1     -1.98      0.00
  -29   11    1      5.80      0.00
   27   11    1      6.89      0.00
   29   11    1      0.48      0.00
  -30   12    1      9.34      0.00
  -28   12    1     -6.79      0.00
   28   12    1     -1.66      0.00
  -29   13    1      4.11      0.00
   27   13    1      4.71      0.00
   29   13    1     -1.38      0.00
  -30   14    1      4.48      0.00
  -28   14    1     -2.96      0.00
   28   14    1     -3.73      0.00
  -29   15    1      0.56      0.00
   27   15    1      4.35      0.00
   29   15    1     -3.00      0.00
  -30   16    1      2.65      0.00
  -28   16    1     -4.38      0.00
   26   16    1      1.89      0.00
   28   16    1     -7.73      0.00
  -29   17    1      0.87      0.00
  -27   17    1      5.58      0.00
   27   17    1      3.13      0.00
  -28   18    1     -6.86      0.00
   26   18    1      5.84      0.00
   28   18    1     -4.64      0.00
  -29   19    1      3.25      0.00
  -27   19    1      3.21      0.00
   25   19    1     -5.35      0.00
   27   19    1      0.45      0.00
  -28   20    1     -4.80      0.00
  -26   20    1      5.42      0.00
   26   20    1      5.21      0.00
   28   20    1     -1.55      0.00
  -27   21    1      1.79      0.00
   25   21    1     -3.97      0.00
   27   21    1     -0.06      0.00
  -28   22    1     -2.16      0.00
  -26   22    1      3.15      0.00
   24   22    1     -1.37      0.00
   26   22    1      3.23      0.00
  -27   23    1      1.01      0.00
  -25   23    1     -2.72      0.00
   25   23    1     -2.37      0.00
   27   23    1     -0.07      0.00
  -26   24    1      1.49      0.00
   24   24    1     -4.40      0.00
   26   24    1      1.84      0.00
  -27   25    1     -1.04      0.00
  -25   25    1      0.91      0.00
   23   25    1      7.91      0.00
   25   25    1     -1.37      0.00
  -26   26    1      3.49      0.00
  -24   26    1     -3.42      0.00
   24   26    1     -4.05      0.00
  -25   27    1     -0.01      0.00
  -23   27    1      6.52      0.00
   23   27    1      2.36      0.00
   25   27    1     -0.83      0.00
  -26   28    1      4.33      0.00
  -24   28    1     -6.41      0.00
   22   28    1     -0.37      0.00
   24   28    1     -3.02      0.00
  -25   29    1      1.28      0.00
  -23   29    1      4.11      0.00
   21   29    1     -2.33      0.00
   23   29    1      0.04      0.00
  -24   30    1     -4.31      0.00
  -22   30    1     -1.86      0.00
   20   30    1     -0.07      0.00
   22   30    1     -2.42      0.00
   24   30    1     -2.08      0.00
  -23   31    1      0.22      0.00
  -21   31    1     -4.62      0.00
   21   31    1     -5.56      0.00
   23   31    1      3.55      0.00
  -24   32    1      0.76      0.00
  -22   32    1     -2.36      0.00
  -20   32    1     -1.26      0.00
   20   32    1      2.72      0.00
   22   32    1     -0.14      0.00
  -23   33    1     -0.95      0.00
  -21   33    1     -2.56      0.00
  -19   33    1     -2.99      0.00
   19   33    1      0.70      0.00
   21   33    1     -0.03      0.00
  -22   34    1      0.30      0.00
  -20   34    1     -3.20      0.00
   18   34    1     -4.58      0.00
   20   34    1      1.64      0.00
  -21   35    1      0.39      0.00
  -19   35    1      0.26      0.00
   17   35    1     -1.15      0.00
   19   35    1      4.92      0.00
  -20   36    1      1.50      0.00
  -18   36    1      5.88      0.00
   16   36    1      6.96      0.00
   18   36    1      1.43      0.00
   20   36    1      1.16      0.00
  -19   37    1      1.04      0.00
  -17   37    1     -6.44      0.00
   15   37    1      0.40      0.00
   17   37    1     -7.66      0.00
   19   37    1      2.99      0.00
  -18   38    1      4.71      0.00
  -16   38    1     -0.52      0.00
   14   38    1      7.48      0.00
   16   38    1      8.79      0.00
   18   38    1      4.72      0.00
  -17   39    1     -4.72      0.00
  -15   39    1      0.97      0.00
  -13   39    1     -6.54      0.00
   13   39    1     -7.54      0.00
   15   39    1      0.35      0.00
   17   39    1     -3.05      0.00
  -16   40    1     -1.65      0.00
  -14   40    1      3.02      0.00
  -12   40    1      4.46      0.00
   12   40    1      1.26      0.00
   14   40    1      2.94      0.00
   16   40    1      2.99      0.00
  -15   41    1     -1.30      0.00
  -13   41    1     -4.95      0.00
  -11   41    1     -2.01      0.00
    9   41    1     -0.29      0.00
   11   41    1      0.32      0.00
   13   41    1     -5.72      0.00
   15   41    1      2.82      0.00
  -14   42    1      2.04      0.00
  -12   42    1      1.66      0.00
  -10   42    1      1.18      0.00
   -8   42    1      1.04      0.00
    6   42    1      1.14      0.00
    8   42    1      1.74      0.00
   10   42    1      1.00      0.00
   12   42    1      1.43      0.00
   14   42    1      1.12      0.00
  -13   43    1     -1.69      0.00
  -11   43    1     -1.42      0.00
   -9   43    1      0.19      0.00
   -7   43    1     -0.24      0.00
   -5   43    1     -3.91      0.00
   -3   43    1     -4.40      0.00
    3   43    1     -2.03      0.00
    5   43    1      1.43      0.00
    7   43    1     -0.17      0.00
    9   43    1     -2.69      0.00
   11   43    1      2.51      0.00
   13   43    1     -4.20      0.00
  -32    0    2     -6.86      0.00
  -30    0    2      6.50      0.00
   28    0    2    -10.82      0.00
   30    0    2      0.81      0.00
  -31    1    2     -3.06      0.00
   29    1    2      2.64      0.00
  -32    2    2     -5.07      0.00
  -30    2    2      9.27      0.00
   28    2    2     -2.15      0.00
   30    2    2      6.57      0.00
  -31    3    2     -4.52      0.00
   29    3    2     -1.07      0.00
  -32    4    2     -7.15      0.00
  -30    4    2      8.25      0.00
   28    4    2      0.22      0.00
   30    4    2      9.73      0.00
  -31    5    2     -3.95      0.00
   29    5    2     -0.60      0.00
  -32    6    2     -7.89      0.00
  -30    6    2      9.89      0.00
   28    6    2     -1.78      0.00
   30    6    2      3.97      0.00
  -31    7    2     -8.51      0.00
   27    7    2      8.66      0.00
   29    7    2     -2.63      0.00
  -32    8    2     -4.51      0.00
  -30    8    2      9.07      0.00
   28    8    2      1.93      0.00
  -31    9    2     -6.61      0.00
  -29    9    2      1.09      0.00
   27    9    2      6.76      0.00
   29    9    2     -1.76      0.00
  -30   10    2      5.54      0.00
   28   10    2      3.52      0.00
  -31   11    2     -5.97      0.00
  -29   11    2     -1.27      0.00
   27   11    2      5.43      0.00
   29   11    2     -0.45      0.00
  -30   12    2      8.05      0.00
   28   12    2      0.46      0.00
  -31   13    2     -8.49      0.00
  -29   13    2      0.40      0.00
   27   13    2      9.87      0.00
   29   13    2     -1.85      0.00
  -30   14    2      3.17      0.00
   26   14    2     -5.23      0.00
   28   14    2     -5.96      0.00
  -31   15    2     -4.87      0.00
  -29   15    2      2.82      0.00
   27   15    2      6.58      0.00
  -30   16    2     -0.93      0.00
  -28   16    2     -1.28      0.00
   26   16    2     -0.68      0.00
   28   16    2     -4.71      0.00
  -29   17    2      2.61      0.00
   25   17    2     -4.17      0.00
   27   17    2      0.55      0.00
  -30   18    2      1.37      0.00
  -28   18    2     -6.05      0.00
   26   18    2      0.94      0.00
   28   18    2     -3.56      0.00
  -29   19    2      4.42      0.00
  -27   19    2      7.48      0.00
   25   19    2     -6.00      0.00
   27   19    2      3.79      0.00
  -28   20    2     -6.45      0.00
   24   20    2      0.80      0.00
   26   20    2      0.22      0.00
  -29   21    2      1.22      0.00
  -27   21    2      4.30      0.00
   25   21    2     -6.46      0.00
   27   21    2      3.08      0.00
  -28   22    2     -2.09      0.00
  -26   22    2      5.43      0.00
   24   22    2     -1.84      0.00
   26   22    2      1.87      0.00
  -27   23    2      2.70      0.00
   23   23    2      6.57      0.00
   25   23    2     -3.25      0.00
  -28   24    2     -0.91      0.00
  -26   24    2      4.94      0.00
   24   24    2     -4.73      0.00
   26   24    2      1.68      0.00
  -27   25    2     -0.99      0.00
  -25   25    2      0.22      0.00
   23   25    2      8.20      0.00
   25   25    2     -0.03      0.00
  -26   26    2      6.07      0.00
  -24   26    2     -2.94      0.00
   22   26    2      1.39      0.00
   24   26    2     -3.89      0.00
  -27   27    2     -0.85      0.00
  -25   27    2     -2.74      0.00
   21   27    2      1.21      0.00
   23   27    2      4.32      0.00
  -26   28    2      2.64      0.00
  -24   28    2     -8.81      0.00
   22   28    2      0.48      0.00
   24   28    2     -1.46      0.00
  -25   29    2     -0.75      0.00
  -23   29    2      5.98      0.00
   21   29    2     -1.46      0.00
   23   29    2      1.65      0.00
  -24   30    2     -8.02      0.00
  -22   30    2      7.01      0.00
   20   30    2     -1.87      0.00
   22   30    2      1.70      0.00
  -25   31    2      1.58      0.00
  -23   31    2     -1.88      0.00
  -21   31    2     -2.53      0.00
   19   31    2     -1.65      0.00
   21   31    2     -4.79      0.00
  -24   32    2     -1.51      0.00
  -22   32    2      4.08      0.00
   18   32    2     -5.86      0.00
   20   32    2     -3.22      0.00
   22   32    2      2.44      0.00
  -23   33    2     -1.10      0.00
  -21   33    2      0.58      0.00
   19   33    2     -0.92      0.00
   21   33    2     -1.75      0.00
  -22   34    2      3.27      0.00
  -20   34    2     -8.87      0.00
   18   34    2     -2.37      0.00
   20   34    2      0.59      0.00
  -21   35    2      1.09      0.00
  -19   35    2     -3.07      0.00
   17   35    2      0.31      0.00
   19   35    2     -1.34      0.00
  -20   36    2     -0.36      0.00
  -18   36    2      6.13      0.00
   16   36    2      8.16      0.00
   18   36    2      3.43      0.00
  -21   37    2      1.20      0.00
  -19   37    2     -2.41      0.00
  -17   37    2      5.02      0.00
   15   37    2      4.73      0.00
   17   37    2      0.69      0.00
  -20   38    2      1.06      0.00
  -18   38    2      5.11      0.00
  -16   38    2      2.60      0.00
   14   38    2     -3.25      0.00
   16   38    2      1.37      0.00
  -19   39    2      1.59      0.00
  -17   39    2      2.02      0.00
  -15   39    2      4.05      0.00
   11   39    2      3.30      0.00
   13   39    2      3.13      0.00
   15   39    2      1.37      0.00
   17   39    2      1.78      0.00
  -18   40    2      4.13      0.00
  -16   40    2      0.47      0.00
  -14   40    2     -0.94      0.00
  -12   40    2      0.92      0.00
   10   40    2      0.63      0.00
   12   40    2      6.44      0.00
   14   40    2     -0.40      0.00
   16   40    2      0.22      0.00
  -17   41    2      3.98      0.00
  -15   41    2      1.51      0.00
  -13   41    2     -5.22      0.00
  -11   41    2      2.22      0.00
    9   41    2     -6.32      0.00
   11   41    2      1.97      0.00
   13   41    2     -0.68      0.00
  -16   42    2     -1.83      0.00
  -14   42    2     -1.26      0.00
  -12   42    2     -5.37      0.00
  -10   42    2     -0.83      0.00
   -8   42    2     -5.93      0.00
    6   42    2     -0.76      0.00
    8   42    2     -0.83      0.00
   10   42    2     -3.22      0.00
   12   42    2      3.04      0.00
  -13   43    2     -1.03      0.00
  -11   43    2      3.85      0.00
   -9   43    2      3.47      0.00
   -7   43    2      6.39      0.00
   -5   43    2      3.92      0.00
   -3   43    2      3.80      0.00
   -1   43    2     -2.75      0.00
    1   43    2      4.15      0.00
    3   43    2      3.57      0.00
    5   43    2      1.43      0.00
    7   43    2      7.32      0.00
    9   43    2     -1.75      0.00
   11   43    2      5.00      0.00
  -32    0    3     -3.38      0.00
   28    0    3      0.01      0.00
  -31    1    3     -3.47      0.00
   27    1    3      6.92      0.00
   29    1    3     -0.96      0.00
  -32    2    3     -3.65      0.00
  -30    2    3      7.55      0.00
   28    2    3     -1.13      0.00
  -31    3    3     -4.76      0.00
   27    3    3      6.99      0.00
   29    3    3      3.31      0.00
  -32    4    3     -3.92      0.00
  -30    4    3     10.90      0.00
   28    4    3     -3.21      0.00
  -31    5    3     -2.10      0.00
   27    5    3      3.38      0.00
   29    5    3     -1.19      0.00
  -32    6    3     -6.88      0.00
  -30    6    3      9.22      0.00
   28    6    3     -4.13      0.00
  -31    7    3      0.72      0.00
   27    7    3      1.54      0.00
   29    7    3     -5.63      0.00
  -32    8    3     -6.37      0.00
  -30    8    3      5.99      0.00
   26    8    3      1.45      0.00
   28    8    3     -3.58      0.00
  -31    9    3     -2.40      0.00
   27    9    3     -0.74      0.00
   29    9    3     -1.44      0.00
  -32   10    3     -1.89      0.00
  -30   10    3      3.97      0.00
   26   10    3      6.98      0.00
   28   10    3     -2.23      0.00
  -31   11    3     -2.91      0.00
   27   11    3     -0.42      0.00
  -32   12    3     -1.96      0.00
  -30   12    3      5.98      0.00
   26   12    3      2.80      0.00
   28   12    3     -4.19      0.00
  -31   13    3     -3.46      0.00
  -29   13    3     -0.10      0.00
   27   13    3      2.06      0.00
  -30   14    3      5.93      0.00
   26   14    3      0.03      0.00
   28   14    3     -6.23      0.00
  -31   15    3     -4.34      0.00
  -29   15    3      6.74      0.00
   25   15    3     -2.84      0.00
   27   15    3      0.62      0.00
  -30   16    3      2.26      0.00
  -28   16    3     -7.42      0.00
   26   16    3      1.01      0.00
  -31   17    3     -2.06      0.00
  -29   17    3      5.61      0.00
   25   17    3     -0.72      0.00
   27   17    3     -0.19      0.00
  -30   18    3      3.27      0.00
  -28   18    3     -7.49      0.00
   24   18    3      2.01      0.00
   26   18    3      6.10      0.00
  -29   19    3      6.59      0.00
   25   19    3     -5.34      0.00
   27   19    3      0.67      0.00
  -30   20    3      2.29      0.00
  -28   20    3    -11.66      0.00
   24   20    3      3.99      0.00
   26   20    3      7.60      0.00
  -29   21    3      8.31      0.00
  -27   21    3      3.69      0.00
   23   21    3      2.93      0.00
   25   21    3     -5.27      0.00
  -28   22    3     -4.66      0.00
   24   22    3      2.00      0.00
   26   22    3      3.49      0.00
  -29   23    3      5.36      0.00
  -27   23    3     -2.83      0.00
   23   23    3      2.46      0.00
   25   23    3     -2.72      0.00
  -28   24    3     -0.50      0.00
  -26   24    3      6.88      0.00
   22   24    3     -1.60      0.00
   24   24    3     -0.08      0.00
  -27   25    3     -3.78      0.00
  -25   25    3      2.92      0.00
   23   25    3      2.63      0.00
  -28   26    3     -1.34      0.00
  -26   26    3      7.05      0.00
   22   26    3      0.28      0.00
   24   26    3     -1.71      0.00
  -27   27    3     -1.10      0.00
  -25   27    3      0.13      0.00
   21   27    3     -3.59      0.00
   23   27    3      0.88      0.00
  -26   28    3      3.57      0.00
  -24   28    3      1.78      0.00
   20   28    3      4.40      0.00
   22   28    3     -0.91      0.00
  -25   29    3      1.74      0.00
  -23   29    3      3.97      0.00
   21   29    3     -5.96      0.00
   23   29    3     -1.20      0.00
  -26   30    3      0.88      0.00
  -24   30    3     -5.75      0.00
  -22   30    3     -1.57      0.00
   20   30    3     -0.95      0.00
   22   30    3      0.75      0.00
  -25   31    3      4.32      0.00
  -23   31    3      0.14      0.00
   19   31    3      2.85      0.00
   21   31    3     -2.61      0.00
  -24   32    3     -3.97      0.00
  -22   32    3     -0.65      0.00
   18   32    3     -3.96      0.00
   20   32    3     -0.77      0.00
  -23   33    3     -2.91      0.00
  -21   33    3     -3.99      0.00
   17   33    3     -0.73      0.00
   19   33    3      5.60      0.00
  -22   34    3      0.90      0.00
  -20   34    3     -5.47      0.00
   16   34    3     -0.70      0.00
   18   34    3     -4.35      0.00
   20   34    3      2.55      0.00
  -23   35    3     -1.05      0.00
  -21   35    3     -2.76      0.00
  -19   35    3      1.29      0.00
   15   35    3      5.73      0.00
   17   35    3      2.37      0.00
   19   35    3      5.69      0.00
  -22   36    3      1.72      0.00
  -20   36    3     -2.69      0.00
  -18   36    3      5.00      0.00
   14   36    3      2.57      0.00
   16   36    3      2.01      0.00
   18   36    3      1.22      0.00
  -21   37    3      1.40      0.00
  -19   37    3     -0.77      0.00
  -17   37    3     -0.54      0.00
   13   37    3     -2.34      0.00
   15   37    3      1.59      0.00
   17   37    3     -1.17      0.00
  -20   38    3     -2.24      0.00
  -18   38    3      1.27      0.00
  -16   38    3     -8.46      0.00
   12   38    3     11.13      0.00
   14   38    3      8.07      0.00
   16   38    3      3.26      0.00
  -19   39    3      1.87      0.00
  -17   39    3     -1.99      0.00
  -15   39    3      1.64      0.00
   11   39    3     -2.97      0.00
   13   39    3     -1.47      0.00
   15   39    3      0.82      0.00
  -18   40    3      2.91      0.00
  -16   40    3     -4.75      0.00
  -14   40    3      4.37      0.00
  -12   40    3     -0.34      0.00
   10   40    3     -2.40      0.00
   12   40    3      6.36      0.00
   14   40    3      2.78      0.00
  -17   41    3     -0.93      0.00
  -15   41    3     -1.02      0.00
  -13   41    3     -3.72      0.00
  -11   41    3      2.12      0.00
    7   41    3     -0.40      0.00
    9   41    3     -3.13      0.00
   11   41    3      2.70      0.00
   13   41    3     -0.32      0.00
  -16   42    3     -3.66      0.00
  -14   42    3      6.43      0.00
  -12   42    3     -2.50      0.00
  -10   42    3      1.10      0.00
   -8   42    3      3.40      0.00
    4   42    3      4.41      0.00
    6   42    3     -0.80      0.00
    8   42    3     -1.27      0.00
   10   42    3     -0.37      0.00
   12   42    3      2.68      0.00
  -15   43    3      1.47      0.00
  -13   43    3     -1.40      0.00
  -11   43    3      0.53      0.00
   -9   43    3     -0.47      0.00
   -7   43    3      2.50      0.00
   -5   43    3     -7.46      0.00
   -3   43    3     -1.80      0.00
   -1   43    3      0.47      0.00
    1   43    3     -0.51      0.00
    3   43    3      2.38      0.00
    5   43    3      0.50      0.00
    7   43    3      0.06      0.00
    9   43    3     -2.27      0.00
   11   43    3      1.08      0.00
  -32    0    4     -4.91      0.00
   26    0    4    -10.25      0.00
   28    0    4     -4.60      0.00
  -31    1    4     -3.84      0.00
   27    1    4      4.90      0.00
  -32    2    4     -3.77      0.00
   26    2    4     -6.54      0.00
   28    2    4     -1.73      0.00
  -31    3    4     -7.19      0.00
   27    3    4      5.37      0.00
  -32    4    4     -5.21      0.00
   26    4    4     -0.79      0.00
   28    4    4     -1.26      0.00
  -31    5    4     -3.74      0.00
   27    5    4      4.09      0.00
  -32    6    4     -3.36      0.00
   26    6    4      2.49      0.00
   28    6    4     -2.47      0.00
  -31    7    4     -4.37      0.00
   27    7    4      3.16      0.00
  -32    8    4     -0.41      0.00
  -30    8    4      8.68      0.00
   26    8    4      5.12      0.00
   28    8    4     -2.23      0.00
  -31    9    4     -5.83      0.00
   27    9    4      4.21      0.00
  -32   10    4     -0.65      0.00
  -30   10    4      4.34      0.00
   26   10    4      5.92      0.00
   28   10    4     -0.88      0.00
  -31   11    4     -5.56      0.00
   25   11    4      1.52      0.00
   27   11    4      3.62      0.00
  -32   12    4     -1.00      0.00
  -30   12    4      5.83      0.00
   26   12    4      4.52      0.00
  -31   13    4     -5.68      0.00
   25   13    4     -2.12      0.00
   27   13    4      1.13      0.00
  -32   14    4     -1.63      0.00
  -30   14    4      9.06      0.00
   26   14    4      1.43      0.00
  -31   15    4     -7.32      0.00
  -29   15    4      8.78      0.00
   25   15    4     -3.51      0.00
   27   15    4      0.45      0.00
  -30   16    4      4.55      0.00
   24   16    4     -3.72      0.00
   26   16    4     -3.60      0.00
  -31   17    4     -4.36      0.00
  -29   17    4     11.19      0.00
   25   17    4     -2.04      0.00
  -30   18    4      1.85      0.00
  -28   18    4     -1.79      0.00
   24   18    4     -4.01      0.00
   26   18    4     -1.56      0.00
  -29   19    4      4.23      0.00
   23   19    4      4.43      0.00
   25   19    4     -4.01      0.00
  -30   20    4      2.20      0.00
  -28   20    4     -0.82      0.00
   24   20    4     -5.03      0.00
  -29   21    4      4.40      0.00
  -27   21    4     -1.19      0.00
   23   21    4      3.19      0.00
   25   21    4     -5.15      0.00
  -30   22    4     -2.02      0.00
  -28   22    4     -2.55      0.00
   22   22    4     -4.85      0.00
   24   22    4     -3.22      0.00
  -29   23    4      6.16      0.00
  -27   23    4     -2.41      0.00
   23   23    4     -0.53      0.00
  -28   24    4     -2.18      0.00
  -26   24    4      5.10      0.00
   22   24    4     -2.07      0.00
   24   24    4     -2.38      0.00
  -27   25    4     -4.00      0.00
   21   25    4     -0.72      0.00
   23   25    4      0.67      0.00
  -28   26    4      0.30      0.00
  -26   26    4      5.65      0.00
   20   26    4      0.25      0.00
   22   26    4     -1.35      0.00
  -27   27    4     -2.27      0.00
  -25   27    4     -2.21      0.00
   21   27    4     -1.44      0.00
   23   27    4      2.84      0.00
  -26   28    4     -0.97      0.00
  -24   28    4      0.63      0.00
   20   28    4      2.76      0.00
   22   28    4      0.31      0.00
  -27   29    4      1.01      0.00
  -25   29    4     -1.79      0.00
  -23   29    4      1.78      0.00
   19   29    4      1.43      0.00
   21   29    4     -4.67      0.00
  -26   30    4     -1.62      0.00
  -24   30    4     -2.37      0.00
   18   30    4     -3.84      0.00
   20   30    4      1.62      0.00
  -25   31    4      0.14      0.00
  -23   31    4     -1.64      0.00
   17   31    4     -4.38      0.00
   19   31    4     -0.22      0.00
   21   31    4     -1.61      0.00
  -24   32    4     -4.50      0.00
  -22   32    4      6.42      0.00
   18   32    4     -2.90      0.00
   20   32    4      0.38      0.00
  -23   33    4     -1.77      0.00
  -21   33    4      1.25      0.00
   17   33    4      0.00      0.00
   19   33    4      3.89      0.00
  -24   34    4     -2.70      0.00
  -22   34    4      1.68      0.00
  -20   34    4     -5.36      0.00
   16   34    4      3.81      0.00
   18   34    4     -1.59      0.00
  -23   35    4     -2.14      0.00
  -21   35    4      2.38      0.00
  -19   35    4     -1.64      0.00
   15   35    4      3.11      0.00
   17   35    4      0.29      0.00
  -22   36    4      3.01      0.00
  -20   36    4     -4.38      0.00
  -18   36    4      2.84      0.00
   14   36    4      1.81      0.00
   16   36    4      2.62      0.00
  -21   37    4      3.39      0.00
  -19   37    4     -3.62      0.00
  -17   37    4      5.31      0.00
   13   37    4      2.85      0.00
   15   37    4      3.91      0.00
   17   37    4      1.04      0.00
  -20   38    4     -0.46      0.00
  -18   38    4      2.56      0.00
  -16   38    4     -4.30      0.00
   12   38    4     -1.74      0.00
   14   38    4     -1.16      0.00
   16   38    4     -0.49      0.00
  -19   39    4     -2.88      0.00
  -17   39    4      2.98      0.00
  -15   39    4     -3.25      0.00
    9   39    4      7.53      0.00
   11   39    4      0.10      0.00
   13   39    4     -2.16      0.00
   15   39    4      1.40      0.00
  -18   40    4      0.61      0.00
  -16   40    4     -2.54      0.00
  -14   40    4     -1.21      0.00
    8   40    4      5.06      0.00
   10   40    4     -0.17      0.00
   12   40    4      2.23      0.00
   14   40    4      1.42      0.00
  -17   41    4      3.37      0.00
  -15   41    4     -1.44      0.00
  -13   41    4     -2.71      0.00
  -11   41    4      9.66      0.00
    7   41    4     -2.32      0.00
    9   41    4      2.52      0.00
   11   41    4      1.33      0.00
   13   41    4     -4.10      0.00
  -16   42    4     -5.75      0.00
  -14   42    4     -3.63      0.00
  -12   42    4     -0.16      0.00
  -10   42    4     -2.19      0.00
   -8   42    4     -1.66      0.00
    4   42    4      0.15      0.00
    6   42    4     -2.59      0.00
    8   42    4      3.26      0.00
   10   42    4     -0.90      0.00
   12   42    4     -1.21      0.00
  -15   43    4     -1.26      0.00
  -13   43    4     -2.95      0.00
  -11   43    4      5.23      0.00
   -9   43    4      0.53      0.00
   -7   43    4      3.12      0.00
   -5   43    4     -0.55      0.00
   -3   43    4     -1.23      0.00
   -1   43    4      2.59      0.00
    1   43    4      3.84      0.00
    3   43    4     -1.67      0.00
    5   43    4      0.99      0.00
    7   43    4      2.08      0.00
    9   43    4      5.38      0.00
  -32    0    5     -2.91      0.00
   26    0    5     -2.26      0.00
   28    0    5     -2.62      0.00
  -31    1    5     -1.03      0.00
   25    1    5     -6.79      0.00
   27    1    5      5.59      0.00
  -32    2    5     -2.50      0.00
   26    2    5     -1.58      0.00
   28    2    5     -0.30      0.00
  -31    3    5     -5.19      0.00
   25    3    5     -2.87      0.00
   27    3    5      5.14      0.00
  -32    4    5     -1.30      0.00
   26    4    5     -0.56      0.00
   28    4    5     -0.21      0.00
  -31    5    5     -4.66      0.00
   25    5    5     -2.88      0.00
   27    5    5      1.09      0.00
  -32    6    5     -2.17      0.00
   26    6    5      0.84      0.00
  -31    7    5     -2.94      0.00
   25    7    5     -9.58      0.00
   27    7    5     -0.12      0.00
  -32    8    5     -3.78      0.00
   26    8    5      2.25      0.00
  -31    9    5     -8.56      0.00
   25    9    5     -8.57      0.00
   27    9    5      1.74      0.00
  -32   10    5     -2.25      0.00
   26   10    5      1.64      0.00
  -31   11    5    -14.28      0.00
   25   11    5     -5.97      0.00
   27   11    5      2.44      0.00
  -32   12    5     -0.41      0.00
  -30   12    5      4.67      0.00
   24   12    5      3.98      0.00
   26   12    5      1.44      0.00
  -31   13    5     -9.55      0.00
   25   13    5     -6.21      0.00
  -32   14    5     -1.63      0.00
  -30   14    5      4.52      0.00
   24   14    5     -0.68      0.00
   26   14    5      0.42      0.00
  -31   15    5     -5.65      0.00
   25   15    5     -5.96      0.00
  -32   16    5      0.50      0.00
  -30   16    5      1.39      0.00
   24   16    5      2.38      0.00
   26   16    5     -0.47      0.00
  -31   17    5     -5.88      0.00
  -29   17    5     11.24      0.00
   23   17    5      1.38      0.00
   25   17    5     -4.55      0.00
  -30   18    5     -3.01      0.00
   24   18    5      2.31      0.00
  -31   19    5     -1.26      0.00
  -29   19    5      6.84      0.00
   23   19    5      1.00      0.00
   25   19    5     -1.66      0.00
  -30   20    5     -5.34      0.00
  -28   20    5     -2.24      0.00
   22   20    5     -0.01      0.00
   24   20    5     -1.40      0.00
  -29   21    5      8.64      0.00
   23   21    5      1.83      0.00
  -30   22    5     -4.06      0.00
  -28   22    5     -3.48      0.00
   22   22    5      1.21      0.00
   24   22    5     -1.46      0.00
  -29   23    5      9.96      0.00
  -27   23    5     -4.35      0.00
   21   23    5     -4.51      0.00
   23   23    5      0.76      0.00
  -28   24    5     -2.94      0.00
  -26   24    5      5.86      0.00
   22   24    5      2.19      0.00
  -29   25    5      5.55      0.00
  -27   25    5     -2.87      0.00
   21   25    5      0.07      0.00
   23   25    5      0.79      0.00
  -28   26    5      0.54      0.00
  -26   26    5      5.79      0.00
   20   26    5      1.75      0.00
   22   26    5      1.34      0.00
  -27   27    5     -4.24      0.00
  -25   27    5      5.05      0.00
   19   27    5      3.50      0.00
   21   27    5     -2.30      0.00
  -26   28    5      1.40      0.00
  -24   28    5      3.93      0.00
   18   28    5     -2.91      0.00
   20   28    5      2.86      0.00
   22   28    5      2.50      0.00
  -27   29    5     -1.56      0.00
  -25   29    5      6.98      0.00
   19   29    5      0.27      0.00
   21   29    5     -4.43      0.00
  -26   30    5     -2.48      0.00
  -24   30    5      0.32      0.00
   18   30    5     -3.40      0.00
   20   30    5      1.20      0.00
  -25   31    5      5.52      0.00
  -23   31    5     -0.18      0.00
   17   31    5      0.82      0.00
   19   31    5      0.85      0.00
  -24   32    5     -4.30      0.00
  -22   32    5     -1.53      0.00
   16   32    5     -0.78      0.00
   18   32    5     -3.65      0.00
  -25   33    5      3.69      0.00
  -23   33    5     -1.78      0.00
  -21   33    5      0.66      0.00
   15   33    5      5.07      0.00
   17   33    5      1.00      0.00
   19   33    5      2.79      0.00
  -24   34    5     -2.26      0.00
  -22   34    5     -3.55      0.00
  -20   34    5     -2.97      0.00
   14   34    5     -2.01      0.00
   16   34    5      1.25      0.00
   18   34    5     -1.25      0.00
  -23   35    5     -1.96      0.00
  -21   35    5      0.70      0.00
  -19   35    5     -0.23      0.00
   13   35    5      2.11      0.00
   15   35    5      6.39      0.00
   17   35    5      0.99      0.00
  -22   36    5     -0.50      0.00
  -20   36    5     -3.12      0.00
  -18   36    5      7.12      0.00
   12   36    5      1.65      0.00
   14   36    5      1.92      0.00
   16   36    5      1.00      0.00
  -21   37    5      1.24      0.00
  -19   37    5     -1.50      0.00
  -17   37    5     -1.82      0.00
   11   37    5     -1.33      0.00
   13   37    5      0.54      0.00
   15   37    5      2.38      0.00
  -20   38    5     -2.05      0.00
  -18   38    5      1.63      0.00
  -16   38    5     -6.75      0.00
   10   38    5      4.59      0.00
   12   38    5      6.71      0.00
   14   38    5      0.07      0.00
  -19   39    5     -1.81      0.00
  -17   39    5      1.58      0.00
  -15   39    5      0.14      0.00
    9   39    5      2.33      0.00
   11   39    5      0.92      0.00
   13   39    5     -0.98      0.00
  -18   40    5     -0.72      0.00
  -16   40    5     -4.10      0.00
  -14   40    5      3.06      0.00
    8   40    5     -0.87      0.00
   10   40    5      1.63      0.00
   12   40    5      2.87      0.00
  -17   41    5     -0.77      0.00
  -15   41    5      0.03      0.00
  -13   41    5     -4.38      0.00
  -11   41    5      0.10      0.00
    5   41    5      0.08      0.00
    7   41    5     -3.78      0.00
    9   41    5      1.64      0.00
   11   41    5      3.70      0.00
  -16   42    5     -1.94      0.00
  -14   42    5      3.11      0.00
  -12   42    5      1.59      0.00
  -10   42    5     -0.34      0.00
   -8   42    5      0.14      0.00
    2   42    5      3.09      0.00
    4   42    5      4.02      0.00
    6   42    5     -6.42      0.00
    8   42    5     -0.72      0.00
   10   42    5      1.39      0.00
  -15   43    5      1.00      0.00
  -13   43    5     -1.46      0.00
  -11   43    5      1.81      0.00
   -9   43    5      1.07      0.00
   -7   43    5     -0.26      0.00
   -5   43    5     -2.94      0.00
   -3   43    5      1.11      0.00
   -1   43    5      2.62      0.00
    1   43    5      0.94      0.00
    3   43    5     -2.04      0.00
    5   43    5      2.38      0.00
    7   43    5     -1.79      0.00
    9   43    5      1.98      0.00
  -32    0    6      0.15      0.00
   26    0    6      3.04      0.00
   25    1    6    -10.23      0.00
   27    1    6      4.48      0.00
  -32    2    6     -0.63      0.00
   26    2    6      2.27      0.00
   25    3    6     -4.00      0.00
   27    3    6      6.55      0.00
  -32    4    6     -1.57      0.00
   24    4    6      0.63      0.00
   26    4    6      0.96      0.00
  -31    5    6     -6.08      0.00
   25    5    6     -4.46      0.00
   27    5    6      2.15      0.00
  -32    6    6      1.73      0.00
   24    6    6      2.91      0.00
   26    6    6      1.49      0.00
  -31    7    6     -8.28      0.00
   25    7    6     -8.11      0.00
  -32    8    6      2.57      0.00
   24    8    6      3.82      0.00
   26    8    6      1.05      0.00
  -31    9    6    -12.58      0.00
   25    9    6     -5.37      0.00
  -32   10    6      1.20      0.00
   24   10    6      4.13      0.00
   26   10    6      0.77      0.00
  -31   11    6    -16.18      0.00
   25   11    6     -4.67      0.00
  -32   12    6      5.34      0.00
   24   12    6      0.90      0.00
   26   12    6      0.88      0.00
  -31   13    6    -10.87      0.00
   23   13    6      3.21      0.00
   25   13    6     -6.21      0.00
  -32   14    6      5.31      0.00
  -30   14    6      3.54      0.00
   24   14    6     -1.16      0.00
  -31   15    6     -3.87      0.00
   23   15    6      4.52      0.00
   25   15    6     -7.23      0.00
  -32   16    6      2.90      0.00
  -30   16    6      4.34      0.00
   24   16    6     -1.36      0.00
  -31   17    6     -3.84      0.00
  -29   17    6      6.55      0.00
   23   17    6      8.74      0.00
   25   17    6     -4.83      0.00
  -32   18    6      5.38      0.00
  -30   18    6      0.26      0.00
   22   18    6     -4.40      0.00
   24   18    6      0.53      0.00
  -31   19    6     -3.58      0.00
  -29   19    6      5.28      0.00
   23   19    6      3.15      0.00
  -30   20    6     -1.84      0.00
  -28   20    6      3.17      0.00
   22   20    6      0.87      0.00
   24   20    6     -0.77      0.00
  -31   21    6     -1.52      0.00
  -29   21    6      4.15      0.00
   21   21    6     -5.39      0.00
   23   21    6      3.36      0.00
  -30   22    6     -1.89      0.00
  -28   22    6     -2.33      0.00
   22   22    6     -0.69      0.00
  -29   23    6      4.44      0.00
  -27   23    6     -4.80      0.00
   21   23    6     -7.94      0.00
   23   23    6      3.62      0.00
  -30   24    6     -0.86      0.00
  -28   24    6     -1.41      0.00
   20   24    6     -1.03      0.00
   22   24    6      0.08      0.00
  -29   25    6      1.71      0.00
  -27   25    6     -4.47      0.00
   19   25    6      2.88      0.00
   21   25    6     -5.97      0.00
  -28   26    6      2.38      0.00
  -26   26    6      3.91      0.00
   20   26    6     -2.29      0.00
   22   26    6      0.62      0.00
  -27   27    6     -3.91      0.00
  -25   27    6      4.47      0.00
   19   27    6      5.54      0.00
   21   27    6     -3.08      0.00
  -28   28    6      3.67      0.00
  -26   28    6      1.53      0.00
   18   28    6     -1.30      0.00
   20   28    6     -3.06      0.00
  -27   29    6     -3.48      0.00
  -25   29    6      6.47      0.00
   17   29    6     -3.96      0.00
   19   29    6      0.10      0.00
  -26   30    6     -0.90      0.00
  -24   30    6      0.34      0.00
   16   30    6     -0.60      0.00
   18   30    6      1.03      0.00
   20   30    6      0.09      0.00
  -25   31    6      1.60      0.00
  -23   31    6     -5.45      0.00
   17   31    6     -1.77      0.00
   19   31    6      0.01      0.00
  -26   32    6     -0.28      0.00
  -24   32    6     -1.26      0.00
  -22   32    6      6.54      0.00
   16   32    6     -0.65      0.00
   18   32    6      0.37      0.00
  -25   33    6      0.96      0.00
  -23   33    6     -3.13      0.00
  -21   33    6      4.26      0.00
   15   33    6      4.52      0.00
   17   33    6      1.45      0.00
  -24   34    6     -1.26      0.00
  -22   34    6      2.15      0.00
  -20   34    6      0.18      0.00
   14   34    6      1.49      0.00
   16   34    6      0.84      0.00
  -23   35    6     -3.87      0.00
  -21   35    6      3.84      0.00
  -19   35    6     -6.96      0.00
   13   35    6      1.35      0.00
   15   35    6      3.80      0.00
  -22   36    6      0.33      0.00
  -20   36    6     -3.02      0.00
  -18   36    6     -0.73      0.00
   12   36    6     -1.95      0.00
   14   36    6      1.39      0.00
   16   36    6      1.76      0.00
  -21   37    6      1.66      0.00
  -19   37    6     -3.88      0.00
  -17   37    6      0.56      0.00
   11   37    6      0.26      0.00
   13   37    6      2.03      0.00
   15   37    6      1.84      0.00
  -20   38    6     -3.55      0.00
  -18   38    6     -0.23      0.00
  -16   38    6     -1.67      0.00
   10   38    6     -4.27      0.00
   12   38    6      1.04      0.00
   14   38    6     -0.95      0.00
  -19   39    6     -6.42      0.00
  -17   39    6      0.35      0.00
  -15   39    6      1.19      0.00
    7   39    6     -1.63      0.00
    9   39    6      4.50      0.00
   11   39    6     -2.29      0.00
   13   39    6     -2.48      0.00
  -18   40    6      0.06      0.00
  -16   40    6     -1.04      0.00
  -14   40    6      5.48      0.00
  -12   40    6      1.36      0.00
    6   40    6     -0.50      0.00
    8   40    6      2.54      0.00
   10   40    6      1.76      0.00
   12   40    6      0.59      0.00
  -17   41    6      0.58      0.00
  -15   41    6     -0.40      0.00
  -13   41    6     -1.28      0.00
  -11   41    6      1.72      0.00
    3   41    6     -6.70      0.00
    5   41    6     -0.76      0.00
    7   41    6      1.63      0.00
    9   41    6      2.62      0.00
   11   41    6     -1.35      0.00
  -16   42    6     -2.26      0.00
  -14   42    6      0.21      0.00
  -12   42    6      0.32      0.00
  -10   42    6     -1.11      0.00
   -8   42    6     -2.94      0.00
   -6   42    6      2.86      0.00
   -4   42    6     -0.93      0.00
   -2   42    6      1.33      0.00
    0   42    6     -1.82      0.00
    2   42    6     -1.76      0.00
    4   42    6      2.94      0.00
    6   42    6     -3.23      0.00
    8   42    6      0.47      0.00
   10   42    6      0.41      0.00
  -15   43    6     -0.90      0.00
  -13   43    6     -0.51      0.00
  -11   43    6      2.36      0.00
   -9   43    6      0.34      0.00
   -7   43    6     -0.79      0.00
   -5   43    6     -0.49      0.00
   -3   43    6      2.71      0.00
   -1   43    6      1.77      0.00
    1   43    6      1.61      0.00
    3   43    6     -4.44      0.00
    5   43    6      3.03      0.00
    7   43    6      2.67      0.00
  -32    0    7      4.10      0.00
   24    0    7     -3.88      0.00
   26    0    7     -0.85      0.00
   25    1    7    -10.68      0.00
  -32    2    7      2.64      0.00
   24    2    7     -0.07      0.00
   26    2    7      5.05      0.00
   25    3    7    -10.37      0.00
  -32    4    7      1.00      0.00
   24    4    7     -0.68      0.00
   26    4    7      2.19      0.00
   25    5    7     -2.73      0.00
  -32    6    7      2.55      0.00
   24    6    7     -4.31      0.00
   26    6    7     -3.33      0.00
   23    7    7      3.51      0.00
   25    7    7     -4.01      0.00
  -32    8    7      4.64      0.00
   24    8    7      0.99      0.00
  -31    9    7     -7.61      0.00
   23    9    7      4.29      0.00
   25    9    7     -5.61      0.00
  -32   10    7      3.95      0.00
   24   10    7      1.66      0.00
  -31   11    7    -12.84      0.00
   23   11    7      7.86      0.00
   25   11    7     -1.85      0.00
  -32   12    7      6.55      0.00
   24   12    7     -2.39      0.00
  -31   13    7     -8.34      0.00
   23   13    7      4.05      0.00
   25   13    7     -0.66      0.00
  -32   14    7      6.93      0.00
  -30   14    7     -1.79      0.00
   22   14    7     -3.34      0.00
   24   14    7     -3.07      0.00
  -31   15    7     -1.41      0.00
   23   15    7      3.99      0.00
  -32   16    7      3.45      0.00
  -30   16    7      0.25      0.00
   22   16    7     -4.60      0.00
   24   16    7     -1.44      0.00
  -31   17    7     -4.70      0.00
   21   17    7     -7.60      0.00
   23   17    7      4.36      0.00
  -32   18    7      4.04      0.00
  -30   18    7     -2.64      0.00
   22   18    7     -5.88      0.00
   24   18    7      0.83      0.00
  -31   19    7     -5.65      0.00
  -29   19    7     10.04      0.00
   21   19    7     -2.99      0.00
   23   19    7      2.60      0.00
  -30   20    7     -8.59      0.00
   20   20    7      2.33      0.00
   22   20    7     -5.87      0.00
  -31   21    7     -2.49      0.00
  -29   21    7      8.65      0.00
   21   21    7     -4.83      0.00
   23   21    7      0.99      0.00
  -30   22    7     -5.33      0.00
  -28   22    7     -2.28      0.00
   20   22    7      2.90      0.00
   22   22    7     -0.63      0.00
  -29   23    7      3.55      0.00
  -27   23    7     -4.62      0.00
   19   23    7     -0.93      0.00
   21   23    7     -7.50      0.00
  -30   24    7     -3.21      0.00
  -28   24    7      0.59      0.00
   20   24    7      4.07      0.00
   22   24    7      0.33      0.00
  -29   25    7      1.60      0.00
  -27   25    7     -5.73      0.00
   19   25    7      4.04      0.00
   21   25    7     -4.23      0.00
  -28   26    7      2.42      0.00
  -26   26    7      3.65      0.00
   18   26    7     -1.88      0.00
   20   26    7      2.86      0.00
  -27   27    7     -5.22      0.00
  -25   27    7      5.82      0.00
   17   27    7     -4.15      0.00
   19   27    7      3.41      0.00
  -28   28    7      0.35      0.00
  -26   28    7      3.68      0.00
   18   28    7      2.52      0.00
   20   28    7      2.18      0.00
  -27   29    7     -4.60      0.00
  -25   29    7     11.34      0.00
   17   29    7     -3.10      0.00
   19   29    7      0.59      0.00
  -26   30    7     -2.66      0.00
  -24   30    7      0.83      0.00
   16   30    7     -0.43      0.00
   18   30    7      0.99      0.00
  -25   31    7      8.74      0.00
  -23   31    7     -0.54      0.00
   15   31    7      5.57      0.00
   17   31    7     -0.13      0.00
  -26   32    7     -3.17      0.00
  -24   32    7      0.83      0.00
  -22   32    7     -0.35      0.00
   14   32    7     -1.18      0.00
   16   32    7     -0.82      0.00
   18   32    7      0.85      0.00
  -25   33    7      3.06      0.00
  -23   33    7     -1.02      0.00
  -21   33    7      0.26      0.00
   13   33    7     -0.97      0.00
   15   33    7      5.64      0.00
   17   33    7     -0.19      0.00
  -24   34    7      0.38      0.00
  -22   34    7     -1.44      0.00
  -20   34    7      0.05      0.00
   12   34    7      0.40      0.00
   14   34    7      2.34      0.00
   16   34    7      0.94      0.00
  -23   35    7     -3.08      0.00
  -21   35    7      0.96      0.00
  -19   35    7      2.00      0.00
   11   35    7      0.45      0.00
   13   35    7      2.70      0.00
   15   35    7      1.90      0.00
  -22   36    7     -1.27      0.00
  -20   36    7      3.29      0.00
  -18   36    7      7.83      0.00
   10   36    7      0.77      0.00
   12   36    7      2.50      0.00
   14   36    7     -0.38      0.00
  -21   37    7     -1.27      0.00
  -19   37    7      0.12      0.00
  -17   37    7     -4.79      0.00
    9   37    7      1.79      0.00
   11   37    7      0.09      0.00
   13   37    7      0.81      0.00
  -20   38    7      1.17      0.00
  -18   38    7      4.49      0.00
  -16   38    7     -4.11      0.00
    8   38    7      6.31      0.00
   10   38    7     -1.76      0.00
   12   38    7      2.19      0.00
  -19   39    7     -1.68      0.00
  -17   39    7     -1.17      0.00
  -15   39    7      0.21      0.00
    7   39    7     -2.01      0.00
    9   39    7      3.45      0.00
   11   39    7      0.86      0.00
  -18   40    7      1.99      0.00
  -16   40    7     -4.22      0.00
  -14   40    7      2.88      0.00
  -12   40    7     -3.36      0.00
    4   40    7      3.54      0.00
    6   40    7     -1.83      0.00
    8   40    7      2.63      0.00
   10   40    7     -0.36      0.00
  -17   41    7     -1.48      0.00
  -15   41    7     -2.67      0.00
  -13   41    7      0.32      0.00
  -11   41    7      0.62      0.00
   -9   41    7     -0.55      0.00
    1   41    7     -1.13      0.00
    3   41    7     -6.10      0.00
    5   41    7     -3.88      0.00
    7   41    7      2.07      0.00
    9   41    7      1.26      0.00
  -16   42    7     -0.68      0.00
  -14   42    7      3.32      0.00
  -12   42    7      0.29      0.00
  -10   42    7     -1.53      0.00
   -8   42    7     -1.56      0.00
   -6   42    7      3.71      0.00
   -4   42    7      1.07      0.00
   -2   42    7      1.41      0.00
    0   42    7      0.64      0.00
    2   42    7      2.38      0.00
    4   42    7      1.61      0.00
    6   42    7     -1.69      0.00
    8   42    7      1.13      0.00
  -15   43    7     -0.64      0.00
  -13   43    7      1.90      0.00
  -11   43    7      1.20      0.00
   -9   43    7     -3.53      0.00
   -7   43    7      0.61      0.00
   -5   43    7      0.72      0.00
   -3   43    7      3.40      0.00
   -1   43    7     -2.71      0.00
    1   43    7      0.85      0.00
    3   43    7     -2.38      0.00
    5   43    7      1.62      0.00
    7   43    7      3.38      0.00
  -32    0    8      9.47      0.00
    6    0    8    -12.02      0.00
   24    0    8      6.33      0.00
   23    1    8      2.87      0.00
   25    1    8     -8.89      0.00
  -32    2    8      8.50      0.00
   24    2    8     -0.14      0.00
   23    3    8     12.76      0.00
   25    3    8     -2.46      0.00
  -32    4    8      5.74      0.00
   24    4    8     -2.75      0.00
   23    5    8      7.21      0.00
   25    5    8     -4.68      0.00
  -32    6    8      5.70      0.00
   22    6    8      2.85      0.00
   24    6    8     -0.95      0.00
   23    7    8      3.01      0.00
   25    7    8     -5.25      0.00
  -32    8    8      5.47      0.00
   22    8    8      0.26      0.00
   24    8    8     -1.50      0.00
   23    9    8      5.66      0.00
  -32   10    8      2.10      0.00
   22   10    8      2.05      0.00
   24   10    8     -0.34      0.00
  -31   11    8     -6.93      0.00
   23   11    8      3.56      0.00
  -32   12    8      3.98      0.00
   22   12    8      1.39      0.00
   24   12    8     -2.49      0.00
  -31   13    8     -7.86      0.00
   21   13    8     -1.78      0.00
   23   13    8      0.98      0.00
  -32   14    8      8.86      0.00
   22   14    8     -0.95      0.00
   24   14    8     -3.52      0.00
  -31   15    8     -4.27      0.00
   21   15    8     -3.78      0.00
   23   15    8      1.07      0.00
  -32   16    8      6.50      0.00
  -30   16    8     -0.70      0.00
   22   16    8      1.50      0.00
  -31   17    8     -3.08      0.00
   21   17    8     -3.58      0.00
   23   17    8      3.43      0.00
  -32   18    8      4.18      0.00
  -30   18    8      0.74      0.00
   20   18    8      4.46      0.00
   22   18    8     -0.30      0.00
  -31   19    8     -5.34      0.00
  -29   19    8      6.73      0.00
   21   19    8     -2.31      0.00
  -30   20    8     -3.38      0.00
   20   20    8      6.36      0.00
   22   20    8     -2.51      0.00
  -31   21    8     -1.06      0.00
  -29   21    8      6.31      0.00
   19   21    8     -2.61      0.00
   21   21    8     -0.31      0.00
  -30   22    8     -4.64      0.00
  -28   22    8     -3.19      0.00
   20   22    8      0.75      0.00
  -29   23    8     -0.11      0.00
   19   23    8     -0.25      0.00
   21   23    8     -1.30      0.00
  -30   24    8     -1.33      0.00
  -28   24    8      2.57      0.00
   18   24    8     -1.11      0.00
   20   24    8      0.59      0.00
  -29   25    8     -0.63      0.00
  -27   25    8     -6.43      0.00
   17   25    8     -3.43      0.00
   19   25    8      1.91      0.00
  -28   26    8      5.74      0.00
  -26   26    8     -0.43      0.00
   18   26    8     -1.53      0.00
   20   26    8      0.43      0.00
  -29   27    8      2.41      0.00
  -27   27    8      0.46      0.00
  -25   27    8      0.33      0.00
   17   27    8      0.14      0.00
   19   27    8      0.60      0.00
  -28   28    8      3.41      0.00
  -26   28    8      1.31      0.00
   16   28    8      1.20      0.00
   18   28    8     -1.84      0.00
  -27   29    8      0.82      0.00
  -25   29    8      1.61      0.00
   15   29    8     -0.69      0.00
   17   29    8     -1.62      0.00
  -26   30    8     -0.73      0.00
  -24   30    8     -0.93      0.00
   14   30    8     -2.45      0.00
   16   30    8      1.99      0.00
   18   30    8     -1.59      0.00
  -27   31    8     -0.27      0.00
  -25   31    8      2.09      0.00
  -23   31    8     -2.25      0.00
   13   31    8     -0.96      0.00
   15   31    8      2.69      0.00
   17   31    8     -0.93      0.00
  -26   32    8     -2.81      0.00
  -24   32    8      2.15      0.00
  -22   32    8      9.16      0.00
   14   32    8     -0.25      0.00
   16   32    8     -0.31      0.00
  -25   33    8     -0.07      0.00
  -23   33    8      1.22      0.00
  -21   33    8      0.35      0.00
   13   33    8      1.37      0.00
   15   33    8      3.81      0.00
  -24   34    8      1.64      0.00
  -22   34    8      4.91      0.00
  -20   34    8     -4.85      0.00
   12   34    8      0.13      0.00
   14   34    8      2.29      0.00
  -23   35    8     -0.77      0.00
  -21   35    8      1.06      0.00
  -19   35    8     -3.87      0.00
   11   35    8     -0.59      0.00
   13   35    8      2.55      0.00
  -22   36    8     -1.20      0.00
  -20   36    8     -4.20      0.00
  -18   36    8      2.67      0.00
   10   36    8     -3.29      0.00
   12   36    8      0.77      0.00
   14   36    8     -1.14      0.00
  -21   37    8     -1.20      0.00
  -19   37    8     -3.07      0.00
  -17   37    8      5.35      0.00
    7   37    8     -2.82      0.00
    9   37    8      1.28      0.00
   11   37    8      1.82      0.00
   13   37    8     -0.21      0.00
  -20   38    8     -2.99      0.00
  -18   38    8      0.58      0.00
  -16   38    8     -2.56      0.00
    6   38    8      0.61      0.00
    8   38    8      1.14      0.00
   10   38    8     -3.79      0.00
   12   38    8      0.24      0.00
  -19   39    8     -3.42      0.00
  -17   39    8      1.88      0.00
  -15   39    8     -1.53      0.00
  -13   39    8     -4.64      0.00
    5   39    8      0.23      0.00
    7   39    8     -0.11      0.00
    9   39    8      0.21      0.00
   11   39    8     -0.02      0.00
  -18   40    8      2.32      0.00
  -16   40    8      0.63      0.00
  -14   40    8      0.46      0.00
  -12   40    8     -5.47      0.00
    2   40    8      1.97      0.00
    4   40    8      0.64      0.00
    6   40    8      0.47      0.00
    8   40    8      1.60      0.00
   10   40    8     -0.24      0.00
  -17   41    8      1.04      0.00
  -15   41    8     -1.82      0.00
  -13   41    8     -0.49      0.00
  -11   41    8      3.01      0.00
   -9   41    8      1.36      0.00
   -7   41    8      3.73      0.00
   -5   41    8     -0.39      0.00
   -3   41    8      4.43      0.00
   -1   41    8     -0.60      0.00
    1   41    8     -0.65      0.00
    3   41    8     -3.48      0.00
    5   41    8     -0.20      0.00
    7   41    8      1.85      0.00
  -16   42    8      0.49      0.00
  -14   42    8     -0.49      0.00
  -12   42    8     -4.66      0.00
  -10   42    8     -1.00      0.00
   -8   42    8      2.00      0.00
   -6   42    8      1.09      0.00
   -4   42    8     -0.54      0.00
   -2   42    8     -2.42      0.00
    0   42    8      0.65      0.00
    2   42    8     -0.77      0.00
    4   42    8     -1.31      0.00
    6   42    8     -1.50      0.00
  -15   43    8      0.86      0.00
  -13   43    8      0.99      0.00
  -11   43    8      1.62      0.00
   -9   43    8      0.40      0.00
   -7   43    8      2.39      0.00
   -5   43    8      0.61      0.00
   -3   43    8      1.78      0.00
   -1   43    8     -1.17      0.00
    1   43    8      0.42      0.00
    3   43    8     -2.15      0.00
    5   43    8     -0.28      0.00
  -32    0    9      7.16      0.00
   22    0    9     -9.23      0.00
   24    0    9      1.04      0.00
   23    1    9      0.51      0.00
  -32    2    9      6.00      0.00
   22    2    9     -0.14      0.00
   24    2    9      3.01      0.00
   23    3    9      1.59      0.00
  -32    4    9      4.21      0.00
   22    4    9     -1.15      0.00
   24    4    9     -1.38      0.00
   23    5    9      9.05      0.00
  -32    6    9      3.56      0.00
   22    6    9     -8.58      0.00
   24    6    9     -4.91      0.00
   21    7    9      2.91      0.00
   23    7    9      5.07      0.00
  -32    8    9      3.67      0.00
   22    8    9     -3.89      0.00
   24    8    9      0.35      0.00
   21    9    9     -1.31      0.00
   23    9    9      3.70      0.00
  -32   10    9      2.00      0.00
   22   10    9     -2.62      0.00
  -31   11    9     -4.75      0.00
   21   11    9     -0.03      0.00
   23   11    9      4.59      0.00
  -32   12    9      1.44      0.00
   22   12    9     -4.51      0.00
  -31   13    9     -6.47      0.00
   21   13    9     -1.55      0.00
   23   13    9      3.58      0.00
  -32   14    9      4.89      0.00
   20   14    9      3.21      0.00
   22   14    9     -5.52      0.00
  -31   15    9     -4.17      0.00
   21   15    9     -1.33      0.00
  -32   16    9      6.09      0.00
  -30   16    9     -6.34      0.00
   20   16    9      0.25      0.00
   22   16    9     -0.15      0.00
  -31   17    9     -1.10      0.00
   19   17    9      0.25      0.00
   21   17    9     -3.30      0.00
  -32   18    9      2.14      0.00
  -30   18    9     -4.26      0.00
   20   18    9      3.53      0.00
   22   18    9      0.49      0.00
  -31   19    9     -2.08      0.00
  -29   19    9      6.83      0.00
   19   19    9      3.01      0.00
   21   19    9     -2.55      0.00
  -32   20    9     -0.04      0.00
  -30   20    9     -5.63      0.00
   18   20    9     -7.44      0.00
   20   20    9      2.26      0.00
  -31   21    9     -1.43      0.00
  -29   21    9      6.38      0.00
   19   21    9     -1.50      0.00
   21   21    9     -0.99      0.00
  -30   22    9     -8.76      0.00
  -28   22    9      0.11      0.00
   18   22    9     -0.68      0.00
   20   22    9      1.47      0.00
  -31   23    9     -0.81      0.00
  -29   23    9      2.19      0.00
   17   23    9     -7.91      0.00
   19   23    9     -4.20      0.00
  -30   24    9     -6.37      0.00
  -28   24    9      2.11      0.00
   18   24    9      0.91      0.00
   20   24    9     -1.17      0.00
  -29   25    9      0.30      0.00
  -27   25    9     -4.62      0.00
   17   25    9     -5.99      0.00
   19   25    9      1.74      0.00
  -28   26    9      5.20      0.00
  -26   26    9      1.75      0.00
   16   26    9      3.61      0.00
   18   26    9     -0.80      0.00
  -29   27    9     -1.03      0.00
  -27   27    9      0.73      0.00
  -25   27    9      4.46      0.00
   15   27    9     -2.46      0.00
   17   27    9     -2.09      0.00
  -28   28    9      1.76      0.00
  -26   28    9      0.32      0.00
   14   28    9     -6.52      0.00
   16   28    9      4.79      0.00
   18   28    9     -1.28      0.00
  -27   29    9      2.35      0.00
  -25   29    9      3.51      0.00
   15   29    9     -0.34      0.00
   17   29    9     -1.52      0.00
  -26   30    9      0.80      0.00
  -24   30    9      0.99      0.00
   14   30    9     -6.88      0.00
   16   30    9      2.85      0.00
  -27   31    9     -0.37      0.00
  -25   31    9      4.52      0.00
  -23   31    9     -3.60      0.00
   13   31    9      3.33      0.00
   15   31    9      2.11      0.00
  -26   32    9     -0.39      0.00
  -24   32    9      2.15      0.00
  -22   32    9      2.83      0.00
   12   32    9      2.33      0.00
   14   32    9     -0.62      0.00
  -25   33    9      2.48      0.00
  -23   33    9     -0.38      0.00
  -21   33    9      1.65      0.00
   11   33    9     -3.41      0.00
   13   33    9      2.75      0.00
   15   33    9      0.30      0.00
  -24   34    9      1.13      0.00
  -22   34    9      1.03      0.00
  -20   34    9     -0.09      0.00
   10   34    9      1.46      0.00
   12   34    9      4.92      0.00
   14   34    9      0.84      0.00
  -23   35    9     -0.66      0.00
  -21   35    9      4.05      0.00
  -19   35    9     -0.98      0.00
    9   35    9     -0.60      0.00
   11   35    9     -1.45      0.00
   13   35    9      1.34      0.00
  -22   36    9     -0.42      0.00
  -20   36    9      2.03      0.00
  -18   36    9      5.63      0.00
    8   36    9      3.46      0.00
   10   36    9     -2.51      0.00
   12   36    9      3.71      0.00
  -21   37    9      4.07      0.00
  -19   37    9     -0.08      0.00
  -17   37    9      0.95      0.00
    7   37    9      0.73      0.00
    9   37    9      2.01      0.00
   11   37    9      1.41      0.00
  -20   38    9      1.93      0.00
  -18   38    9      1.67      0.00
  -16   38    9     -3.33      0.00
    4   38    9     -4.08      0.00
    6   38    9     -0.16      0.00
    8   38    9      3.13      0.00
   10   38    9     -3.92      0.00
  -19   39    9      1.67      0.00
  -17   39    9      1.77      0.00
  -15   39    9     -0.55      0.00
  -13   39    9     -0.08      0.00
    3   39    9     -1.65      0.00
    5   39    9     -2.06      0.00
    7   39    9      3.84      0.00
    9   39    9      0.40      0.00
  -18   40    9      1.57      0.00
  -16   40    9     -4.16      0.00
  -14   40    9     -1.58      0.00
  -12   40    9     -5.92      0.00
  -10   40    9     -5.13      0.00
   -2   40    9      1.85      0.00
    0   40    9      5.38      0.00
    2   40    9      9.17      0.00
    4   40    9      0.28      0.00
    6   40    9      1.87      0.00
    8   40    9      2.17      0.00
  -17   41    9      0.38      0.00
  -15   41    9     -0.94      0.00
  -13   41    9      2.93      0.00
  -11   41    9      2.30      0.00
   -9   41    9     -0.39      0.00
   -7   41    9      4.92      0.00
   -5   41    9      1.48      0.00
   -3   41    9     -0.39      0.00
   -1   41    9     -8.41      0.00
    1   41    9     -5.39      0.00
    3   41    9     -1.68      0.00
    5   41    9     -1.05      0.00
    7   41    9      1.61      0.00
  -16   42    9     -1.36      0.00
  -14   42    9      2.33      0.00
  -12   42    9     -0.13      0.00
  -10   42    9     -0.21      0.00
   -8   42    9      0.91      0.00
   -6   42    9      2.28      0.00
   -4   42    9      2.85      0.00
   -2   42    9     -0.91      0.00
    0   42    9      0.08      0.00
    2   42    9      3.57      0.00
    4   42    9     -0.13      0.00
  -13   43    9      2.62      0.00
  -11   43    9     -1.65      0.00
   -9   43    9     -1.45      0.00
   -7   43    9      2.38      0.00
   -5   43    9      2.01      0.00
   -3   43    9      0.99      0.00
   -1   43    9     -3.45      0.00
    1   43    9      0.32      0.00
    3   43    9      1.72      0.00
  -32    0   10      6.52      0.00
   22    0   10     -0.20      0.00
   21    1   10      0.97      0.00
   23    1   10     -2.56      0.00
  -32    2   10      5.81      0.00
   22    2   10     -2.36      0.00
   21    3   10      8.65      0.00
   23    3   10      2.28      0.00
  -32    4   10      7.13      0.00
   22    4   10     -2.87      0.00
   21    5   10      2.84      0.00
   23    5   10      1.11      0.00
  -32    6   10      9.92      0.00
   20    6   10      9.36      0.00
   22    6   10     -3.97      0.00
   21    7   10      0.17      0.00
   23    7   10      0.04      0.00
  -32    8   10      6.06      0.00
   20    8   10      9.60      0.00
   22    8   10     -5.48      0.00
   21    9   10      0.04      0.00
  -32   10   10      1.67      0.00
   20   10   10     11.47      0.00
   22   10   10     -2.29      0.00
  -31   11   10      0.07      0.00
   21   11   10     -1.14      0.00
  -32   12   10      2.05      0.00
   20   12   10     11.98      0.00
   22   12   10     -3.22      0.00
  -31   13   10     -3.76      0.00
   19   13   10     -0.73      0.00
   21   13   10     -2.65      0.00
  -32   14   10      4.74      0.00
   20   14   10      9.57      0.00
   22   14   10     -3.93      0.00
  -31   15   10     -3.61      0.00
   19   15   10     -2.94      0.00
   21   15   10     -2.98      0.00
  -32   16   10      6.14      0.00
  -30   16   10     -8.06      0.00
   20   16   10      5.75      0.00
  -31   17   10      2.26      0.00
   19   17   10     -1.76      0.00
   21   17   10     -2.13      0.00
  -32   18   10      2.84      0.00
  -30   18   10     -6.67      0.00
   18   18   10     -2.41      0.00
   20   18   10      2.02      0.00
  -31   19   10      2.20      0.00
  -29   19   10      2.52      0.00
   19   19   10      3.54      0.00
  -32   20   10      0.10      0.00
  -30   20   10     -2.71      0.00
   18   20   10     -3.22      0.00
   20   20   10      1.37      0.00
  -31   21   10      1.19      0.00
  -29   21   10      0.23      0.00
   17   21   10      2.68      0.00
   19   21   10      1.39      0.00
  -30   22   10     -6.81      0.00
  -28   22   10     -2.16      0.00
   16   22   10      0.79      0.00
   18   22   10     -0.42      0.00
  -31   23   10      0.42      0.00
  -29   23   10     -0.68      0.00
   17   23   10     -0.31      0.00
   19   23   10     -0.52      0.00
  -30   24   10     -4.77      0.00
  -28   24   10     -3.29      0.00
   16   24   10     -0.21      0.00
   18   24   10      1.64      0.00
  -29   25   10      0.72      0.00
  -27   25   10     -2.75      0.00
   15   25   10     -0.87      0.00
   17   25   10     -0.22      0.00
  -28   26   10      1.19      0.00
  -26   26   10      0.24      0.00
   14   26   10     -6.72      0.00
   16   26   10      2.08      0.00
   18   26   10     -0.71      0.00
  -29   27   10      0.12      0.00
  -27   27   10      2.21      0.00
  -25   27   10      7.87      0.00
   15   27   10      0.66      0.00
   17   27   10     -1.00      0.00
  -28   28   10      4.25      0.00
  -26   28   10     -3.59      0.00
   14   28   10     -7.41      0.00
   16   28   10      5.63      0.00
  -27   29   10      2.59      0.00
  -25   29   10      3.54      0.00
   13   29   10      3.47      0.00
   15   29   10      1.47      0.00
  -26   30   10      0.47      0.00
  -24   30   10      2.66      0.00
   12   30   10      5.14      0.00
   14   30   10     -3.09      0.00
  -27   31   10      0.52      0.00
  -25   31   10      2.04      0.00
  -23   31   10     -4.74      0.00
   11   31   10     -1.15      0.00
   13   31   10      4.25      0.00
   15   31   10      2.04      0.00
  -26   32   10      0.23      0.00
  -24   32   10      4.88      0.00
  -22   32   10     -0.77      0.00
   10   32   10     -0.95      0.00
   12   32   10      0.06      0.00
   14   32   10     -0.39      0.00
  -25   33   10      2.97      0.00
  -23   33   10      0.92      0.00
  -21   33   10      4.28      0.00
    9   33   10      2.48      0.00
   11   33   10     -0.72      0.00
   13   33   10      4.82      0.00
  -24   34   10      4.07      0.00
  -22   34   10     -3.06      0.00
  -20   34   10     -1.17      0.00
    8   34   10      1.40      0.00
   10   34   10     -0.02      0.00
   12   34   10      1.68      0.00
  -23   35   10      0.81      0.00
  -21   35   10      3.58      0.00
  -19   35   10     -0.84      0.00
    7   35   10     -8.13      0.00
    9   35   10      3.25      0.00
   11   35   10     -0.76      0.00
  -22   36   10     -1.82      0.00
  -20   36   10     -3.15      0.00
  -18   36   10      3.59      0.00
    6   36   10     -2.88      0.00
    8   36   10      1.69      0.00
   10   36   10     -3.53      0.00
  -21   37   10      3.26      0.00
  -19   37   10     -1.07      0.00
  -17   37   10      1.59      0.00
    5   37   10      0.02      0.00
    7   37   10     -2.28      0.00
    9   37   10      4.17      0.00
  -20   38   10     -2.29      0.00
  -18   38   10      1.51      0.00
  -16   38   10     -7.24      0.00
  -14   38   10     -4.76      0.00
    2   38   10      4.16      0.00
    4   38   10      2.01      0.00
    6   38   10     -1.68      0.00
    8   38   10     -0.35      0.00
  -19   39   10     -1.88      0.00
  -17   39   10      2.26      0.00
  -15   39   10     -3.62      0.00
  -13   39   10      1.99      0.00
  -11   39   10     -2.08      0.00
   -1   39   10     -1.53      0.00
    1   39   10     -2.86      0.00
    3   39   10      0.70      0.00
    5   39   10      0.92      0.00
    7   39   10      0.56      0.00
  -18   40   10      0.68      0.00
  -16   40   10     -4.52      0.00
  -14   40   10     -3.82      0.00
  -12   40   10     -1.14      0.00
  -10   40   10      0.56      0.00
   -8   40   10      1.91      0.00
   -6   40   10     -0.62      0.00
   -4   40   10     -2.73      0.00
   -2   40   10      2.17      0.00
    0   40   10      1.43      0.00
    2   40   10      0.00      0.00
    4   40   10     -0.52      0.00
    6   40   10     -0.49      0.00
  -17   41   10      3.71      0.00
  -15   41   10     -0.76      0.00
  -13   41   10      0.99      0.00
  -11   41   10     -1.43      0.00
   -9   41   10      2.39      0.00
   -7   41   10      4.82      0.00
   -5   41   10      1.65      0.00
   -3   41   10      0.58      0.00
   -1   41   10      0.39      0.00
    1   41   10     -3.01      0.00
    3   41   10      1.01      0.00
    5   41   10      1.14      0.00
  -16   42   10     -2.06      0.00
  -14   42   10     -1.66      0.00
  -12   42   10     -3.64      0.00
  -10   42   10      0.41      0.00
   -8   42   10     -0.73      0.00
   -6   42   10     -1.47      0.00
   -4   42   10     -2.41      0.00
   -2   42   10     -1.11      0.00
    0   42   10     -0.69      0.00
    2   42   10     -0.59      0.00
    4   42   10     -0.98      0.00
  -13   43   10      3.29      0.00
  -11   43   10     -1.52      0.00
   -9   43   10      2.05      0.00
   -7   43   10      3.09      0.00
   -5   43   10      1.62      0.00
   -3   43   10      1.46      0.00
   -1   43   10      0.81      0.00
    1   43   10     -1.41      0.00
   20    0   11      6.42      0.00
   22    0   11     -2.31      0.00
   21    1   11      0.46      0.00
   20    2   11      7.47      0.00
   22    2   11      0.37      0.00
   21    3   11      4.76      0.00
  -32    4   11      4.48      0.00
   20    4   11      2.70      0.00
   22    4   11     -1.14      0.00
   19    5   11      2.19      0.00
   21    5   11      7.35      0.00
  -32    6   11      6.44      0.00
   20    6   11      3.47      0.00
   22    6   11     -5.24      0.00
   19    7   11     -1.77      0.00
   21    7   11      2.12      0.00
  -32    8   11      4.67      0.00
   20    8   11      7.02      0.00
   22    8   11     -2.76      0.00
   19    9   11     -4.71      0.00
   21    9   11      1.94      0.00
  -32   10   11      3.30      0.00
   20   10   11      5.48      0.00
   19   11   11     -6.59      0.00
   21   11   11      0.88      0.00
  -32   12   11      3.31      0.00
   18   12   11     -0.30      0.00
   20   12   11      7.25      0.00
  -31   13   11      0.98      0.00
   19   13   11     -3.31      0.00
   21   13   11     -3.29      0.00
  -32   14   11      1.95      0.00
   18   14   11     -4.11      0.00
   20   14   11      3.24      0.00
  -31   15   11      0.49      0.00
   19   15   11      1.69      0.00
  -32   16   11      3.85      0.00
  -30   16   11     -7.36      0.00
   18   16   11     -4.91      0.00
   20   16   11      4.53      0.00
  -31   17   11      2.54      0.00
   17   17   11      2.25      0.00
   19   17   11     -0.28      0.00
  -32   18   11      3.58      0.00
  -30   18   11     -6.43      0.00
   18   18   11     -2.13      0.00
   20   18   11      4.58      0.00
  -31   19   11      4.48      0.00
  -29   19   11      2.27      0.00
   17   19   11      3.25      0.00
   19   19   11      4.97      0.00
  -32   20   11      0.10      0.00
  -30   20   11     -2.27      0.00
   16   20   11      0.72      0.00
   18   20   11     -5.44      0.00
  -31   21   11      1.27      0.00
  -29   21   11      0.40      0.00
   17   21   11      1.23      0.00
   19   21   11      3.38      0.00
  -30   22   11     -5.39      0.00
  -28   22   11     -2.13      0.00
   16   22   11      4.47      0.00
   18   22   11     -3.19      0.00
  -31   23   11     -0.77      0.00
  -29   23   11      0.59      0.00
   15   23   11     -5.48      0.00
   17   23   11     -1.22      0.00
  -30   24   11     -3.45      0.00
  -28   24   11     -2.80      0.00
   14   24   11     -2.49      0.00
   16   24   11      0.76      0.00
  -29   25   11     -1.02      0.00
  -27   25   11     -1.78      0.00
   15   25   11      0.13      0.00
   17   25   11      1.35      0.00
  -28   26   11      1.20      0.00
  -26   26   11      0.41      0.00
   14   26   11     -5.90      0.00
   16   26   11      1.34      0.00
  -29   27   11      0.51      0.00
  -27   27   11     -1.46      0.00
  -25   27   11      6.67      0.00
   13   27   11     -0.49      0.00
   15   27   11      1.25      0.00
  -28   28   11      2.66      0.00
  -26   28   11     -5.64      0.00
   12   28   11      3.57      0.00
   14   28   11     -5.58      0.00
  -27   29   11     -1.06      0.00
  -25   29   11      3.31      0.00
   11   29   11     -1.31      0.00
   13   29   11     -2.73      0.00
   15   29   11      2.34      0.00
  -26   30   11     -0.91      0.00
  -24   30   11      2.46      0.00
   10   30   11     -3.21      0.00
   12   30   11      0.55      0.00
   14   30   11     -2.81      0.00
  -27   31   11     -1.33      0.00
  -25   31   11     -0.41      0.00
  -23   31   11      1.01      0.00
    9   31   11      0.57      0.00
   11   31   11     -0.39      0.00
   13   31   11      0.40      0.00
  -26   32   11      1.51      0.00
  -24   32   11      4.35      0.00
  -22   32   11     -3.07      0.00
   10   32   11      2.78      0.00
   12   32   11      1.09      0.00
  -25   33   11      2.17      0.00
  -23   33   11      0.41      0.00
  -21   33   11      2.38      0.00
    9   33   11     -2.29      0.00
   11   33   11     -2.49      0.00
  -24   34   11      4.08      0.00
  -22   34   11     -2.87      0.00
  -20   34   11     -0.39      0.00
    6   34   11      2.62      0.00
    8   34   11      5.48      0.00
   10   34   11      3.71      0.00
  -23   35   11      0.44      0.00
  -21   35   11      3.20      0.00
  -19   35   11     -4.09      0.00
    5   35   11      1.12      0.00
    7   35   11     -7.09      0.00
    9   35   11     -0.62      0.00
   11   35   11     -0.16      0.00
  -22   36   11     -0.19      0.00
  -20   36   11     -0.18      0.00
  -18   36   11      4.93      0.00
  -16   36   11      4.01      0.00
    4   36   11     -3.39      0.00
    6   36   11     -2.87      0.00
    8   36   11      1.21      0.00
   10   36   11     -0.44      0.00
  -21   37   11      5.52      0.00
  -19   37   11     -0.53      0.00
  -17   37   11     -3.95      0.00
  -15   37   11     -4.68      0.00
    3   37   11     -2.22      0.00
    5   37   11      5.44      0.00
    7   37   11      0.08      0.00
    9   37   11      0.58      0.00
  -20   38   11      0.14      0.00
  -18   38   11      0.70      0.00
  -16   38   11     -1.74      0.00
  -14   38   11     -3.26      0.00
  -12   38   11     -0.37      0.00
    0   38   11      7.05      0.00
    2   38   11     -1.06      0.00
    4   38   11     -0.31      0.00
    6   38   11     -0.08      0.00
    8   38   11     -1.64      0.00
  -19   39   11     -0.06      0.00
  -17   39   11      0.16      0.00
  -15   39   11     -2.50      0.00
  -13   39   11      6.23      0.00
  -11   39   11      5.37      0.00
   -9   39   11      7.29      0.00
   -7   39   11      2.68      0.00
   -5   39   11     -2.32      0.00
   -3   39   11      1.65      0.00
   -1   39   11     -2.57      0.00
    1   39   11      0.27      0.00
    3   39   11     -0.10      0.00
    5   39   11      2.49      0.00
  -18   40   11     -1.10      0.00
  -16   40   11     -3.20      0.00
  -14   40   11     -3.96      0.00
  -12   40   11     -1.35      0.00
  -10   40   11     -2.92      0.00
   -8   40   11     -6.17      0.00
   -6   40   11     -1.00      0.00
   -4   40   11     -1.24      0.00
   -2   40   11      2.61      0.00
    0   40   11      5.82      0.00
    2   40   11      1.94      0.00
    4   40   11      1.04      0.00
  -17   41   11     -0.45      0.00
  -15   41   11     -2.55      0.00
  -13   41   11      2.51      0.00
  -11   41   11      3.14      0.00
   -9   41   11      4.36      0.00
   -7   41   11      2.48      0.00
   -5   41   11     -0.89      0.00
   -3   41   11     -3.34      0.00
   -1   41   11     -3.17      0.00
    1   41   11      0.04      0.00
    3   41   11      0.04      0.00
  -14   42   11      1.21      0.00
  -12   42   11      0.88      0.00
  -10   42   11      2.58      0.00
   -8   42   11      2.13      0.00
   -6   42   11      1.68      0.00
   -4   42   11     -0.68      0.00
   -2   42   11     -1.48      0.00
    0   42   11     -0.43      0.00
    2   42   11      0.84      0.00
  -11   43   11     -1.30      0.00
   -9   43   11     -0.32      0.00
   -7   43   11      1.79      0.00
   -5   43   11     -0.28      0.00
   -3   43   11     -1.01      0.00
   -1   43   11     -1.76      0.00
   18    0   12     -3.56      0.00
   20    0   12      5.68      0.00
   19    1   12     -5.30      0.00
   21    1   12     -0.43      0.00
   18    2   12     -6.79      0.00
   20    2   12      5.43      0.00
   19    3   12     -2.95      0.00
   21    3   12      3.88      0.00
  -32    4   12      9.99      0.00
   18    4   12     -4.59      0.00
   20    4   12      4.63      0.00
   19    5   12     -0.77      0.00
   21    5   12      0.16      0.00
  -32    6   12      8.26      0.00
   18    6   12     -0.01      0.00
   20    6   12      3.88      0.00
   19    7   12      0.93      0.00
   21    7   12     -3.34      0.00
  -32    8   12      6.03      0.00
   18    8   12      1.02      0.00
   20    8   12      3.25      0.00
   19    9   12     -1.94      0.00
  -32   10   12      4.65      0.00
   18   10   12      3.33      0.00
   20   10   12      6.69      0.00
  -31   11   12      0.72      0.00
   17   11   12      2.53      0.00
   19   11   12     -4.11      0.00
  -32   12   12      4.54      0.00
   18   12   12      4.09      0.00
   20   12   12      6.03      0.00
  -31   13   12      3.02      0.00
   17   13   12      0.44      0.00
   19   13   12     -1.51      0.00
  -32   14   12      2.45      0.00
   18   14   12      3.42      0.00
  -31   15   12      0.94      0.00
   17   15   12     -1.13      0.00
   19   15   12     -1.17      0.00
  -32   16   12      1.67      0.00
  -30   16   12     -3.39      0.00
   16   16   12      3.66      0.00
   18   16   12     -0.95      0.00
  -31   17   12     -0.63      0.00
   17   17   12      2.16      0.00
   19   17   12     -0.67      0.00
  -32   18   12      2.81      0.00
  -30   18   12     -4.17      0.00
   16   18   12      3.20      0.00
   18   18   12     -2.81      0.00
  -31   19   12      2.65      0.00
  -29   19   12      0.29      0.00
   15   19   12     -3.20      0.00
   17   19   12      4.32      0.00
  -32   20   12      0.70      0.00
  -30   20   12     -4.21      0.00
   16   20   12      3.02      0.00
   18   20   12     -2.22      0.00
  -31   21   12      2.10      0.00
  -29   21   12     -0.95      0.00
   15   21   12     -3.84      0.00
   17   21   12      2.44      0.00
  -30   22   12     -5.26      0.00
  -28   22   12      2.39      0.00
   14   22   12     -3.96      0.00
   16   22   12      3.30      0.00
  -31   23   12     -0.63      0.00
  -29   23   12     -2.30      0.00
  -27   23   12     -3.10      0.00
   13   23   12      0.57      0.00
   15   23   12     -6.31      0.00
   17   23   12      1.42      0.00
  -30   24   12     -3.01      0.00
  -28   24   12      2.49      0.00
   14   24   12     -5.61      0.00
   16   24   12      1.42      0.00
  -29   25   12     -2.05      0.00
  -27   25   12      3.61      0.00
   13   25   12      4.13      0.00
   15   25   12     -2.61      0.00
  -28   26   12      1.57      0.00
  -26   26   12      0.02      0.00
   12   26   12     -3.00      0.00
   14   26   12     -6.70      0.00
  -29   27   12      1.73      0.00
  -27   27   12      2.82      0.00
  -25   27   12      3.47      0.00
   11   27   12      0.93      0.00
   13   27   12      1.77      0.00
   15   27   12      1.89      0.00
  -28   28   12      2.29      0.00
  -26   28   12      0.04      0.00
  -24   28   12     -2.94      0.00
   10   28   12     -1.17      0.00
   12   28   12      2.85      0.00
   14   28   12     -0.99      0.00
  -27   29   12      0.03      0.00
  -25   29   12      1.09      0.00
   11   29   12      1.47      0.00
   13   29   12     -2.44      0.00
  -26   30   12      0.13      0.00
  -24   30   12     -1.18      0.00
   10   30   12      0.07      0.00
   12   30   12      2.04      0.00
  -25   31   12      0.33      0.00
  -23   31   12     -1.93      0.00
    9   31   12      4.31      0.00
   11   31   12      2.71      0.00
  -26   32   12      0.35      0.00
  -24   32   12     -0.73      0.00
  -22   32   12     -2.34      0.00
    8   32   12     -2.24      0.00
   10   32   12     -1.55      0.00
   12   32   12      0.34      0.00
  -25   33   12      2.45      0.00
  -23   33   12     -2.21      0.00
  -21   33   12      8.70      0.00
    7   33   12     -3.60      0.00
    9   33   12      3.81      0.00
   11   33   12      0.77      0.00
  -24   34   12      2.47      0.00
  -22   34   12     -3.18      0.00
  -20   34   12     -0.80      0.00
    6   34   12      0.46      0.00
    8   34   12      2.40      0.00
   10   34   12      0.35      0.00
  -23   35   12     -1.52      0.00
  -21   35   12      5.90      0.00
  -19   35   12      1.59      0.00
  -17   35   12     -0.48      0.00
    3   35   12     -3.48      0.00
    5   35   12      0.64      0.00
    7   35   12      0.66      0.00
    9   35   12      0.28      0.00
  -22   36   12     -0.15      0.00
  -20   36   12      3.52      0.00
  -18   36   12     -2.13      0.00
  -16   36   12     -2.12      0.00
    2   36   12      1.30      0.00
    4   36   12     -2.61      0.00
    6   36   12     -2.04      0.00
    8   36   12      1.29      0.00
  -21   37   12      1.74      0.00
  -19   37   12      0.66      0.00
  -17   37   12     -2.86      0.00
  -15   37   12     -1.77      0.00
  -13   37   12      1.84      0.00
   -1   37   12     -4.49      0.00
    1   37   12      0.83      0.00
    3   37   12      0.56      0.00
    5   37   12      2.03      0.00
    7   37   12      3.64      0.00
  -20   38   12      2.28      0.00
  -18   38   12     -3.28      0.00
  -16   38   12     -4.16      0.00
  -14   38   12      1.93      0.00
  -12   38   12     -3.58      0.00
  -10   38   12      1.18      0.00
   -8   38   12     -2.86      0.00
   -6   38   12     -0.55      0.00
   -4   38   12      2.36      0.00
   -2   38   12     -2.36      0.00
    0   38   12      3.35      0.00
    2   38   12      0.84      0.00
    4   38   12     -1.08      0.00
    6   38   12      0.40      0.00
  -19   39   12     -0.18      0.00
  -17   39   12     -0.08      0.00
  -15   39   12     -3.14      0.00
  -13   39   12     -0.58      0.00
  -11   39   12     -5.35      0.00
   -9   39   12      2.27      0.00
   -7   39   12      1.68      0.00
   -5   39   12     -2.99      0.00
   -3   39   12      1.58      0.00
   -1   39   12     -4.30      0.00
    1   39   12     -0.04      0.00
    3   39   12      2.26      0.00
    5   39   12      0.85      0.00
  -16   40   12     -2.33      0.00
  -14   40   12      1.57      0.00
  -12   40   12     -0.95      0.00
  -10   40   12     -0.96      0.00
   -8   40   12     -0.44      0.00
   -6   40   12      2.09      0.00
   -4   40   12      1.99      0.00
   -2   40   12      0.00      0.00
    0   40   12      1.13      0.00
    2   40   12      1.23      0.00
  -15   41   12     -1.46      0.00
  -13   41   12     -1.10      0.00
  -11   41   12     -3.02      0.00
   -9   41   12      4.21      0.00
   -7   41   12      3.25      0.00
   -5   41   12      2.09      0.00
   -3   41   12     -0.69      0.00
   -1   41   12     -2.36      0.00
    1   41   12      1.26      0.00
  -12   42   12     -1.02      0.00
  -10   42   12     -1.87      0.00
   -8   42   12     -0.26      0.00
   -6   42   12     -1.45      0.00
   -4   42   12     -3.22      0.00
   -2   42   12     -0.37      0.00
   -9   43   12      1.35      0.00
   -7   43   12      4.76      0.00
   -5   43   12      2.75      0.00
  -32    0   13      5.06      0.00
   18    0   13      3.78      0.00
   20    0   13      0.45      0.00
   17    1   13      7.72      0.00
   19    1   13     -1.99      0.00
  -32    2   13      7.10      0.00
   18    2   13      2.13      0.00
   20    2   13      5.58      0.00
   17    3   13      8.45      0.00
   19    3   13     -2.27      0.00
  -32    4   13      6.74      0.00
   18    4   13     -3.16      0.00
   20    4   13      5.62      0.00
   17    5   13      8.88      0.00
   19    5   13      1.82      0.00
  -32    6   13      4.25      0.00
   18    6   13     -3.12      0.00
   20    6   13      1.01      0.00
   17    7   13      2.50      0.00
   19    7   13      1.50      0.00
  -32    8   13      4.13      0.00
   18    8   13     -2.67      0.00
   17    9   13      3.86      0.00
   19    9   13      1.43      0.00
  -32   10   13      3.16      0.00
   16   10   13     -0.34      0.00
   18   10   13     -3.97      0.00
  -31   11   13      2.44      0.00
   17   11   13      1.93      0.00
   19   11   13      0.17      0.00
  -32   12   13      5.17      0.00
   16   12   13      5.64      0.00
   18   12   13      1.27      0.00
  -31   13   13      2.96      0.00
   17   13   13      3.25      0.00
  -32   14   13      4.26      0.00
   16   14   13     -1.43      0.00
   18   14   13      0.37      0.00
  -31   15   13      3.79      0.00
   15   15   13      1.32      0.00
   17   15   13      6.13      0.00
  -32   16   13      0.21      0.00
  -30   16   13      0.92      0.00
   16   16   13      0.43      0.00
   18   16   13     -0.45      0.00
  -31   17   13      2.76      0.00
   15   17   13     -6.48      0.00
   17   17   13      1.43      0.00
  -32   18   13      1.62      0.00
  -30   18   13     -2.03      0.00
   14   18   13     -2.40      0.00
   16   18   13      2.89      0.00
  -31   19   13      3.38      0.00
  -29   19   13     -0.04      0.00
   15   19   13     -4.58      0.00
   17   19   13      4.67      0.00
  -32   20   13      3.10      0.00
  -30   20   13     -4.65      0.00
   14   20   13     -0.48      0.00
   16   20   13     -1.01      0.00
  -31   21   13     -0.06      0.00
  -29   21   13     -2.51      0.00
   13   21   13     -3.24      0.00
   15   21   13     -3.06      0.00
  -30   22   13     -5.42      0.00
  -28   22   13     -0.43      0.00
   12   22   13      2.15      0.00
   14   22   13      1.04      0.00
   16   22   13      1.96      0.00
  -31   23   13     -1.54      0.00
  -29   23   13     -2.36      0.00
  -27   23   13     -0.69      0.00
   13   23   13     -0.94      0.00
   15   23   13     -2.89      0.00
  -30   24   13     -5.17      0.00
  -28   24   13      0.69      0.00
   12   24   13     -3.01      0.00
   14   24   13     -3.79      0.00
  -29   25   13     -3.77      0.00
  -27   25   13      3.50      0.00
   11   25   13     -4.11      0.00
   13   25   13      5.11      0.00
  -28   26   13      0.83      0.00
  -26   26   13     -3.14      0.00
   10   26   13     -0.05      0.00
   12   26   13     -1.36      0.00
   14   26   13     -2.40      0.00
  -29   27   13     -0.38      0.00
  -27   27   13      1.92      0.00
  -25   27   13      0.62      0.00
    9   27   13      3.37      0.00
   11   27   13     -4.18      0.00
   13   27   13     -1.20      0.00
  -28   28   13     -2.77      0.00
  -26   28   13     -2.38      0.00
  -24   28   13      2.94      0.00
   10   28   13      0.79      0.00
   12   28   13      1.39      0.00
  -27   29   13     -0.31      0.00
  -25   29   13      0.72      0.00
  -23   29   13      2.31      0.00
    9   29   13      2.77      0.00
   11   29   13     -2.06      0.00
  -26   30   13     -2.02      0.00
  -24   30   13      2.35      0.00
  -22   30   13     -1.43      0.00
    8   30   13     -1.24      0.00
   10   30   13     -1.09      0.00
   12   30   13     -0.27      0.00
  -25   31   13      0.47      0.00
  -23   31   13      0.15      0.00
  -21   31   13     -1.58      0.00
    7   31   13     -0.75      0.00
    9   31   13      4.35      0.00
   11   31   13     -0.95      0.00
  -24   32   13      1.49      0.00
  -22   32   13     -3.10      0.00
  -20   32   13      1.49      0.00
    6   32   13      3.42      0.00
    8   32   13      1.99      0.00
   10   32   13     -0.89      0.00
  -25   33   13      3.36      0.00
  -23   33   13     -2.38      0.00
  -21   33   13     -2.97      0.00
  -19   33   13     -2.54      0.00
    5   33   13     -1.93      0.00
    7   33   13     -4.06      0.00
    9   33   13      0.67      0.00
  -24   34   13      1.22      0.00
  -22   34   13     -3.44      0.00
  -20   34   13      1.89      0.00
  -18   34   13      5.79      0.00
    2   34   13     -2.74      0.00
    4   34   13     -2.43      0.00
    6   34   13      2.31      0.00
    8   34   13      3.21      0.00
  -23   35   13     -0.96      0.00
  -21   35   13     -1.87      0.00
  -19   35   13     -2.19      0.00
  -17   35   13     -1.21      0.00
    1   35   13     -2.73      0.00
    3   35   13     -1.39      0.00
    5   35   13     -1.03      0.00
    7   35   13     -0.61      0.00
  -22   36   13     -3.59      0.00
  -20   36   13      5.18      0.00
  -18   36   13      1.62      0.00
  -16   36   13      2.13      0.00
  -14   36   13      1.30      0.00
   -2   36   13      3.91      0.00
    0   36   13      3.16      0.00
    2   36   13     -3.51      0.00
    4   36   13     -3.42      0.00
    6   36   13     -1.92      0.00
  -21   37   13     -2.11      0.00
  -19   37   13     -1.36      0.00
  -17   37   13     -0.32      0.00
  -15   37   13     -0.39      0.00
  -13   37   13      1.35      0.00
  -11   37   13     -0.76      0.00
   -9   37   13     -6.93      0.00
   -7   37   13     -2.94      0.00
   -5   37   13     -0.65      0.00
   -3   37   13      2.04      0.00
   -1   37   13      0.26      0.00
    1   37   13     -1.32      0.00
    3   37   13      3.39      0.00
    5   37   13      0.96      0.00
  -20   38   13      3.31      0.00
  -18   38   13     -1.10      0.00
  -16   38   13     -1.57      0.00
  -14   38   13      2.45      0.00
  -12   38   13      0.62      0.00
  -10   38   13     -2.74      0.00
   -8   38   13     -3.34      0.00
   -6   38   13     -0.02      0.00
   -4   38   13      1.65      0.00
   -2   38   13      0.14      0.00
    0   38   13      3.58      0.00
    2   38   13      1.74      0.00
    4   38   13     -1.10      0.00
  -17   39   13     -0.25      0.00
  -15   39   13      0.79      0.00
  -13   39   13      4.36      0.00
  -11   39   13      6.55      0.00
   -9   39   13      0.04      0.00
   -7   39   13      2.47      0.00
   -5   39   13      0.15      0.00
   -3   39   13      0.65      0.00
   -1   39   13      1.71      0.00
    1   39   13     -1.02      0.00
    3   39   13      0.62      0.00
  -16   40   13     -1.57      0.00
  -14   40   13     -0.65      0.00
  -12   40   13      0.10      0.00
  -10   40   13     -2.68      0.00
   -8   40   13     -4.92      0.00
   -6   40   13     -0.33      0.00
   -4   40   13     -1.26      0.00
   -2   40   13      0.51      0.00
    0   40   13      1.29      0.00
  -13   41   13      1.26      0.00
  -11   41   13      1.80      0.00
   -9   41   13      1.32      0.00
   -7   41   13     -0.58      0.00
   -5   41   13      0.99      0.00
   -3   41   13      0.11      0.00
   -1   41   13      0.10      0.00
  -10   42   13      2.48      0.00
   -8   42   13      0.13      0.00
   -6   42   13     -0.04      0.00
   -4   42   13     -2.26      0.00
  -32    0   14      9.95      0.00
   16    0   14     -4.92      0.00
   18    0   14      2.06      0.00
   17    1   14      1.45      0.00
   19    1   14     -0.80      0.00
  -32    2   14     13.27      0.00
   16    2   14     -1.56      0.00
   18    2   14      0.92      0.00
   17    3   14      1.07      0.00
   19    3   14      1.79      0.00
  -32    4   14     13.98      0.00
   16    4   14      0.81      0.00
   18    4   14     -0.17      0.00
   17    5   14      3.73      0.00
  -32    6   14      8.61      0.00
   16    6   14     -0.64      0.00
   18    6   14     -0.07      0.00
   15    7   14     -3.16      0.00
   17    7   14      3.79      0.00
  -32    8   14      7.97      0.00
   16    8   14     -0.53      0.00
   18    8   14      0.19      0.00
   15    9   14     -4.99      0.00
   17    9   14     -0.24      0.00
  -32   10   14      6.14      0.00
   16   10   14      2.21      0.00
   18   10   14      0.78      0.00
  -31   11   14      3.84      0.00
   15   11   14     -5.98      0.00
   17   11   14     -3.26      0.00
  -32   12   14      4.27      0.00
   16   12   14      2.29      0.00
  -31   13   14      3.43      0.00
   15   13   14     -4.96      0.00
   17   13   14      0.12      0.00
  -32   14   14      4.59      0.00
  -30   14   14     -3.95      0.00
   14   14   14     -0.47      0.00
   16   14   14     -1.22      0.00
  -31   15   14      3.61      0.00
   15   15   14     -2.61      0.00
   17   15   14      1.10      0.00
  -32   16   14      0.12      0.00
  -30   16   14      0.41      0.00
   14   16   14     -1.18      0.00
   16   16   14     -0.72      0.00
  -31   17   14      2.12      0.00
   13   17   14      1.11      0.00
   15   17   14     -0.90      0.00
  -32   18   14      0.83      0.00
  -30   18   14     -1.45      0.00
   14   18   14      1.22      0.00
   16   18   14      1.06      0.00
  -31   19   14      0.21      0.00
  -29   19   14     -5.33      0.00
   13   19   14      0.33      0.00
   15   19   14     -1.36      0.00
  -32   20   14      2.00      0.00
  -30   20   14     -4.84      0.00
  -28   20   14      4.26      0.00
   12   20   14     -3.23      0.00
   14   20   14      4.37      0.00
  -31   21   14     -0.17      0.00
  -29   21   14     -3.71      0.00
   11   21   14     -2.55      0.00
   13   21   14     -2.90      0.00
   15   21   14     -1.50      0.00
  -30   22   14     -3.15      0.00
  -28   22   14      2.26      0.00
   12   22   14     -5.10      0.00
   14   22   14      1.21      0.00
  -29   23   14     -3.74      0.00
  -27   23   14     -3.38      0.00
   11   23   14     -3.13      0.00
   13   23   14     -1.04      0.00
  -30   24   14     -2.59      0.00
  -28   24   14      5.83      0.00
  -26   24   14      1.09      0.00
   10   24   14     -2.66      0.00
   12   24   14     -3.99      0.00
   14   24   14     -4.07      0.00
  -29   25   14     -1.99      0.00
  -27   25   14      1.04      0.00
    9   25   14     10.04      0.00
   11   25   14     -4.35      0.00
   13   25   14      2.45      0.00
  -28   26   14      2.95      0.00
  -26   26   14     -1.43      0.00
   10   26   14     -1.57      0.00
   12   26   14     -2.00      0.00
  -27   27   14      5.10      0.00
  -25   27   14      0.44      0.00
    9   27   14      7.16      0.00
   11   27   14     -3.12      0.00
  -28   28   14     -0.70      0.00
  -26   28   14     -0.43      0.00
  -24   28   14      5.94      0.00
    8   28   14      0.41      0.00
   10   28   14      0.57      0.00
  -27   29   14      1.23      0.00
  -25   29   14     -0.64      0.00
  -23   29   14      0.97      0.00
    7   29   14     -0.74      0.00
    9   29   14      5.37      0.00
   11   29   14     -3.44      0.00
  -26   30   14     -1.95      0.00
  -24   30   14      5.46      0.00
  -22   30   14     -3.06      0.00
    6   30   14     -0.21      0.00
    8   30   14     -1.89      0.00
   10   30   14     -1.58      0.00
  -25   31   14     -0.07      0.00
  -23   31   14      0.82      0.00
  -21   31   14     -0.08      0.00
    5   31   14     -3.09      0.00
    7   31   14      0.73      0.00
    9   31   14      6.80      0.00
  -24   32   14      0.77      0.00
  -22   32   14     -3.48      0.00
  -20   32   14      0.47      0.00
    4   32   14      1.25      0.00
    6   32   14     -1.47      0.00
    8   32   14     -0.82      0.00
  -23   33   14      1.75      0.00
  -21   33   14      1.39      0.00
  -19   33   14      4.70      0.00
    1   33   14      2.34      0.00
    3   33   14     -0.22      0.00
    5   33   14     -0.11      0.00
    7   33   14     -0.11      0.00
  -22   34   14     -1.29      0.00
  -20   34   14     -0.66      0.00
  -18   34   14     -4.02      0.00
  -16   34   14     -3.61      0.00
    0   34   14      0.98      0.00
    2   34   14     -2.71      0.00
    4   34   14     -1.31      0.00
    6   34   14      0.82      0.00
  -21   35   14      2.30      0.00
  -19   35   14      0.90      0.00
  -17   35   14     -0.30      0.00
  -15   35   14      1.04      0.00
   -3   35   14     -0.05      0.00
   -1   35   14     -3.90      0.00
    1   35   14      0.18      0.00
    3   35   14      4.23      0.00
    5   35   14      1.26      0.00
  -20   36   14      3.46      0.00
  -18   36   14     -3.02      0.00
  -16   36   14     -0.04      0.00
  -14   36   14      2.63      0.00
  -12   36   14     -2.51      0.00
  -10   36   14      0.95      0.00
   -8   36   14     -4.41      0.00
   -6   36   14     -3.40      0.00
   -4   36   14      0.30      0.00
   -2   36   14     -4.21      0.00
    0   36   14     -1.08      0.00
    2   36   14     -2.28      0.00
    4   36   14     -2.64      0.00
  -19   37   14     -2.81      0.00
  -17   37   14     -1.76      0.00
  -15   37   14     -0.52      0.00
  -13   37   14     -3.92      0.00
  -11   37   14     -2.53      0.00
   -9   37   14      3.55      0.00
   -7   37   14     -6.92      0.00
   -5   37   14      5.22      0.00
   -3   37   14      1.30      0.00
   -1   37   14      1.23      0.00
    1   37   14      0.51      0.00
    3   37   14      4.71      0.00
  -18   38   14     -3.56      0.00
  -16   38   14     -0.06      0.00
  -14   38   14      3.42      0.00
  -12   38   14     -3.64      0.00
  -10   38   14     -1.89      0.00
   -8   38   14     -0.01      0.00
   -6   38   14     -1.51      0.00
   -4   38   14      3.40      0.00
   -2   38   14     -2.96      0.00
    0   38   14     -1.24      0.00
    2   38   14      3.12      0.00
  -17   39   14     -2.18      0.00
  -15   39   14      1.50      0.00
  -13   39   14     -2.19      0.00
  -11   39   14     -1.61      0.00
   -9   39   14      1.23      0.00
   -7   39   14     -5.71      0.00
   -5   39   14      1.71      0.00
   -3   39   14     -3.26      0.00
   -1   39   14      0.52      0.00
  -14   40   14      1.97      0.00
  -12   40   14     -3.76      0.00
  -10   40   14      0.29      0.00
   -8   40   14     -0.47      0.00
   -6   40   14      1.20      0.00
   -4   40   14      3.00      0.00
   -2   40   14      0.47      0.00
  -11   41   14     -2.14      0.00
   -9   41   14      4.17      0.00
   -7   41   14     -0.91      0.00
   -5   41   14      0.84      0.00
  -32    0   15      8.50      0.00
   16    0   15     -2.79      0.00
   15    1   15      1.62      0.00
   17    1   15      2.30      0.00
  -32    2   15     10.37      0.00
   14    2   15     -0.11      0.00
   16    2   15      1.23      0.00
   15    3   15     -0.97      0.00
   17    3   15     -0.94      0.00
  -32    4   15     11.35      0.00
   14    4   15      0.41      0.00
   16    4   15      1.33      0.00
   15    5   15     -0.91      0.00
   17    5   15      2.56      0.00
  -32    6   15      8.31      0.00
   14    6   15      7.76      0.00
   16    6   15     -0.90      0.00
   15    7   15     -2.40      0.00
   17    7   15      2.62      0.00
  -32    8   15      6.45      0.00
   14    8   15      4.98      0.00
   16    8   15     -1.88      0.00
  -31    9   15      7.53      0.00
   15    9   15      0.49      0.00
   17    9   15      2.06      0.00
  -32   10   15      2.93      0.00
   14   10   15     -0.99      0.00
   16   10   15     -0.74      0.00
  -31   11   15     11.24      0.00
   13   11   15     -3.54      0.00
   15   11   15     -0.15      0.00
  -32   12   15      3.46      0.00
   14   12   15      1.11      0.00
   16   12   15      3.46      0.00
  -31   13   15      6.95      0.00
   13   13   15      0.69      0.00
   15   13   15      0.58      0.00
  -32   14   15      7.16      0.00
  -30   14   15     -0.46      0.00
   14   14   15     -4.45      0.00
   16   14   15      1.31      0.00
  -31   15   15      8.78      0.00
   13   15   15      2.90      0.00
   15   15   15      1.65      0.00
  -32   16   15      3.23      0.00
  -30   16   15      0.37      0.00
   12   16   15     -2.76      0.00
   14   16   15     -1.71      0.00
  -31   17   15     11.17      0.00
  -29   17   15     -4.33      0.00
   13   17   15     -6.79      0.00
   15   17   15     -1.36      0.00
  -32   18   15      0.36      0.00
  -30   18   15     -4.28      0.00
   12   18   15      3.72      0.00
   14   18   15      0.06      0.00
  -31   19   15      5.85      0.00
  -29   19   15     -1.12      0.00
   11   19   15      4.71      0.00
   13   19   15     -2.56      0.00
  -30   20   15     -4.05      0.00
  -28   20   15     -1.87      0.00
   10   20   15      1.39      0.00
   12   20   15     -1.09      0.00
   14   20   15     -1.40      0.00
  -31   21   15     -0.25      0.00
  -29   21   15     -3.77      0.00
  -27   21   15     -0.29      0.00
   11   21   15      1.71      0.00
   13   21   15     -2.78      0.00
  -30   22   15     -1.20      0.00
  -28   22   15     -1.35      0.00
   10   22   15      2.48      0.00
   12   22   15      0.12      0.00
  -29   23   15     -1.50      0.00
  -27   23   15      0.91      0.00
    9   23   15     -2.52      0.00
   11   23   15     -1.18      0.00
   13   23   15     -4.24      0.00
  -30   24   15     -4.20      0.00
  -28   24   15     -1.74      0.00
  -26   24   15     -3.46      0.00
    8   24   15     -0.91      0.00
   10   24   15     -3.24      0.00
   12   24   15      1.05      0.00
  -29   25   15      1.87      0.00
  -27   25   15      1.85      0.00
  -25   25   15      1.62      0.00
    7   25   15      1.67      0.00
    9   25   15      4.17      0.00
   11   25   15      0.12      0.00
  -28   26   15      0.43      0.00
  -26   26   15     -5.58      0.00
  -24   26   15      4.24      0.00
    8   26   15     -1.91      0.00
   10   26   15     -0.91      0.00
  -27   27   15      3.62      0.00
  -25   27   15     -1.84      0.00
    7   27   15      2.03      0.00
    9   27   15      1.26      0.00
  -28   28   15     -0.78      0.00
  -26   28   15     -4.86      0.00
  -24   28   15      5.40      0.00
    6   28   15     -1.18      0.00
    8   28   15      0.73      0.00
   10   28   15      2.05      0.00
  -27   29   15      1.89      0.00
  -25   29   15     -4.05      0.00
  -23   29   15      3.77      0.00
    5   29   15     -0.88      0.00
    7   29   15      0.52      0.00
    9   29   15      2.41      0.00
  -26   30   15     -2.81      0.00
  -24   30   15      3.90      0.00
  -22   30   15     -0.29      0.00
    4   30   15      2.40      0.00
    6   30   15      0.03      0.00
    8   30   15     -1.34      0.00
  -25   31   15     -4.06      0.00
  -23   31   15      2.76      0.00
  -21   31   15      2.22      0.00
  -19   31   15     -1.84      0.00
    3   31   15      0.93      0.00
    5   31   15     -0.04      0.00
    7   31   15      1.82      0.00
  -24   32   15      1.17      0.00
  -22   32   15     -0.09      0.00
  -20   32   15      1.98      0.00
  -18   32   15      0.22      0.00
    0   32   15     -4.71      0.00
    2   32   15     -4.26      0.00
    4   32   15      0.28      0.00
    6   32   15     -0.04      0.00
  -23   33   15      1.61      0.00
  -21   33   15     -3.09      0.00
  -19   33   15     -1.06      0.00
  -17   33   15     -2.78      0.00
   -1   33   15     -2.78      0.00
    1   33   15      1.49      0.00
    3   33   15      0.52      0.00
    5   33   15     -0.51      0.00
  -22   34   15      1.66      0.00
  -20   34   15      2.74      0.00
  -18   34   15     -0.07      0.00
  -16   34   15      3.25      0.00
  -14   34   15      1.25      0.00
   -4   34   15      1.28      0.00
   -2   34   15      1.91      0.00
    0   34   15     -2.96      0.00
    2   34   15     -3.39      0.00
    4   34   15     -0.65      0.00
  -21   35   15     -0.67      0.00
  -19   35   15      1.18      0.00
  -17   35   15      0.77      0.00
  -15   35   15     -2.52      0.00
  -13   35   15     -1.39      0.00
  -11   35   15     -5.18      0.00
   -9   35   15     -0.35      0.00
   -7   35   15      2.73      0.00
   -5   35   15      0.23      0.00
   -3   35   15     -4.58      0.00
   -1   35   15     -2.02      0.00
    1   35   15     -0.49      0.00
    3   35   15      1.50      0.00
  -20   36   15      1.89      0.00
  -18   36   15      0.47      0.00
  -16   36   15      0.66      0.00
  -14   36   15      3.35      0.00
  -12   36   15      1.74      0.00
  -10   36   15     -3.52      0.00
   -8   36   15      1.27      0.00
   -6   36   15      3.96      0.00
   -4   36   15     -1.24      0.00
   -2   36   15     -0.05      0.00
    0   36   15     -1.20      0.00
    2   36   15     -1.26      0.00
  -19   37   15      0.49      0.00
  -17   37   15      0.71      0.00
  -15   37   15     -2.21      0.00
  -13   37   15     -1.65      0.00
  -11   37   15     -6.13      0.00
   -9   37   15      0.11      0.00
   -7   37   15     -0.27      0.00
   -5   37   15      0.90      0.00
   -3   37   15     -2.76      0.00
   -1   37   15      1.56      0.00
    1   37   15      0.76      0.00
  -16   38   15      0.20      0.00
  -14   38   15      1.00      0.00
  -12   38   15      1.78      0.00
  -10   38   15     -5.11      0.00
   -8   38   15      2.96      0.00
   -6   38   15      1.22      0.00
   -4   38   15     -3.15      0.00
   -2   38   15      1.79      0.00
    0   38   15      0.58      0.00
  -15   39   15     -0.82      0.00
  -13   39   15      1.35      0.00
  -11   39   15     -1.34      0.00
   -9   39   15      2.27      0.00
   -7   39   15      1.01      0.00
   -5   39   15      0.58      0.00
   -3   39   15     -2.83      0.00
  -12   40   15     -0.08      0.00
  -10   40   15     -1.71      0.00
   -8   40   15      1.45      0.00
   -6   40   15     -0.67      0.00
  -32    0   16      2.99      0.00
   14    0   16      3.28      0.00
   16    0   16      4.77      0.00
   13    1   16      4.04      0.00
   15    1   16     -0.95      0.00
  -32    2   16      4.90      0.00
   14    2   16      2.96      0.00
   16    2   16      4.24      0.00
   13    3   16     -3.74      0.00
   15    3   16     -1.45      0.00
  -32    4   16      8.93      0.00
   14    4   16      0.80      0.00
   16    4   16      3.88      0.00
   13    5   16     -1.16      0.00
   15    5   16     -3.25      0.00
  -32    6   16      5.63      0.00
   14    6   16      0.87      0.00
   16    6   16      3.20      0.00
  -31    7   16      7.65      0.00
   13    7   16     -1.05      0.00
   15    7   16     -4.77      0.00
  -32    8   16      2.23      0.00
   12    8   16     -2.09      0.00
   14    8   16      0.46      0.00
  -31    9   16      8.67      0.00
   13    9   16     -6.62      0.00
   15    9   16     -2.74      0.00
  -32   10   16      2.49      0.00
   12   10   16     -1.73      0.00
   14   10   16      0.32      0.00
  -31   11   16     10.57      0.00
   13   11   16     -8.93      0.00
   15   11   16     -0.79      0.00
  -32   12   16      1.18      0.00
  -30   12   16     -1.22      0.00
   12   12   16     -0.40      0.00
   14   12   16      0.62      0.00
  -31   13   16      9.17      0.00
   11   13   16      0.16      0.00
   13   13   16     -1.98      0.00
  -32   14   16      2.83      0.00
  -30   14   16     -0.67      0.00
   12   14   16     -4.04      0.00
   14   14   16     -2.77      0.00
  -31   15   16      9.58      0.00
   11   15   16      1.16      0.00
   13   15   16      1.76      0.00
  -32   16   16      2.79      0.00
  -30   16   16     -1.67      0.00
   10   16   16      2.03      0.00
   12   16   16     -5.68      0.00
   14   16   16     -1.43      0.00
  -31   17   16      6.88      0.00
  -29   17   16     -9.66      0.00
   11   17   16      3.38      0.00
   13   17   16     -1.26      0.00
  -32   18   16      2.59      0.00
  -30   18   16     -0.72      0.00
  -28   18   16      6.08      0.00
   10   18   16     -0.38      0.00
   12   18   16     -2.56      0.00
  -31   19   16     -0.08      0.00
  -29   19   16     -9.08      0.00
    9   19   16      1.44      0.00
   11   19   16      1.07      0.00
   13   19   16     -0.75      0.00
  -30   20   16     -1.75      0.00
  -28   20   16      1.82      0.00
   10   20   16      1.61      0.00
   12   20   16      0.20      0.00
  -31   21   16      0.53      0.00
  -29   21   16     -4.96      0.00
  -27   21   16      3.86      0.00
    9   21   16      0.64      0.00
   11   21   16     -2.93      0.00
  -30   22   16     -1.48      0.00
  -28   22   16      1.51      0.00
  -26   22   16     -6.31      0.00
    8   22   16     -2.87      0.00
   10   22   16     -0.32      0.00
   12   22   16     -0.52      0.00
  -29   23   16     -5.84      0.00
  -27   23   16      2.82      0.00
    7   23   16      2.48      0.00
    9   23   16      1.62      0.00
   11   23   16      1.06      0.00
  -28   24   16      5.00      0.00
  -26   24   16      0.84      0.00
    6   24   16     -2.33      0.00
    8   24   16     -0.88      0.00
   10   24   16     -5.03      0.00
  -29   25   16     -1.97      0.00
  -27   25   16      0.93      0.00
  -25   25   16     -4.61      0.00
    7   25   16      3.32      0.00
    9   25   16      1.18      0.00
  -28   26   16      2.42      0.00
  -26   26   16      1.94      0.00
  -24   26   16      2.76      0.00
    6   26   16     -1.26      0.00
    8   26   16      0.80      0.00
  -27   27   16      4.79      0.00
  -25   27   16     -2.13      0.00
  -23   27   16     -5.71      0.00
    5   27   16      3.02      0.00
    7   27   16      3.63      0.00
    9   27   16     -1.81      0.00
  -26   28   16      1.48      0.00
  -24   28   16      2.62      0.00
  -22   28   16     -3.39      0.00
    4   28   16     -0.36      0.00
    6   28   16      0.08      0.00
    8   28   16      0.77      0.00
  -25   29   16     -1.26      0.00
  -23   29   16     -0.43      0.00
  -21   29   16      5.56      0.00
    3   29   16     -4.28      0.00
    5   29   16      0.60      0.00
    7   29   16      2.12      0.00
  -26   30   16      1.91      0.00
  -24   30   16      0.02      0.00
  -22   30   16     -4.88      0.00
  -20   30   16      5.23      0.00
    2   30   16      5.13      0.00
    4   30   16      0.07      0.00
    6   30   16     -0.48      0.00
  -25   31   16     -1.15      0.00
  -23   31   16     -1.38      0.00
  -21   31   16      6.97      0.00
  -19   31   16      0.02      0.00
   -1   31   16     -4.30      0.00
    1   31   16     -0.51      0.00
    3   31   16      0.36      0.00
    5   31   16      1.41      0.00
  -24   32   16     -0.87      0.00
  -22   32   16     -3.62      0.00
  -20   32   16      3.92      0.00
  -18   32   16     -4.00      0.00
  -16   32   16     -4.20      0.00
   -2   32   16     -0.49      0.00
    0   32   16      0.54      0.00
    2   32   16      1.04      0.00
    4   32   16     -0.18      0.00
  -23   33   16     -1.32      0.00
  -21   33   16      3.01      0.00
  -19   33   16      2.74      0.00
  -17   33   16      3.44      0.00
  -15   33   16     -1.87      0.00
  -13   33   16      4.78      0.00
   -5   33   16      5.08      0.00
   -3   33   16     -1.91      0.00
   -1   33   16     -4.21      0.00
    1   33   16      1.80      0.00
    3   33   16      1.69      0.00
  -22   34   16     -1.58      0.00
  -20   34   16      2.82      0.00
  -18   34   16     -5.60      0.00
  -16   34   16     -1.53      0.00
  -14   34   16     -2.79      0.00
  -12   34   16      0.09      0.00
  -10   34   16     -0.95      0.00
   -8   34   16      0.36      0.00
   -6   34   16     -0.32      0.00
   -4   34   16      0.64      0.00
   -2   34   16     -1.39      0.00
    0   34   16     -3.70      0.00
    2   34   16      0.81      0.00
  -21   35   16      0.39      0.00
  -19   35   16      0.62      0.00
  -17   35   16      2.41      0.00
  -15   35   16     -2.96      0.00
  -13   35   16     -1.30      0.00
  -11   35   16     -0.48      0.00
   -9   35   16     -0.45      0.00
   -7   35   16     -3.67      0.00
   -5   35   16      3.46      0.00
   -3   35   16     -1.87      0.00
   -1   35   16     -2.47      0.00
    1   35   16      1.29      0.00
  -18   36   16      1.22      0.00
  -16   36   16      2.37      0.00
  -14   36   16      1.31      0.00
  -12   36   16      0.93      0.00
  -10   36   16      0.06      0.00
   -8   36   16     -2.56      0.00
   -6   36   16      0.03      0.00
   -4   36   16     -0.18      0.00
   -2   36   16     -3.50      0.00
    0   36   16     -3.88      0.00
  -17   37   16      1.91      0.00
  -15   37   16     -1.01      0.00
  -13   37   16     -1.86      0.00
  -11   37   16     -3.97      0.00
   -9   37   16      0.46      0.00
   -7   37   16     -1.65      0.00
   -5   37   16      4.48      0.00
   -3   37   16      1.56      0.00
   -1   37   16     -0.18      0.00
  -14   38   16     -1.37      0.00
  -12   38   16     -0.26      0.00
  -10   38   16     -2.01      0.00
   -8   38   16     -1.71      0.00
   -6   38   16      2.50      0.00
   -4   38   16      0.18      0.00
  -11   39   16     -2.41      0.00
   -9   39   16     -1.26      0.00
   -7   39   16     -3.76      0.00
  -32    0   17     -5.52      0.00
   12    0   17     -2.99      0.00
   14    0   17     -3.47      0.00
  -31    1   17      7.40      0.00
   11    1   17      5.95      0.00
   13    1   17      2.02      0.00
   15    1   17     -1.48      0.00
  -32    2   17     -3.47      0.00
   12    2   17     -0.24      0.00
   14    2   17     -1.32      0.00
  -31    3   17      2.95      0.00
   11    3   17      2.63      0.00
   13    3   17     -3.40      0.00
  -32    4   17      0.82      0.00
   12    4   17      2.49      0.00
   14    4   17     -2.16      0.00
  -31    5   17      3.88      0.00
   11    5   17      1.55      0.00
   13    5   17     -0.02      0.00
  -32    6   17     -1.23      0.00
   12    6   17      4.64      0.00
   14    6   17     -3.36      0.00
  -31    7   17      9.54      0.00
   11    7   17      1.83      0.00
   13    7   17      1.33      0.00
  -32    8   17     -3.84      0.00
   12    8   17      2.24      0.00
   14    8   17     -4.26      0.00
  -31    9   17     10.18      0.00
   11    9   17      4.84      0.00
   13    9   17     -2.22      0.00
  -32   10   17     -1.85      0.00
  -30   10   17     -2.79      0.00
   10   10   17     -2.49      0.00
   12   10   17      0.82      0.00
   14   10   17     -2.42      0.00
  -31   11   17      8.98      0.00
   11   11   17      1.68      0.00
   13   11   17     -6.76      0.00
  -32   12   17     -1.49      0.00
  -30   12   17     -0.73      0.00
   10   12   17      2.20      0.00
   12   12   17      3.62      0.00
  -31   13   17      6.76      0.00
   11   13   17      2.67      0.00
   13   13   17     -2.30      0.00
  -32   14   17      0.11      0.00
  -30   14   17      2.99      0.00
   10   14   17     -3.12      0.00
   12   14   17      0.17      0.00
  -31   15   17      7.14      0.00
  -29   15   17     -5.63      0.00
    9   15   17      2.27      0.00
   11   15   17      3.21      0.00
   13   15   17      1.61      0.00
  -32   16   17      2.58      0.00
  -30   16   17      0.52      0.00
   10   16   17      1.84      0.00
   12   16   17      1.24      0.00
  -31   17   17      6.72      0.00
  -29   17   17     -6.09      0.00
    9   17   17     -4.73      0.00
   11   17   17     -0.41      0.00
  -32   18   17     -0.16      0.00
  -30   18   17     -1.35      0.00
  -28   18   17      0.48      0.00
    8   18   17      1.72      0.00
   10   18   17      3.25      0.00
   12   18   17      2.22      0.00
  -31   19   17      4.89      0.00
  -29   19   17     -4.36      0.00
  -27   19   17      6.08      0.00
    7   19   17      4.05      0.00
    9   19   17     -0.63      0.00
   11   19   17      2.78      0.00
  -30   20   17     -1.02      0.00
  -28   20   17     -3.01      0.00
    8   20   17     -2.14      0.00
   10   20   17     -3.20      0.00
  -29   21   17     -5.86      0.00
  -27   21   17      5.62      0.00
    7   21   17      1.92      0.00
    9   21   17      0.07      0.00
  -30   22   17     -0.10      0.00
  -28   22   17     -0.91      0.00
  -26   22   17     -3.26      0.00
    6   22   17      5.62      0.00
    8   22   17      0.34      0.00
   10   22   17     -0.76      0.00
  -29   23   17     -5.73      0.00
  -27   23   17      4.85      0.00
  -25   23   17     -2.20      0.00
    5   23   17     -2.54      0.00
    7   23   17      1.73      0.00
    9   23   17     -4.73      0.00
  -28   24   17     -3.37      0.00
  -26   24   17     -3.87      0.00
  -24   24   17     -5.55      0.00
    4   24   17     -2.68      0.00
    6   24   17      0.76      0.00
    8   24   17      0.69      0.00
  -27   25   17      3.76      0.00
  -25   25   17     -1.20      0.00
  -23   25   17     -2.37      0.00
    3   25   17      4.33      0.00
    5   25   17      1.94      0.00
    7   25   17      6.14      0.00
  -28   26   17     -1.92      0.00
  -26   26   17     -0.76      0.00
  -24   26   17     -4.33      0.00
    4   26   17     -4.42      0.00
    6   26   17     -1.98      0.00
    8   26   17      0.37      0.00
  -27   27   17      1.43      0.00
  -25   27   17     -3.13      0.00
  -23   27   17     -0.78      0.00
    3   27   17      2.15      0.00
    5   27   17      0.75      0.00
    7   27   17      4.61      0.00
  -26   28   17      0.51      0.00
  -24   28   17      0.87      0.00
  -22   28   17     -4.92      0.00
  -20   28   17      6.57      0.00
    0   28   17     -6.02      0.00
    2   28   17      3.44      0.00
    4   28   17     -0.25      0.00
    6   28   17      0.11      0.00
  -25   29   17     -1.64      0.00
  -23   29   17      2.28      0.00
  -21   29   17      1.56      0.00
  -19   29   17     -4.72      0.00
   -1   29   17     -4.25      0.00
    1   29   17     -1.93      0.00
    3   29   17     -0.63      0.00
    5   29   17     -0.60      0.00
  -24   30   17      0.26      0.00
  -22   30   17     -2.69      0.00
  -20   30   17      3.46      0.00
  -18   30   17      3.23      0.00
   -2   30   17      0.75      0.00
    0   30   17     -2.70      0.00
    2   30   17      2.82      0.00
    4   30   17     -1.27      0.00
  -23   31   17      3.55      0.00
  -21   31   17      1.91      0.00
  -19   31   17     -4.90      0.00
  -17   31   17     -1.08      0.00
  -15   31   17     -4.18      0.00
   -5   31   17     -0.50      0.00
   -3   31   17      0.88      0.00
   -1   31   17     -1.86      0.00
    1   31   17     -1.45      0.00
    3   31   17      1.18      0.00
  -22   32   17     -1.54      0.00
  -20   32   17      0.81      0.00
  -18   32   17      4.39      0.00
  -16   32   17      9.01      0.00
  -14   32   17      2.24      0.00
  -12   32   17      4.24      0.00
  -10   32   17     -2.81      0.00
   -8   32   17      0.16      0.00
   -6   32   17     -0.18      0.00
   -4   32   17     -4.16      0.00
   -2   32   17     -1.01      0.00
    0   32   17     -2.53      0.00
    2   32   17     -0.22      0.00
  -21   33   17     -0.47      0.00
  -19   33   17     -4.26      0.00
  -17   33   17     -1.52      0.00
  -15   33   17     -7.17      0.00
  -13   33   17      0.07      0.00
  -11   33   17      0.71      0.00
   -9   33   17     -3.28      0.00
   -7   33   17     -3.65      0.00
   -5   33   17     -1.95      0.00
   -3   33   17     -0.53      0.00
   -1   33   17     -2.32      0.00
    1   33   17     -0.36      0.00
  -20   34   17      1.56      0.00
  -18   34   17     -0.22      0.00
  -16   34   17      5.43      0.00
  -14   34   17     -0.61      0.00
  -12   34   17     -0.69      0.00
  -10   34   17     -5.48      0.00
   -8   34   17      1.85      0.00
   -6   34   17      0.93      0.00
   -4   34   17     -2.82      0.00
   -2   34   17      0.77      0.00
    0   34   17     -1.24      0.00
  -19   35   17     -1.07      0.00
  -17   35   17      0.86      0.00
  -15   35   17     -3.43      0.00
  -13   35   17     -0.54      0.00
  -11   35   17      2.45      0.00
   -9   35   17     -0.30      0.00
   -7   35   17      0.61      0.00
   -5   35   17     -2.64      0.00
   -3   35   17     -1.35      0.00
   -1   35   17      0.32      0.00
  -18   36   17      0.11      0.00
  -16   36   17      1.94      0.00
  -14   36   17     -0.97      0.00
  -12   36   17     -0.09      0.00
  -10   36   17     -2.85      0.00
   -8   36   17      0.33      0.00
   -6   36   17     -1.91      0.00
   -4   36   17     -2.61      0.00
  -15   37   17     -2.54      0.00
  -13   37   17     -1.61      0.00
  -11   37   17     -0.22      0.00
   -9   37   17      1.15      0.00
   -7   37   17      2.04      0.00
   -5   37   17     -3.38      0.00
  -32    0   18     -3.23      0.00
   10    0   18     -2.37      0.00
   12    0   18      2.26      0.00
  -31    1   18      7.80      0.00
   11    1   18      3.47      0.00
   13    1   18      1.43      0.00
  -32    2   18     -4.20      0.00
   10    2   18      1.18      0.00
   12    2   18      1.78      0.00
  -31    3   18      5.54      0.00
   11    3   18      1.09      0.00
   13    3   18     -0.19      0.00
  -32    4   18     -2.35      0.00
   10    4   18      1.21      0.00
   12    4   18      1.54      0.00
  -31    5   18      0.51      0.00
    9    5   18     -0.63      0.00
   11    5   18      1.32      0.00
   13    5   18     -0.47      0.00
  -32    6   18     -1.55      0.00
   10    6   18      0.05      0.00
   12    6   18      5.04      0.00
  -31    7   18      5.06      0.00
    9    7   18      2.42      0.00
   11    7   18     -1.37      0.00
   13    7   18     -1.38      0.00
  -32    8   18     -4.66      0.00
  -30    8   18     -1.31      0.00
   10    8   18     -2.38      0.00
   12    8   18      2.42      0.00
  -31    9   18      8.42      0.00
    9    9   18      2.28      0.00
   11    9   18     -0.89      0.00
  -32   10   18     -3.19      0.00
  -30   10   18     -4.34      0.00
   10   10   18     -3.66      0.00
   12   10   18     -2.74      0.00
  -31   11   18      4.73      0.00
    9   11   18      0.24      0.00
   11   11   18     -2.28      0.00
  -32   12   18     -1.36      0.00
  -30   12   18     -2.33      0.00
    8   12   18     -2.16      0.00
   10   12   18     -1.06      0.00
   12   12   18     -0.54      0.00
  -31   13   18      3.15      0.00
  -29   13   18     -7.17      0.00
    9   13   18      2.49      0.00
   11   13   18     -2.28      0.00
  -32   14   18     -0.83      0.00
  -30   14   18     -0.45      0.00
    8   14   18      0.51      0.00
   10   14   18     -2.68      0.00
  -31   15   18      4.18      0.00
  -29   15   18     -5.31      0.00
    7   15   18     -2.57      0.00
    9   15   18      5.54      0.00
   11   15   18     -2.62      0.00
  -32   16   18      0.54      0.00
  -30   16   18     -3.00      0.00
  -28   16   18     -1.98      0.00
    8   16   18      1.63      0.00
   10   16   18     -0.82      0.00
  -31   17   18      2.19      0.00
  -29   17   18     -6.70      0.00
  -27   17   18     -2.46      0.00
    7   17   18      2.18      0.00
    9   17   18      5.92      0.00
  -30   18   18      1.25      0.00
  -28   18   18      0.74      0.00
    6   18   18     -2.96      0.00
    8   18   18      1.02      0.00
   10   18   18     -0.52      0.00
  -31   19   18      0.04      0.00
  -29   19   18     -8.88      0.00
  -27   19   18      1.09      0.00
    5   19   18     -6.91      0.00
    7   19   18      1.98      0.00
    9   19   18      4.65      0.00
  -30   20   18      2.91      0.00
  -28   20   18     -1.35      0.00
  -26   20   18     -5.73      0.00
    6   20   18     -1.91      0.00
    8   20   18      4.84      0.00
  -29   21   18     -2.47      0.00
  -27   21   18      4.43      0.00
  -25   21   18     -3.50      0.00
    5   21   18     -5.79      0.00
    7   21   18     -3.19      0.00
    9   21   18      0.54      0.00
  -28   22   18     -1.81      0.00
  -26   22   18     -4.67      0.00
    4   22   18      1.62      0.00
    6   22   18     -1.75      0.00
    8   22   18      3.33      0.00
  -29   23   18     -2.36      0.00
  -27   23   18      2.04      0.00
  -25   23   18     -4.57      0.00
    3   23   18      4.39      0.00
    5   23   18     -1.80      0.00
    7   23   18      0.79      0.00
  -28   24   18      0.88      0.00
  -26   24   18     -0.35      0.00
  -24   24   18      2.90      0.00
    2   24   18      0.64      0.00
    4   24   18     -1.12      0.00
    6   24   18     -2.81      0.00
  -27   25   18      0.56      0.00
  -25   25   18     -5.10      0.00
  -23   25   18     -2.21      0.00
    1   25   18     -1.99      0.00
    3   25   18      3.99      0.00
    5   25   18      0.11      0.00
    7   25   18      2.09      0.00
  -26   26   18      1.63      0.00
  -24   26   18      2.85      0.00
  -22   26   18     -2.26      0.00
    0   26   18     -4.93      0.00
    2   26   18     -0.97      0.00
    4   26   18     -1.07      0.00
    6   26   18     -1.54      0.00
  -25   27   18     -3.72      0.00
  -23   27   18     -1.35      0.00
  -21   27   18      1.34      0.00
   -1   27   18      0.05      0.00
    1   27   18      1.42      0.00
    3   27   18      2.00      0.00
    5   27   18     -0.08      0.00
  -26   28   18      0.37      0.00
  -24   28   18      3.21      0.00
  -22   28   18     -2.99      0.00
  -20   28   18      3.30      0.00
  -18   28   18     -6.49      0.00
   -2   28   18      2.01      0.00
    0   28   18      0.90      0.00
    2   28   18      1.00      0.00
    4   28   18      0.13      0.00
  -25   29   18     -1.25      0.00
  -23   29   18      1.98      0.00
  -21   29   18      4.01      0.00
  -19   29   18     -3.22      0.00
  -17   29   18      3.52      0.00
   -5   29   18     -2.01      0.00
   -3   29   18     -3.83      0.00
   -1   29   18     -2.32      0.00
    1   29   18     -0.72      0.00
    3   29   18      0.00      0.00
  -24   30   18      0.44      0.00
  -22   30   18     -0.15      0.00
  -20   30   18      1.77      0.00
  -18   30   18     -6.91      0.00
  -16   30   18     -0.04      0.00
  -14   30   18      0.74      0.00
   -8   30   18      1.65      0.00
   -6   30   18      1.75      0.00
   -4   30   18      0.17      0.00
   -2   30   18      2.51      0.00
    0   30   18      4.21      0.00
    2   30   18      2.51      0.00
  -23   31   18      2.27      0.00
  -21   31   18      2.52      0.00
  -19   31   18     -0.12      0.00
  -17   31   18     -1.96      0.00
  -15   31   18      1.82      0.00
  -13   31   18      2.11      0.00
  -11   31   18      1.89      0.00
   -9   31   18     -3.15      0.00
   -7   31   18      2.23      0.00
   -5   31   18      1.83      0.00
   -3   31   18     -2.90      0.00
   -1   31   18      0.07      0.00
    1   31   18      0.95      0.00
  -22   32   18      0.15      0.00
  -20   32   18      0.24      0.00
  -18   32   18     -6.88      0.00
  -16   32   18     -0.03      0.00
  -14   32   18     -5.13      0.00
  -12   32   18     -1.78      0.00
  -10   32   18     -1.12      0.00
   -8   32   18     -1.43      0.00
   -6   32   18     -2.72      0.00
   -4   32   18     -5.74      0.00
   -2   32   18     -4.02      0.00
    0   32   18      1.82      0.00
  -21   33   18      3.61      0.00
  -19   33   18      1.01      0.00
  -17   33   18      0.42      0.00
  -15   33   18      1.20      0.00
  -13   33   18      4.11      0.00
  -11   33   18      3.78      0.00
   -9   33   18      0.31      0.00
   -7   33   18      3.14      0.00
   -5   33   18      3.31      0.00
   -3   33   18     -1.53      0.00
   -1   33   18     -1.79      0.00
  -18   34   18     -5.85      0.00
  -16   34   18      0.37      0.00
  -14   34   18     -2.72      0.00
  -12   34   18     -1.35      0.00
  -10   34   18      1.34      0.00
   -8   34   18      2.49      0.00
   -6   34   18      0.56      0.00
   -4   34   18     -4.00      0.00
   -2   34   18     -3.66      0.00
  -17   35   18     -0.55      0.00
  -15   35   18     -0.90      0.00
  -13   35   18     -3.17      0.00
  -11   35   18      0.61      0.00
   -9   35   18     -0.79      0.00
   -7   35   18      0.59      0.00
   -5   35   18      1.83      0.00
  -14   36   18     -0.11      0.00
  -12   36   18     -0.13      0.00
  -10   36   18      0.12      0.00
   -8   36   18      1.19      0.00
  -32    0   19     -7.93      0.00
  -30    0   19      1.96      0.00
    8    0   19      5.29      0.00
   10    0   19     -1.43      0.00
  -31    1   19      3.89      0.00
    9    1   19      8.13      0.00
   11    1   19      1.45      0.00
  -32    2   19     -7.34      0.00
  -30    2   19      2.44      0.00
    8    2   19      6.64      0.00
   10    2   19      0.47      0.00
  -31    3   19      4.56      0.00
    9    3   19      1.54      0.00
   11    3   19     -1.40      0.00
  -32    4   19     -4.63      0.00
  -30    4   19      4.16      0.00
    8    4   19      5.05      0.00
   10    4   19      0.47      0.00
  -31    5   19      3.25      0.00
    9    5   19      1.93      0.00
   11    5   19     -1.58      0.00
  -32    6   19     -4.18      0.00
  -30    6   19      2.93      0.00
    8    6   19      3.36      0.00
   10    6   19     -2.37      0.00
  -31    7   19      9.14      0.00
    7    7   19     -3.63      0.00
    9    7   19      4.47      0.00
   11    7   19     -0.89      0.00
  -32    8   19     -2.96      0.00
  -30    8   19      3.10      0.00
    8    8   19     -1.36      0.00
   10    8   19     -5.37      0.00
  -31    9   19      9.94      0.00
  -29    9   19     -0.17      0.00
    7    9   19     -3.06      0.00
    9    9   19      4.96      0.00
   11    9   19     -0.98      0.00
  -32   10   19     -0.81      0.00
  -30   10   19      2.51      0.00
    8   10   19     -4.59      0.00
   10   10   19     -2.55      0.00
  -31   11   19      5.78      0.00
  -29   11   19     -1.27      0.00
    7   11   19     -6.22      0.00
    9   11   19      1.62      0.00
  -32   12   19     -0.86      0.00
  -30   12   19      2.09      0.00
    6   12   19      0.65      0.00
    8   12   19     -2.52      0.00
   10   12   19      1.67      0.00
  -31   13   19      3.86      0.00
  -29   13   19     -8.14      0.00
    7   13   19     -4.49      0.00
    9   13   19      2.57      0.00
  -32   14   19      0.41      0.00
  -30   14   19      4.84      0.00
  -28   14   19      1.49      0.00
    6   14   19     -8.03      0.00
    8   14   19     -3.92      0.00
   10   14   19     -1.52      0.00
  -31   15   19      1.29      0.00
  -29   15   19     -8.60      0.00
  -27   15   19     -2.95      0.00
    5   15   19      8.65      0.00
    7   15   19     -2.05      0.00
    9   15   19      3.47      0.00
  -30   16   19      4.25      0.00
  -28   16   19     -0.74      0.00
    6   16   19     -4.01      0.00
    8   16   19      0.02      0.00
  -31   17   19     -0.93      0.00
  -29   17   19     -5.71      0.00
  -27   17   19     -1.77      0.00
    5   17   19      2.23      0.00
    7   17   19     -4.38      0.00
    9   17   19      1.05      0.00
  -30   18   19      1.98      0.00
  -28   18   19     -2.53      0.00
  -26   18   19     -6.46      0.00
    4   18   19      6.85      0.00
    6   18   19      1.34      0.00
    8   18   19      0.97      0.00
  -29   19   19     -4.25      0.00
  -27   19   19      2.91      0.00
  -25   19   19     -2.26      0.00
    3   19   19      3.17      0.00
    5   19   19      1.34      0.00
    7   19   19      0.96      0.00
  -30   20   19      0.86      0.00
  -28   20   19     -4.20      0.00
  -26   20   19     -6.82      0.00
    2   20   19     -2.85      0.00
    4   20   19      5.63      0.00
    6   20   19     -3.00      0.00
  -29   21   19     -1.84      0.00
  -27   21   19      1.83      0.00
  -25   21   19     -7.70      0.00
    3   21   19      1.17      0.00
    5   21   19      0.91      0.00
    7   21   19      0.07      0.00
  -28   22   19     -4.59      0.00
  -26   22   19     -4.95      0.00
  -24   22   19      1.71      0.00
    2   22   19     -1.70      0.00
    4   22   19      5.81      0.00
    6   22   19     -0.22      0.00
  -27   23   19      1.09      0.00
  -25   23   19     -8.21      0.00
  -23   23   19      2.90      0.00
    1   23   19      0.86      0.00
    3   23   19      0.97      0.00
    5   23   19     -0.74      0.00
  -28   24   19     -3.78      0.00
  -26   24   19     -6.51      0.00
  -24   24   19     -1.67      0.00
  -22   24   19     -0.14      0.00
    0   24   19     -0.61      0.00
    2   24   19     -1.71      0.00
    4   24   19      1.91      0.00
  -27   25   19      2.75      0.00
  -25   25   19     -6.15      0.00
  -23   25   19      4.14      0.00
  -21   25   19     -2.16      0.00
   -1   25   19      3.45      0.00
    1   25   19      2.22      0.00
    3   25   19      3.69      0.00
    5   25   19      2.20      0.00
  -26   26   19     -5.15      0.00
  -24   26   19     -3.50      0.00
  -22   26   19     -0.03      0.00
  -20   26   19     -0.59      0.00
   -2   26   19     -3.88      0.00
    0   26   19     -0.18      0.00
    2   26   19     -2.13      0.00
    4   26   19      1.96      0.00
  -25   27   19     -4.87      0.00
  -23   27   19      1.91      0.00
  -21   27   19      1.05      0.00
  -19   27   19     -3.34      0.00
  -17   27   19     -4.36      0.00
   -5   27   19     -2.32      0.00
   -3   27   19     -3.26      0.00
   -1   27   19     -0.51      0.00
    1   27   19      0.67      0.00
    3   27   19      2.05      0.00
  -24   28   19     -0.35      0.00
  -22   28   19      1.41      0.00
  -20   28   19      0.67      0.00
  -18   28   19     -0.46      0.00
  -16   28   19     -2.59      0.00
  -14   28   19      7.93      0.00
   -8   28   19     -4.89      0.00
   -6   28   19      3.98      0.00
   -4   28   19      2.20      0.00
   -2   28   19     -1.93      0.00
    0   28   19      1.85      0.00
    2   28   19     -0.37      0.00
  -23   29   19      1.52      0.00
  -21   29   19     -1.07      0.00
  -19   29   19     -1.51      0.00
  -17   29   19     -1.41      0.00
  -15   29   19      5.42      0.00
  -13   29   19      4.18      0.00
  -11   29   19      3.21      0.00
   -9   29   19     -0.86      0.00
   -7   29   19     -0.12      0.00
   -5   29   19     -0.49      0.00
   -3   29   19     -2.56      0.00
   -1   29   19     -1.27      0.00
    1   29   19     -1.02      0.00
  -22   30   19      2.10      0.00
  -20   30   19      2.91      0.00
  -18   30   19     -1.90      0.00
  -16   30   19      1.33      0.00
  -14   30   19      3.62      0.00
  -12   30   19     -1.89      0.00
  -10   30   19     -5.69      0.00
   -8   30   19     -4.04      0.00
   -6   30   19     -1.33      0.00
   -4   30   19     -1.13      0.00
   -2   30   19     -2.23      0.00
    0   30   19      0.01      0.00
  -21   31   19     -4.42      0.00
  -19   31   19      0.50      0.00
  -17   31   19     -5.29      0.00
  -15   31   19      2.61      0.00
  -13   31   19      3.89      0.00
  -11   31   19      0.04      0.00
   -9   31   19     -4.76      0.00
   -7   31   19     -1.99      0.00
   -5   31   19      3.53      0.00
   -3   31   19      0.02      0.00
   -1   31   19      0.51      0.00
  -20   32   19      3.01      0.00
  -18   32   19     -0.15      0.00
  -16   32   19      3.65      0.00
  -14   32   19      5.14      0.00
  -12   32   19     -0.01      0.00
  -10   32   19     -0.64      0.00
   -8   32   19     -0.25      0.00
   -6   32   19     -2.13      0.00
   -4   32   19     -1.94      0.00
   -2   32   19     -2.01      0.00
  -19   33   19      0.62      0.00
  -17   33   19     -4.38      0.00
  -15   33   19      0.98      0.00
  -13   33   19      3.36      0.00
  -11   33   19      0.31      0.00
   -9   33   19     -5.23      0.00
   -7   33   19     -3.27      0.00
   -5   33   19      0.36      0.00
  -16   34   19     -0.23      0.00
  -14   34   19      1.96      0.00
  -12   34   19     -0.25      0.00
  -10   34   19     -0.59      0.00
   -8   34   19      0.29      0.00
   -6   34   19     -0.78      0.00
  -11   35   19      1.80      0.00
  -32    0   20     -1.58      0.00
  -30    0   20      4.49      0.00
    6    0   20     -2.67      0.00
    8    0   20     -1.31      0.00
   10    0   20     -0.95      0.00
  -31    1   20      7.72      0.00
  -29    1   20     -2.95      0.00
    7    1   20     -4.44      0.00
    9    1   20      4.47      0.00
  -32    2   20     -1.71      0.00
  -30    2   20      3.00      0.00
    6    2   20      0.41      0.00
    8    2   20      0.13      0.00
   10    2   20      0.85      0.00
  -31    3   20      7.98      0.00
  -29    3   20     -3.59      0.00
    7    3   20     -6.75      0.00
    9    3   20      2.75      0.00
  -32    4   20     -2.22      0.00
  -30    4   20      4.46      0.00
    6    4   20      1.30      0.00
    8    4   20     -1.05      0.00
   10    4   20      2.23      0.00
  -31    5   20      3.21      0.00
  -29    5   20     -4.46      0.00
    7    5   20     -5.09      0.00
    9    5   20      3.97      0.00
  -32    6   20     -1.72      0.00
  -30    6   20      8.11      0.00
    6    6   20      0.41      0.00
    8    6   20      1.49      0.00
  -31    7   20      5.11      0.00
  -29    7   20     -5.32      0.00
    5    7   20      0.08      0.00
    7    7   20     -7.29      0.00
    9    7   20      3.01      0.00
  -32    8   20     -3.06      0.00
  -30    8   20      6.65      0.00
    6    8   20     -1.23      0.00
    8    8   20      0.78      0.00
  -31    9   20      9.27      0.00
  -29    9   20     -2.67      0.00
    5    9   20      5.15      0.00
    7    9   20     -5.56      0.00
    9    9   20      5.58      0.00
  -32   10   20     -5.18      0.00
  -30   10   20      4.89      0.00
  -28   10   20      2.12      0.00
    6   10   20     -1.16      0.00
    8   10   20     -3.26      0.00
  -31   11   20      5.05      0.00
  -29   11   20     -1.19      0.00
    5   11   20      4.53      0.00
    7   11   20     -3.75      0.00
    9   11   20      5.21      0.00
  -32   12   20     -3.00      0.00
  -30   12   20      3.82      0.00
  -28   12   20      2.41      0.00
    4   12   20      4.10      0.00
    6   12   20      0.31      0.00
    8   12   20     -1.17      0.00
  -31   13   20      2.28      0.00
  -29   13   20     -4.67      0.00
  -27   13   20     -0.19      0.00
    5   13   20      5.08      0.00
    7   13   20     -1.54      0.00
  -30   14   20      2.29      0.00
  -28   14   20      0.38      0.00
    4   14   20      2.50      0.00
    6   14   20     -2.08      0.00
    8   14   20      1.33      0.00
  -31   15   20      1.84      0.00
  -29   15   20     -3.17      0.00
  -27   15   20      3.93      0.00
    3   15   20     -1.65      0.00
    5   15   20      5.72      0.00
    7   15   20     -1.53      0.00
  -30   16   20      0.99      0.00
  -28   16   20     -4.31      0.00
  -26   16   20     -2.98      0.00
    2   16   20      2.59      0.00
    4   16   20      2.28      0.00
    6   16   20     -1.35      0.00
  -29   17   20     -0.95      0.00
  -27   17   20      2.46      0.00
  -25   17   20      0.52      0.00
    3   17   20     -2.41      0.00
    5   17   20      5.78      0.00
    7   17   20     -1.70      0.00
  -30   18   20      0.34      0.00
  -28   18   20     -0.91      0.00
  -26   18   20     -1.47      0.00
    2   18   20      3.14      0.00
    4   18   20      0.44      0.00
    6   18   20     -1.12      0.00
  -29   19   20     -1.86      0.00
  -27   19   20      0.36      0.00
  -25   19   20     -3.25      0.00
    1   19   20     -0.16      0.00
    3   19   20     -1.34      0.00
    5   19   20      4.03      0.00
  -28   20   20      0.33      0.00
  -26   20   20     -2.29      0.00
  -24   20   20      0.64      0.00
    0   20   20      2.62      0.00
    2   20   20      1.69      0.00
    4   20   20      3.48      0.00
  -27   21   20      1.53      0.00
  -25   21   20     -7.10      0.00
  -23   21   20      4.21      0.00
   -1   21   20     -1.90      0.00
    1   21   20      1.04      0.00
    3   21   20     -1.25      0.00
    5   21   20     -0.24      0.00
  -28   22   20     -1.70      0.00
  -26   22   20     -1.26      0.00
  -24   22   20      1.32      0.00
  -22   22   20     -5.12      0.00
   -2   22   20     -9.01      0.00
    0   22   20      2.24      0.00
    2   22   20     -0.20      0.00
    4   22   20      3.23      0.00
  -27   23   20      1.13      0.00
  -25   23   20     -7.20      0.00
  -23   23   20      2.69      0.00
  -21   23   20     -4.19      0.00
   -3   23   20     -3.35      0.00
   -1   23   20     -3.75      0.00
    1   23   20      1.19      0.00
    3   23   20     -0.17      0.00
  -26   24   20     -1.93      0.00
  -24   24   20      0.67      0.00
  -22   24   20     -3.62      0.00
  -20   24   20      1.40      0.00
   -4   24   20      3.97      0.00
   -2   24   20     -9.51      0.00
    0   24   20      0.53      0.00
    2   24   20     -1.39      0.00
  -25   25   20     -4.72      0.00
  -23   25   20      2.73      0.00
  -21   25   20     -6.05      0.00
  -19   25   20      1.88      0.00
  -17   25   20     -6.21      0.00
   -5   25   20      3.70      0.00
   -3   25   20     -4.31      0.00
   -1   25   20     -2.70      0.00
    1   25   20      2.29      0.00
  -24   26   20     -0.83      0.00
  -22   26   20     -2.38      0.00
  -20   26   20     -3.04      0.00
  -18   26   20     -0.66      0.00
  -16   26   20     -2.19      0.00
  -14   26   20      0.35      0.00
   -8   26   20     -0.38      0.00
   -6   26   20     -0.22      0.00
   -4   26   20      2.48      0.00
   -2   26   20    -10.04      0.00
    0   26   20      0.09      0.00
    2   26   20     -3.39      0.00
  -23   27   20      1.76      0.00
  -21   27   20     -3.45      0.00
  -19   27   20      3.21      0.00
  -17   27   20     -2.80      0.00
  -15   27   20      6.25      0.00
  -13   27   20      1.54      0.00
  -11   27   20      3.29      0.00
   -9   27   20      5.77      0.00
   -7   27   20      4.64      0.00
   -5   27   20      3.99      0.00
   -3   27   20     -1.26      0.00
   -1   27   20      0.10      0.00
    1   27   20      3.46      0.00
  -22   28   20     -1.42      0.00
  -20   28   20     -4.69      0.00
  -18   28   20      1.63      0.00
  -16   28   20     -4.87      0.00
  -14   28   20      3.66      0.00
  -12   28   20     -2.98      0.00
  -10   28   20     -6.44      0.00
   -8   28   20     -1.65      0.00
   -6   28   20     -1.47      0.00
   -4   28   20      4.12      0.00
   -2   28   20     -5.15      0.00
    0   28   20      2.34      0.00
  -21   29   20     -2.96      0.00
  -19   29   20      2.20      0.00
  -17   29   20     -1.16      0.00
  -15   29   20      1.83      0.00
  -13   29   20     -1.79      0.00
  -11   29   20     -4.29      0.00
   -9   29   20     -2.03      0.00
   -7   29   20     -2.57      0.00
   -5   29   20     -0.22      0.00
   -3   29   20     -3.38      0.00
   -1   29   20     -1.20      0.00
  -20   30   20      0.10      0.00
  -18   30   20      0.16      0.00
  -16   30   20     -1.35      0.00
  -14   30   20      3.37      0.00
  -12   30   20      1.41      0.00
  -10   30   20     -0.73      0.00
   -8   30   20      2.64      0.00
   -6   30   20     -0.28      0.00
   -4   30   20      1.30      0.00
  -19   31   20      1.94      0.00
  -17   31   20      0.14      0.00
  -15   31   20     -0.14      0.00
  -13   31   20     -0.20      0.00
  -11   31   20     -2.49      0.00
   -9   31   20      0.48      0.00
   -7   31   20     -1.80      0.00
   -5   31   20      3.35      0.00
  -18   32   20     -0.88      0.00
  -16   32   20     -2.20      0.00
  -14   32   20     -0.32      0.00
  -12   32   20     -1.78      0.00
  -10   32   20     -2.56      0.00
   -8   32   20      0.43      0.00
   -6   32   20     -3.47      0.00
  -15   33   20      1.17      0.00
  -13   33   20      0.57      0.00
  -11   33   20      1.75      0.00
   -9   33   20      1.50      0.00
  -32    0   21     -7.96      0.00
  -30    0   21      5.27      0.00
  -28    0   21      0.20      0.00
    4    0   21     -5.65      0.00
    6    0   21      0.08      0.00
    8    0   21      4.20      0.00
  -31    1   21      6.81      0.00
  -29    1   21     -3.00      0.00
    5    1   21      4.08      0.00
    7    1   21     -3.31      0.00
  -32    2   21     -5.44      0.00
  -30    2   21      6.06      0.00
  -28    2   21     -0.37      0.00
    4    2   21     -1.68      0.00
    6    2   21      2.47      0.00
    8    2   21      2.69      0.00
  -31    3   21      4.07      0.00
  -29    3   21     -3.84      0.00
    5    3   21      2.07      0.00
    7    3   21     -2.93      0.00
  -32    4   21     -2.50      0.00
  -30    4   21      9.50      0.00
  -28    4   21     -3.54      0.00
    4    4   21     -1.53      0.00
    6    4   21      3.73      0.00
    8    4   21     -1.52      0.00
  -31    5   21      4.05      0.00
  -29    5   21     -0.81      0.00
    3    5   21      2.10      0.00
    5    5   21      2.58      0.00
    7    5   21     -0.35      0.00
  -32    6   21     -5.29      0.00
  -30    6   21      7.75      0.00
  -28    6   21     -5.47      0.00
    4    6   21      1.91      0.00
    6    6   21      3.89      0.00
    8    6   21     -1.66      0.00
  -31    7   21      9.32      0.00
  -29    7   21      2.04      0.00
    3    7   21     -3.20      0.00
    5    7   21      1.64      0.00
    7    7   21     -1.83      0.00
  -32    8   21     -2.81      0.00
  -30    8   21      6.80      0.00
  -28    8   21     -0.12      0.00
    4    8   21      2.53      0.00
    6    8   21     -0.18      0.00
  -31    9   21      5.70      0.00
  -29    9   21     -1.71      0.00
  -27    9   21      6.07      0.00
    3    9   21     -1.39      0.00
    5    9   21      5.66      0.00
    7    9   21     -3.37      0.00
  -32   10   21     -0.96      0.00
  -30   10   21      9.90      0.00
  -28   10   21      1.34      0.00
    2   10   21      1.18      0.00
    4   10   21      0.55      0.00
    6   10   21     -2.57      0.00
  -31   11   21      1.11      0.00
  -29   11   21     -2.81      0.00
  -27   11   21      4.15      0.00
    3   11   21     -3.22      0.00
    5   11   21      2.28      0.00
    7   11   21     -5.07      0.00
  -30   12   21      4.94      0.00
  -28   12   21     -0.23      0.00
  -26   12   21      8.78      0.00
    2   12   21      4.66      0.00
    4   12   21      2.67      0.00
    6   12   21     -0.43      0.00
  -31   13   21     -0.12      0.00
  -29   13   21     -2.44      0.00
  -27   13   21      3.23      0.00
    1   13   21      2.44      0.00
    3   13   21     -1.22      0.00
    5   13   21      1.53      0.00
  -30   14   21      0.29      0.00
  -28   14   21     -0.89      0.00
  -26   14   21      4.49      0.00
    2   14   21     -0.50      0.00
    4   14   21     -3.57      0.00
    6   14   21     -3.42      0.00
  -29   15   21     -4.08      0.00
  -27   15   21      4.93      0.00
  -25   15   21     -6.07      0.00
    1   15   21      4.84      0.00
    3   15   21      2.66      0.00
    5   15   21      3.93      0.00
  -30   16   21      0.95      0.00
  -28   16   21     -3.82      0.00
  -26   16   21      6.08      0.00
  -24   16   21      0.47      0.00
    0   16   21      1.78      0.00
    2   16   21      0.42      0.00
    4   16   21     -2.56      0.00
  -29   17   21     -4.52      0.00
  -27   17   21      3.65      0.00
  -25   17   21     -6.78      0.00
   -1   17   21      1.59      0.00
    1   17   21      3.17      0.00
    3   17   21     -3.26      0.00
    5   17   21      3.46      0.00
  -28   18   21     -3.25      0.00
  -26   18   21      7.59      0.00
  -24   18   21      0.93      0.00
   -2   18   21     -0.30      0.00
    0   18   21     -0.77      0.00
    2   18   21      2.19      0.00
    4   18   21     -1.09      0.00
  -27   19   21      0.54      0.00
  -25   19   21     -5.95      0.00
  -23   19   21     -0.60      0.00
   -3   19   21      2.00      0.00
   -1   19   21      1.50      0.00
    1   19   21      6.57      0.00
    3   19   21     -2.14      0.00
  -28   20   21     -3.60      0.00
  -26   20   21      4.20      0.00
  -24   20   21      0.30      0.00
  -22   20   21     -1.97      0.00
   -2   20   21     -0.98      0.00
    0   20   21     -0.96      0.00
    2   20   21     -0.59      0.00
  -27   21   21      2.05      0.00
  -25   21   21     -5.43      0.00
  -23   21   21      1.44      0.00
  -21   21   21     -3.02      0.00
   -5   21   21      3.18      0.00
   -3   21   21      1.20      0.00
   -1   21   21      1.86      0.00
    1   21   21      4.52      0.00
    3   21   21     -0.95      0.00
  -26   22   21      1.26      0.00
  -24   22   21     -0.29      0.00
  -22   22   21     -1.39      0.00
  -20   22   21     -0.42      0.00
   -6   22   21      0.65      0.00
   -4   22   21      5.88      0.00
   -2   22   21     -3.60      0.00
    0   22   21      4.00      0.00
    2   22   21      1.91      0.00
  -25   23   21     -3.95      0.00
  -23   23   21      1.47      0.00
  -21   23   21     -5.25      0.00
  -19   23   21      0.21      0.00
  -17   23   21     -4.36      0.00
   -7   23   21      2.21      0.00
   -5   23   21     -1.65      0.00
   -3   23   21      1.91      0.00
   -1   23   21      1.39      0.00
    1   23   21      2.28      0.00
  -24   24   21     -0.36      0.00
  -22   24   21     -0.31      0.00
  -20   24   21     -1.88      0.00
  -18   24   21     -2.03      0.00
  -16   24   21     -5.42      0.00
  -14   24   21     -3.83      0.00
  -12   24   21     -0.36      0.00
  -10   24   21      0.02      0.00
   -8   24   21      0.38      0.00
   -6   24   21      0.27      0.00
   -4   24   21      1.46      0.00
   -2   24   21     -5.40      0.00
    0   24   21      2.19      0.00
  -25   25   21     -2.87      0.00
  -23   25   21      2.57      0.00
  -21   25   21     -6.68      0.00
  -19   25   21      2.34      0.00
  -17   25   21     -3.60      0.00
  -15   25   21     -2.14      0.00
  -13   25   21      0.84      0.00
  -11   25   21     -3.24      0.00
   -9   25   21      5.16      0.00
   -7   25   21      0.26      0.00
   -5   25   21     -2.94      0.00
   -3   25   21      2.02      0.00
   -1   25   21      2.31      0.00
  -24   26   21     -1.64      0.00
  -22   26   21     -0.93      0.00
  -20   26   21     -4.13      0.00
  -18   26   21      1.24      0.00
  -16   26   21      2.05      0.00
  -14   26   21     -1.76      0.00
  -12   26   21      1.53      0.00
  -10   26   21     -1.91      0.00
   -8   26   21      3.00      0.00
   -6   26   21     -0.95      0.00
   -4   26   21      2.67      0.00
   -2   26   21     -3.26      0.00
  -23   27   21      2.88      0.00
  -21   27   21     -5.81      0.00
  -19   27   21      2.91      0.00
  -17   27   21     -4.53      0.00
  -15   27   21      2.43      0.00
  -13   27   21     -2.26      0.00
  -11   27   21     -0.47      0.00
   -9   27   21      1.20      0.00
   -7   27   21     -0.78      0.00
   -5   27   21     -3.58      0.00
   -3   27   21     -0.86      0.00
  -20   28   21     -5.45      0.00
  -18   28   21      3.28      0.00
  -16   28   21      1.39      0.00
  -14   28   21      0.40      0.00
  -12   28   21      0.26      0.00
  -10   28   21     -2.55      0.00
   -8   28   21      5.30      0.00
   -6   28   21     -1.50      0.00
   -4   28   21      5.10      0.00
  -19   29   21      0.57      0.00
  -17   29   21      0.24      0.00
  -15   29   21      5.26      0.00
  -13   29   21     -1.28      0.00
  -11   29   21     -0.61      0.00
   -9   29   21     -0.01      0.00
   -7   29   21     -0.33      0.00
   -5   29   21     -1.03      0.00
  -18   30   21     -0.12      0.00
  -16   30   21      0.89      0.00
  -14   30   21      1.59      0.00
  -12   30   21     -0.10      0.00
  -10   30   21     -2.62      0.00
   -8   30   21      1.56      0.00
   -6   30   21     -2.66      0.00
  -15   31   21      3.74      0.00
  -13   31   21      0.04      0.00
  -11   31   21     -0.86      0.00
   -9   31   21      1.13      0.00
  -32    0   22     -5.41      0.00
  -30    0   22      8.33      0.00
  -28    0   22      5.45      0.00
    2    0   22      0.39      0.00
    4    0   22     -6.32      0.00
    6    0   22     -0.57      0.00
  -31    1   22      1.06      0.00
  -29    1   22      4.26      0.00
  -27    1   22     12.47      0.00
    1    1   22      1.17      0.00
    3    1   22     -6.19      0.00
    5    1   22      7.24      0.00
  -32    2   22     -4.10      0.00
  -30    2   22      5.71      0.00
  -28    2   22      1.27      0.00
    2    2   22      0.65      0.00
    4    2   22     -3.33      0.00
    6    2   22      1.65      0.00
  -31    3   22      0.50      0.00
  -29    3   22      2.87      0.00
  -27    3   22     12.38      0.00
    1    3   22      3.29      0.00
    3    3   22     -6.39      0.00
    5    3   22      1.61      0.00
  -32    4   22     -3.23      0.00
  -30    4   22      6.24      0.00
  -28    4   22     -4.30      0.00
    2    4   22      3.33      0.00
    4    4   22     -1.87      0.00
    6    4   22      3.80      0.00
  -31    5   22     -1.07      0.00
  -29    5   22     -5.01      0.00
  -27    5   22      7.54      0.00
    1    5   22      1.38      0.00
    3    5   22     -5.56      0.00
    5    5   22     -0.94      0.00
  -30    6   22      9.31      0.00
  -28    6   22     -4.36      0.00
    2    6   22      4.23      0.00
    4    6   22     -1.16      0.00
    6    6   22      3.71      0.00
  -31    7   22      0.37      0.00
  -29    7   22     -8.54      0.00
  -27    7   22      2.54      0.00
    1    7   22      5.22      0.00
    3    7   22     -3.69      0.00
    5    7   22     -1.50      0.00
  -30    8   22      5.20      0.00
  -28    8   22     -5.50      0.00
  -26    8   22      4.49      0.00
    0    8   22     -3.99      0.00
    2    8   22      1.74      0.00
    4    8   22     -0.67      0.00
  -31    9   22      4.08      0.00
  -29    9   22     -5.51      0.00
  -27    9   22      4.37      0.00
    1    9   22      9.79      0.00
    3    9   22     -1.82      0.00
    5    9   22      1.47      0.00
  -30   10   22      4.06      0.00
  -28   10   22     -9.31      0.00
  -26   10   22      3.93      0.00
    0   10   22     -4.99      0.00
    2   10   22      4.74      0.00
    4   10   22      0.36      0.00
  -29   11   22     -6.69      0.00
  -27   11   22      6.35      0.00
  -25   11   22      1.17      0.00
   -1   11   22     -5.81      0.00
    1   11   22      4.92      0.00
    3   11   22     -1.23      0.00
    5   11   22      1.47      0.00
  -30   12   22      6.18      0.00
  -28   12   22     -6.21      0.00
  -26   12   22      7.67      0.00
    0   12   22     -4.04      0.00
    2   12   22      7.29      0.00
    4   12   22     -0.10      0.00
  -29   13   22     -6.16      0.00
  -27   13   22      2.03      0.00
  -25   13   22      1.12      0.00
   -1   13   22     -5.40      0.00
    1   13   22      2.69      0.00
    3   13   22      2.12      0.00
  -30   14   22      3.80      0.00
  -28   14   22     -3.32      0.00
  -26   14   22      7.83      0.00
  -24   14   22     -4.19      0.00
   -2   14   22      0.41      0.00
    0   14   22     -5.03      0.00
    2   14   22      6.49      0.00
    4   14   22     -2.85      0.00
  -29   15   22     -2.65      0.00
  -27   15   22      5.46      0.00
  -25   15   22      1.46      0.00
  -23   15   22      1.03      0.00
   -3   15   22      3.22      0.00
   -1   15   22     -5.51      0.00
    1   15   22      1.47      0.00
    3   15   22      2.64      0.00
  -28   16   22     -5.27      0.00
  -26   16   22      6.63      0.00
  -24   16   22     -2.33      0.00
  -22   16   22     -1.35      0.00
   -4   16   22      8.32      0.00
   -2   16   22      1.46      0.00
    0   16   22     -1.79      0.00
    2   16   22      7.42      0.00
  -27   17   22      6.90      0.00
  -25   17   22     -0.20      0.00
  -23   17   22      2.20      0.00
  -21   17   22      1.36      0.00
   -3   17   22      5.06      0.00
   -1   17   22     -7.99      0.00
    1   17   22      2.78      0.00
  -28   18   22     -4.28      0.00
  -26   18   22      7.84      0.00
  -24   18   22     -2.36      0.00
  -22   18   22      0.36      0.00
  -20   18   22     -5.19      0.00
   -6   18   22      2.04      0.00
   -4   18   22      3.47      0.00
   -2   18   22      2.85      0.00
    0   18   22     -1.27      0.00
    2   18   22      4.78      0.00
  -27   19   22      2.02      0.00
  -25   19   22      0.28      0.00
  -23   19   22      2.96      0.00
  -21   19   22      1.46      0.00
  -19   19   22     -4.33      0.00
   -7   19   22      1.83      0.00
   -5   19   22     -2.30      0.00
   -3   19   22      5.03      0.00
   -1   19   22     -7.69      0.00
    1   19   22      5.91      0.00
  -26   20   22      4.00      0.00
  -24   20   22     -2.81      0.00
  -22   20   22      0.67      0.00
  -20   20   22     -5.08      0.00
  -18   20   22      3.66      0.00
   -8   20   22      7.62      0.00
   -6   20   22      4.47      0.00
   -4   20   22      1.62      0.00
   -2   20   22      2.07      0.00
    0   20   22     -1.48      0.00
  -25   21   22     -0.02      0.00
  -23   21   22      2.71      0.00
  -21   21   22     -1.00      0.00
  -19   21   22     -4.62      0.00
  -17   21   22      0.26      0.00
  -15   21   22     -4.72      0.00
  -13   21   22      0.85      0.00
  -11   21   22     -1.19      0.00
   -9   21   22      6.63      0.00
   -7   21   22      6.60      0.00
   -5   21   22     -0.90      0.00
   -3   21   22      3.38      0.00
   -1   21   22     -3.78      0.00
  -24   22   22     -1.08      0.00
  -22   22   22      3.14      0.00
  -20   22   22     -8.08      0.00
  -18   22   22     -1.58      0.00
  -16   22   22     -5.28      0.00
  -14   22   22     -2.59      0.00
  -12   22   22      3.29      0.00
  -10   22   22     -1.50      0.00
   -8   22   22      7.18      0.00
   -6   22   22      0.55      0.00
   -4   22   22      0.32      0.00
   -2   22   22     -1.65      0.00
  -25   23   22     -0.36      0.00
  -23   23   22      1.88      0.00
  -21   23   22     -4.21      0.00
  -19   23   22     -3.85      0.00
  -17   23   22     -0.84      0.00
  -15   23   22     -2.83      0.00
  -13   23   22     -0.95      0.00
  -11   23   22     -1.85      0.00
   -9   23   22      3.29      0.00
   -7   23   22      6.63      0.00
   -5   23   22     -3.77      0.00
   -3   23   22      1.36      0.00
   -1   23   22     -2.59      0.00
  -24   24   22     -1.25      0.00
  -22   24   22      2.31      0.00
  -20   24   22     -6.22      0.00
  -18   24   22     -2.61      0.00
  -16   24   22     -0.14      0.00
  -14   24   22      2.47      0.00
  -12   24   22      4.71      0.00
  -10   24   22      3.96      0.00
   -8   24   22      7.81      0.00
   -6   24   22      3.75      0.00
   -4   24   22      0.96      0.00
   -2   24   22     -2.35      0.00
  -23   25   22      2.52      0.00
  -21   25   22     -4.45      0.00
  -19   25   22     -4.74      0.00
  -17   25   22     -2.05      0.00
  -15   25   22     -4.90      0.00
  -13   25   22      0.98      0.00
  -11   25   22     -3.51      0.00
   -9   25   22      1.17      0.00
   -7   25   22      3.94      0.00
   -5   25   22     -4.62      0.00
   -3   25   22      0.20      0.00
  -22   26   22     -0.67      0.00
  -20   26   22     -3.66      0.00
  -18   26   22     -2.36      0.00
  -16   26   22      2.78      0.00
  -14   26   22     -1.77      0.00
  -12   26   22     -0.19      0.00
  -10   26   22     -2.37      0.00
   -8   26   22      2.60      0.00
   -6   26   22      0.08      0.00
   -4   26   22     -0.08      0.00
  -19   27   22      0.62      0.00
  -17   27   22     -0.82      0.00
  -15   27   22      3.06      0.00
  -13   27   22      2.26      0.00
  -11   27   22      1.20      0.00
   -9   27   22      2.21      0.00
   -7   27   22      3.54      0.00
  -18   28   22     -1.57      0.00
  -16   28   22      0.59      0.00
  -14   28   22     -3.67      0.00
  -12   28   22     -0.31      0.00
  -10   28   22     -4.11      0.00
   -8   28   22      2.80      0.00
  -15   29   22      0.97      0.00
  -13   29   22     -4.01      0.00
  -11   29   22     -2.43      0.00
  -30    0   23      7.64      0.00
  -28    0   23     -9.56      0.00
  -26    0   23     10.20      0.00
   -2    0   23      8.86      0.00
    0    0   23     -4.34      0.00
    2    0   23      3.41      0.00
    4    0   23      1.38      0.00
  -31    1   23      1.91      0.00
  -29    1   23     -2.68      0.00
  -27    1   23      5.14      0.00
  -25    1   23      4.04      0.00
   -1    1   23    -10.51      0.00
    1    1   23      2.20      0.00
    3    1   23      0.29      0.00
  -30    2   23      6.74      0.00
  -28    2   23     -5.82      0.00
  -26    2   23     12.42      0.00
   -2    2   23     10.60      0.00
    0    2   23     -0.98      0.00
    2    2   23      4.20      0.00
    4    2   23      1.41      0.00
  -31    3   23      1.99      0.00
  -29    3   23     -5.62      0.00
  -27    3   23     -1.53      0.00
  -25    3   23     -0.52      0.00
   -1    3   23     -7.25      0.00
    1    3   23      0.66      0.00
    3    3   23      2.11      0.00
  -30    4   23      7.46      0.00
  -28    4   23     -5.17      0.00
  -26    4   23     11.30      0.00
   -2    4   23      6.10      0.00
    0    4   23     -6.11      0.00
    2    4   23      1.30      0.00
    4    4   23     -1.88      0.00
  -31    5   23      2.20      0.00
  -29    5   23     -5.54      0.00
  -27    5   23      4.53      0.00
  -25    5   23      1.30      0.00
   -1    5   23      1.55      0.00
    1    5   23      1.84      0.00
    3    5   23      3.94      0.00
  -30    6   23      5.69      0.00
  -28    6   23     -9.85      0.00
  -26    6   23      8.15      0.00
   -2    6   23      5.13      0.00
    0    6   23     -7.90      0.00
    2    6   23      2.30      0.00
  -29    7   23     -0.45      0.00
  -27    7   23      8.24      0.00
  -25    7   23      5.75      0.00
   -3    7   23      4.14      0.00
   -1    7   23     -1.15      0.00
    1    7   23     -1.86      0.00
    3    7   23      1.63      0.00
  -30    8   23      3.35      0.00
  -28    8   23     -8.94      0.00
  -26    8   23     10.73      0.00
  -24    8   23      1.80      0.00
   -2    8   23      8.59      0.00
    0    8   23     -4.99      0.00
    2    8   23      1.56      0.00
  -29    9   23     -0.65      0.00
  -27    9   23      3.26      0.00
  -25    9   23      6.28      0.00
   -3    9   23      6.58      0.00
   -1    9   23     -1.91      0.00
    1    9   23      3.08      0.00
    3    9   23      3.34      0.00
  -30   10   23      4.35      0.00
  -28   10   23     -4.33      0.00
  -26   10   23     11.03      0.00
  -24   10   23      5.30      0.00
   -4   10   23     -2.81      0.00
   -2   10   23      6.05      0.00
    0   10   23     -4.85      0.00
    2   10   23      0.97      0.00
  -29   11   23     -3.72      0.00
  -27   11   23      2.25      0.00
  -25   11   23      3.31      0.00
  -23   11   23      5.39      0.00
   -3   11   23      8.17      0.00
   -1   11   23     -1.71      0.00
    1   11   23      1.98      0.00
  -28   12   23     -4.95      0.00
  -26   12   23      6.95      0.00
  -24   12   23      0.95      0.00
  -22   12   23      5.70      0.00
   -4   12   23     -2.77      0.00
   -2   12   23      6.34      0.00
    0   12   23     -2.28      0.00
    2   12   23      5.12      0.00
  -29   13   23     -0.51      0.00
  -27   13   23      1.74      0.00
  -25   13   23      2.53      0.00
  -23   13   23      7.17      0.00
   -5   13   23     -1.59      0.00
   -3   13   23      4.66      0.00
   -1   13   23     -0.15      0.00
    1   13   23      1.33      0.00
  -28   14   23     -5.39      0.00
  -26   14   23      5.13      0.00
  -24   14   23     -3.14      0.00
  -22   14   23      6.00      0.00
   -6   14   23      4.76      0.00
   -4   14   23     -1.29      0.00
   -2   14   23      5.22      0.00
    0   14   23     -6.49      0.00
  -27   15   23     -0.38      0.00
  -25   15   23     -3.12      0.00
  -23   15   23      0.40      0.00
  -21   15   23      7.70      0.00
   -7   15   23      5.32      0.00
   -5   15   23      0.95      0.00
   -3   15   23      3.89      0.00
   -1   15   23      1.83      0.00
    1   15   23      1.72      0.00
  -28   16   23     -1.18      0.00
  -26   16   23      7.00      0.00
  -24   16   23      0.61      0.00
  -22   16   23      7.57      0.00
  -20   16   23      1.71      0.00
   -8   16   23      2.12      0.00
   -6   16   23      3.36      0.00
   -4   16   23     -2.27      0.00
   -2   16   23      4.44      0.00
    0   16   23     -4.17      0.00
  -27   17   23     -0.85      0.00
  -25   17   23     -7.75      0.00
  -23   17   23     -2.33      0.00
  -21   17   23      5.38      0.00
  -19   17   23     -0.21      0.00
  -17   17   23     -2.45      0.00
  -11   17   23      1.76      0.00
   -9   17   23     -5.35      0.00
   -7   17   23     11.42      0.00
   -5   17   23      2.62      0.00
   -3   17   23      4.70      0.00
   -1   17   23     -2.38      0.00
  -26   18   23      6.98      0.00
  -24   18   23     -2.47      0.00
  -22   18   23      7.33      0.00
  -20   18   23     -0.68      0.00
  -18   18   23     -0.12      0.00
  -16   18   23     -5.12      0.00
  -14   18   23     -7.54      0.00
  -12   18   23     -3.97      0.00
  -10   18   23     -6.11      0.00
   -8   18   23      0.08      0.00
   -6   18   23      6.72      0.00
   -4   18   23     -3.78      0.00
   -2   18   23      2.60      0.00
  -25   19   23     -3.97      0.00
  -23   19   23     -1.51      0.00
  -21   19   23      4.99      0.00
  -19   19   23     -0.72      0.00
  -17   19   23     -1.95      0.00
  -15   19   23     -0.63      0.00
  -13   19   23     -1.34      0.00
  -11   19   23      0.04      0.00
   -9   19   23     -5.55      0.00
   -7   19   23     12.35      0.00
   -5   19   23      0.33      0.00
   -3   19   23      7.85      0.00
   -1   19   23     -1.28      0.00
  -24   20   23     -5.14      0.00
  -22   20   23      6.51      0.00
  -20   20   23     -1.56      0.00
  -18   20   23     -1.15      0.00
  -16   20   23     -6.22      0.00
  -14   20   23     -6.03      0.00
  -12   20   23     -3.06      0.00
  -10   20   23     -3.86      0.00
   -8   20   23      0.44      0.00
   -6   20   23      8.92      0.00
   -4   20   23     -5.08      0.00
   -2   20   23      0.70      0.00
  -23   21   23     -2.94      0.00
  -21   21   23      0.55      0.00
  -19   21   23     -2.91      0.00
  -17   21   23     -5.42      0.00
  -15   21   23     -3.44      0.00
  -13   21   23     -6.69      0.00
  -11   21   23     -1.34      0.00
   -9   21   23     -4.30      0.00
   -7   21   23      8.15      0.00
   -5   21   23     -1.88      0.00
   -3   21   23      4.83      0.00
  -24   22   23     -3.56      0.00
  -22   22   23      5.50      0.00
  -20   22   23     -1.37      0.00
  -18   22   23     -2.99      0.00
  -16   22   23     -2.75      0.00
  -14   22   23     -2.78      0.00
  -12   22   23      2.95      0.00
  -10   22   23     -2.22      0.00
   -8   22   23      3.30      0.00
   -6   22   23      6.12      0.00
   -4   22   23     -3.18      0.00
  -23   23   23     -2.67      0.00
  -21   23   23     -2.15      0.00
  -19   23   23     -1.60      0.00
  -17   23   23     -5.63      0.00
  -15   23   23     -3.20      0.00
  -13   23   23     -7.13      0.00
  -11   23   23      1.20      0.00
   -9   23   23     -3.62      0.00
   -7   23   23      4.69      0.00
   -5   23   23     -4.44      0.00
  -20   24   23     -1.74      0.00
  -18   24   23     -3.11      0.00
  -16   24   23     -3.82      0.00
  -14   24   23     -1.97      0.00
  -12   24   23     -0.05      0.00
  -10   24   23      0.33      0.00
   -8   24   23      2.49      0.00
   -6   24   23      2.02      0.00
  -19   25   23     -0.83      0.00
  -17   25   23     -0.45      0.00
  -15   25   23     -1.31      0.00
  -13   25   23     -1.81      0.00
  -11   25   23      3.93      0.00
   -9   25   23     -1.71      0.00
   -7   25   23      4.58      0.00
  -18   26   23     -1.02      0.00
  -16   26   23     -1.72      0.00
  -14   26   23     -2.52      0.00
  -12   26   23     -1.44      0.00
  -10   26   23      0.09      0.00
  -15   27   23     -0.29      0.00
  -13   27   23     -1.30      0.00
  -30    0   24     12.66      0.00
  -28    0   24     -5.18      0.00
  -26    0   24      3.47      0.00
  -24    0   24     12.42      0.00
   -4    0   24     -3.52      0.00
   -2    0   24      7.03      0.00
    0    0   24     -3.14      0.00
  -29    1   24      5.65      0.00
  -27    1   24      1.16      0.00
  -25    1   24      6.28      0.00
  -23    1   24      6.74      0.00
   -5    1   24      2.01      0.00
   -3    1   24     -7.49      0.00
   -1    1   24     -4.49      0.00
    1    1   24     -2.75      0.00
  -30    2   24      9.19      0.00
  -28    2   24     -6.83      0.00
  -26    2   24      1.25      0.00
  -24    2   24      3.16      0.00
   -4    2   24     -3.54      0.00
   -2    2   24      5.14      0.00
    0    2   24     -3.50      0.00
  -29    3   24      5.00      0.00
  -27    3   24     -1.68      0.00
  -25    3   24      8.46      0.00
  -23    3   24      8.93      0.00
   -5    3   24      2.51      0.00
   -3    3   24     -3.80      0.00
   -1    3   24     -0.61      0.00
    1    3   24     -1.90      0.00
  -30    4   24      5.64      0.00
  -28    4   24     -7.17      0.00
  -26    4   24      0.78      0.00
  -24    4   24     -3.40      0.00
   -6    4   24      3.83      0.00
   -4    4   24     -1.54      0.00
   -2    4   24      6.48      0.00
    0    4   24     -3.25      0.00
  -29    5   24     -0.24      0.00
  -27    5   24     -1.70      0.00
  -25    5   24      3.75      0.00
  -23    5   24      3.79      0.00
   -5    5   24     -1.54      0.00
   -3    5   24     -3.79      0.00
   -1    5   24     -1.22      0.00
    1    5   24     -2.09      0.00
  -28    6   24     -5.17      0.00
  -26    6   24      4.40      0.00
  -24    6   24      0.57      0.00
  -22    6   24      1.16      0.00
   -6    6   24      8.20      0.00
   -4    6   24     -1.54      0.00
   -2    6   24      8.03      0.00
    0    6   24     -2.04      0.00
  -29    7   24     -1.74      0.00
  -27    7   24     -0.11      0.00
  -25    7   24      1.07      0.00
  -23    7   24     -1.41      0.00
   -7    7   24     -4.37      0.00
   -5    7   24      0.95      0.00
   -3    7   24      0.77      0.00
   -1    7   24      0.04      0.00
    1    7   24     -2.16      0.00
  -28    8   24     -5.84      0.00
  -26    8   24      8.87      0.00
  -24    8   24     -2.47      0.00
  -22    8   24      4.65      0.00
   -6    8   24      5.73      0.00
   -4    8   24     -7.32      0.00
   -2    8   24      2.93      0.00
    0    8   24     -1.93      0.00
  -29    9   24      0.59      0.00
  -27    9   24      1.56      0.00
  -25    9   24      5.51      0.00
  -23    9   24     -1.72      0.00
  -21    9   24      2.37      0.00
   -7    9   24     -0.35      0.00
   -5    9   24      3.02      0.00
   -3    9   24      7.60      0.00
   -1    9   24      0.83      0.00
  -28   10   24     -5.40      0.00
  -26   10   24      6.00      0.00
  -24   10   24     -8.68      0.00
  -22   10   24      3.52      0.00
  -20   10   24      0.72      0.00
   -8   10   24     -7.37      0.00
   -6   10   24      7.33      0.00
   -4   10   24     -6.03      0.00
   -2   10   24      2.10      0.00
    0   10   24     -0.21      0.00
  -27   11   24      3.72      0.00
  -25   11   24      8.72      0.00
  -23   11   24      0.80      0.00
  -21   11   24      5.19      0.00
  -19   11   24      0.18      0.00
   -9   11   24     -6.89      0.00
   -7   11   24      2.07      0.00
   -5   11   24      0.99      0.00
   -3   11   24      4.43      0.00
   -1   11   24     -1.30      0.00
  -28   12   24     -3.14      0.00
  -26   12   24      5.47      0.00
  -24   12   24     -7.95      0.00
  -22   12   24      3.18      0.00
  -20   12   24      3.80      0.00
  -18   12   24     -0.54      0.00
  -10   12   24     -0.89      0.00
   -8   12   24     -8.06      0.00
   -6   12   24      9.52      0.00
   -4   12   24     -0.49      0.00
   -2   12   24      3.96      0.00
  -27   13   24      1.51      0.00
  -25   13   24      3.77      0.00
  -23   13   24      1.19      0.00
  -21   13   24      6.00      0.00
  -19   13   24     -1.25      0.00
  -17   13   24     -3.64      0.00
  -15   13   24     -2.81      0.00
  -13   13   24     -5.63      0.00
  -11   13   24     -1.36      0.00
   -9   13   24     -6.75      0.00
   -7   13   24      2.93      0.00
   -5   13   24      1.47      0.00
   -3   13   24      2.21      0.00
   -1   13   24     -1.07      0.00
  -26   14   24      8.35      0.00
  -24   14   24     -5.91      0.00
  -22   14   24      5.97      0.00
  -20   14   24      2.48      0.00
  -18   14   24      4.61      0.00
  -16   14   24      4.10      0.00
  -14   14   24      1.39      0.00
  -12   14   24      0.85      0.00
  -10   14   24     -0.59      0.00
   -8   14   24     -5.53      0.00
   -6   14   24     11.63      0.00
   -4   14   24     -0.44      0.00
   -2   14   24      3.35      0.00
  -25   15   24      3.16      0.00
  -23   15   24      0.77      0.00
  -21   15   24      9.20      0.00
  -19   15   24     -0.26      0.00
  -17   15   24     -5.27      0.00
  -15   15   24     -2.28      0.00
  -13   15   24     -9.78      0.00
  -11   15   24      1.80      0.00
   -9   15   24     -4.57      0.00
   -7   15   24      1.61      0.00
   -5   15   24      3.17      0.00
   -3   15   24      1.30      0.00
  -26   16   24      5.05      0.00
  -24   16   24     -4.78      0.00
  -22   16   24      3.34      0.00
  -20   16   24     -0.85      0.00
  -18   16   24      3.12      0.00
  -16   16   24      0.12      0.00
  -14   16   24     -0.44      0.00
  -12   16   24      1.79      0.00
  -10   16   24     -0.07      0.00
   -8   16   24     -2.29      0.00
   -6   16   24      9.81      0.00
   -4   16   24     -0.55      0.00
   -2   16   24      3.08      0.00
  -25   17   24      3.04      0.00
  -23   17   24      1.68      0.00
  -21   17   24      6.82      0.00
  -19   17   24      1.37      0.00
  -17   17   24     -3.88      0.00
  -15   17   24     -0.07      0.00
  -13   17   24     -8.13      0.00
  -11   17   24      4.11      0.00
   -9   17   24     -1.90      0.00
   -7   17   24      4.20      0.00
   -5   17   24      2.19      0.00
   -3   17   24     -0.50      0.00
  -24   18   24     -3.07      0.00
  -22   18   24      3.81      0.00
  -20   18   24      2.30      0.00
  -18   18   24      2.93      0.00
  -16   18   24      0.48      0.00
  -14   18   24     -1.34      0.00
  -12   18   24      0.79      0.00
  -10   18   24      5.09      0.00
   -8   18   24      0.34      0.00
   -6   18   24      7.32      0.00
   -4   18   24      0.82      0.00
  -23   19   24     -0.30      0.00
  -21   19   24      0.25      0.00
  -19   19   24     -1.46      0.00
  -17   19   24     -7.13      0.00
  -15   19   24     -3.17      0.00
  -13   19   24    -10.55      0.00
  -11   19   24      2.92      0.00
   -9   19   24     -3.56      0.00
   -7   19   24      5.95      0.00
   -5   19   24     -0.86      0.00
  -22   20   24      3.33      0.00
  -20   20   24      2.22      0.00
  -18   20   24      3.26      0.00
  -16   20   24      0.62      0.00
  -14   20   24      0.34      0.00
  -12   20   24     -0.93      0.00
  -10   20   24      6.49      0.00
   -8   20   24      1.51      0.00
   -6   20   24      5.84      0.00
  -21   21   24     -0.43      0.00
  -19   21   24     -0.19      0.00
  -17   21   24     -4.29      0.00
  -15   21   24     -0.56      0.00
  -13   21   24     -6.29      0.00
  -11   21   24      5.05      0.00
   -9   21   24      0.07      0.00
   -7   21   24      4.84      0.00
  -20   22   24     -1.99      0.00
  -18   22   24     -4.81      0.00
  -16   22   24     -2.44      0.00
  -14   22   24     -3.53      0.00
  -12   22   24     -1.64      0.00
  -10   22   24      1.49      0.00
   -8   22   24      0.34      0.00
  -19   23   24      0.42      0.00
  -17   23   24     -2.19      0.00
  -15   23   24      2.01      0.00
  -13   23   24     -3.61      0.00
  -11   23   24      4.34      0.00
   -9   23   24     -0.29      0.00
  -16   24   24     -1.41      0.00
  -14   24   24      1.23      0.00
  -12   24   24      1.78      0.00
  -28    0   25     -3.08      0.00
  -26    0   25      4.10      0.00
  -24    0   25      0.33      0.00
  -22    0   25     -7.28      0.00
  -20    0   25      1.42      0.00
  -18    0   25     -0.91      0.00
  -10    0   25      5.95      0.00
   -8    0   25    -11.01      0.00
   -6    0   25     -0.16      0.00
   -4    0   25     -2.84      0.00
   -2    0   25      0.59      0.00
  -27    1   25      1.21      0.00
  -25    1   25      3.21      0.00
  -23    1   25     -1.55      0.00
  -21    1   25      0.91      0.00
  -19    1   25     11.47      0.00
  -11    1   25     -3.86      0.00
   -9    1   25     -2.27      0.00
   -7    1   25     -5.98      0.00
   -5    1   25      0.45      0.00
   -3    1   25     -9.96      0.00
   -1    1   25     -1.02      0.00
  -28    2   25     -2.71      0.00
  -26    2   25      7.63      0.00
  -24    2   25     -0.30      0.00
  -22    2   25     -5.24      0.00
  -20    2   25      4.95      0.00
  -18    2   25      2.12      0.00
  -10    2   25      4.93      0.00
   -8    2   25     -8.37      0.00
   -6    2   25      2.10      0.00
   -4    2   25      1.95      0.00
   -2    2   25      5.00      0.00
  -27    3   25     -3.03      0.00
  -25    3   25     -0.10      0.00
  -23    3   25     -0.46      0.00
  -21    3   25     -1.64      0.00
  -19    3   25      5.56      0.00
  -17    3   25     -3.71      0.00
  -11    3   25     -1.05      0.00
   -9    3   25     -4.62      0.00
   -7    3   25     -5.52      0.00
   -5    3   25      2.50      0.00
   -3    3   25     -8.49      0.00
   -1    3   25     -2.79      0.00
  -28    4   25     -3.18      0.00
  -26    4   25      7.24      0.00
  -24    4   25     -0.99      0.00
  -22    4   25     -2.49      0.00
  -20    4   25      8.46      0.00
  -18    4   25      3.54      0.00
  -12    4   25     -8.98      0.00
  -10    4   25      2.08      0.00
   -8    4   25    -10.42      0.00
   -6    4   25      3.84      0.00
   -4    4   25      1.52      0.00
   -2    4   25      4.70      0.00
  -27    5   25     -0.54      0.00
  -25    5   25      3.10      0.00
  -23    5   25      0.67      0.00
  -21    5   25      2.31      0.00
  -19    5   25      5.39      0.00
  -17    5   25     -5.06      0.00
  -15    5   25      6.79      0.00
  -13    5   25     -5.52      0.00
  -11    5   25     -0.40      0.00
   -9    5   25     -2.38      0.00
   -7    5   25     -2.83      0.00
   -5    5   25      8.07      0.00
   -3    5   25      1.87      0.00
  -28    6   25     -1.27      0.00
  -26    6   25      5.03      0.00
  -24    6   25      2.76      0.00
  -22    6   25      1.20      0.00
  -20    6   25      8.73      0.00
  -18    6   25      0.57      0.00
  -16    6   25     -0.48      0.00
  -14    6   25      4.01      0.00
  -12    6   25     -8.21      0.00
  -10    6   25      2.21      0.00
   -8    6   25     -9.58      0.00
   -6    6   25      8.61      0.00
   -4    6   25     -1.00      0.00
   -2    6   25      2.84      0.00
  -27    7   25      1.46      0.00
  -25    7   25      4.99      0.00
  -23    7   25      0.51      0.00
  -21    7   25      4.86      0.00
  -19    7   25      8.41      0.00
  -17    7   25     -5.23      0.00
  -15    7   25      6.52      0.00
  -13    7   25     -8.74      0.00
  -11    7   25     -4.36      0.00
   -9    7   25     -3.44      0.00
   -7    7   25     -6.56      0.00
   -5    7   25      6.71      0.00
   -3    7   25      4.16      0.00
  -26    8   25      8.62      0.00
  -24    8   25      4.18      0.00
  -22    8   25      4.85      0.00
  -20    8   25      9.85      0.00
  -18    8   25     -0.80      0.00
  -16    8   25      0.70      0.00
  -14    8   25      2.92      0.00
  -12    8   25     -4.78      0.00
  -10    8   25      6.34      0.00
   -8    8   25     -4.80      0.00
   -6    8   25     12.15      0.00
   -4    8   25      0.73      0.00
   -2    8   25      1.91      0.00
  -27    9   25      1.40      0.00
  -25    9   25      5.21      0.00
  -23    9   25      1.06      0.00
  -21    9   25      1.40      0.00
  -19    9   25      8.75      0.00
  -17    9   25     -7.08      0.00
  -15    9   25      6.25      0.00
  -13    9   25    -10.97      0.00
  -11    9   25     -4.55      0.00
   -9    9   25     -2.38      0.00
   -7    9   25     -2.01      0.00
   -5    9   25      5.04      0.00
   -3    9   25      4.95      0.00
  -26   10   25      9.88      0.00
  -24   10   25      3.65      0.00
  -22   10   25      6.58      0.00
  -20   10   25      9.86      0.00
  -18   10   25     -0.59      0.00
  -16   10   25     -0.43      0.00
  -14   10   25      1.43      0.00
  -12   10   25     -7.18      0.00
  -10   10   25      6.37      0.00
   -8   10   25     -7.25      0.00
   -6   10   25      6.23      0.00
   -4   10   25     -1.17      0.00
  -25   11   25      5.87      0.00
  -23   11   25      0.03      0.00
  -21   11   25      1.49      0.00
  -19   11   25      6.95      0.00
  -17   11   25     -5.17      0.00
  -15   11   25      6.52      0.00
  -13   11   25     -8.38      0.00
  -11   11   25     -1.33      0.00
   -9   11   25      0.79      0.00
   -7   11   25      4.02      0.00
   -5   11   25      4.70      0.00
   -3   11   25      2.17      0.00
  -26   12   25      6.72      0.00
  -24   12   25      3.23      0.00
  -22   12   25      2.84      0.00
  -20   12   25      6.85      0.00
  -18   12   25     -2.63      0.00
  -16   12   25     -2.88      0.00
  -14   12   25      1.34      0.00
  -12   12   25     -9.83      0.00
  -10   12   25      5.88      0.00
   -8   12   25     -5.54      0.00
   -6   12   25      4.94      0.00
   -4   12   25     -1.21      0.00
  -25   13   25      4.77      0.00
  -23   13   25      3.54      0.00
  -21   13   25      3.69      0.00
  -19   13   25      7.41      0.00
  -17   13   25     -5.65      0.00
  -15   13   25      7.26      0.00
  -13   13   25     -7.04      0.00
  -11   13   25     -2.16      0.00
   -9   13   25     -0.81      0.00
   -7   13   25      2.53      0.00
   -5   13   25      1.03      0.00
  -24   14   25      0.00      0.00
  -22   14   25      1.59      0.00
  -20   14   25      2.16      0.00
  -18   14   25     -0.82      0.00
  -16   14   25     -1.63      0.00
  -14   14   25      3.44      0.00
  -12   14   25     -6.95      0.00
  -10   14   25      4.78      0.00
   -8   14   25     -3.30      0.00
   -6   14   25      6.64      0.00
  -23   15   25      2.24      0.00
  -21   15   25      1.45      0.00
  -19   15   25      6.03      0.00
  -17   15   25    -10.70      0.00
  -15   15   25      8.50      0.00
  -13   15   25     -7.20      0.00
  -11   15   25     -3.45      0.00
   -9   15   25      1.43      0.00
   -7   15   25      3.46      0.00
   -5   15   25      1.20      0.00
  -22   16   25      3.84      0.00
  -20   16   25      0.85      0.00
  -18   16   25     -0.85      0.00
  -16   16   25     -2.01      0.00
  -14   16   25      3.78      0.00
  -12   16   25     -4.20      0.00
  -10   16   25      1.00      0.00
   -8   16   25     -3.87      0.00
   -6   16   25      4.66      0.00
  -23   17   25      0.63      0.00
  -21   17   25     -0.29      0.00
  -19   17   25      5.28      0.00
  -17   17   25     -7.26      0.00
  -15   17   25      8.26      0.00
  -13   17   25     -4.66      0.00
  -11   17   25     -2.04      0.00
   -9   17   25      2.65      0.00
   -7   17   25      4.46      0.00
  -22   18   25      1.93      0.00
  -20   18   25      0.32      0.00
  -18   18   25     -5.92      0.00
  -16   18   25     -6.62      0.00
  -14   18   25      1.56      0.00
  -12   18   25     -5.48      0.00
  -10   18   25      0.55      0.00
   -8   18   25     -0.80      0.00
  -21   19   25     -0.59      0.00
  -19   19   25      5.45      0.00
  -17   19   25     -4.23      0.00
  -15   19   25      7.20      0.00
  -13   19   25     -3.32      0.00
  -11   19   25      2.13      0.00
   -9   19   25     -0.50      0.00
  -18   20   25     -4.04      0.00
  -16   20   25     -7.08      0.00
  -14   20   25      0.74      0.00
  -12   20   25     -5.21      0.00
  -10   20   25      2.21      0.00
  -17   21   25     -5.28      0.00
  -15   21   25      2.32      0.00
  -13   21   25     -2.86      0.00
    0    0    0      0.00      0.00
# SQUEEZE RESULTS (Version =  30715)
# Note: Data are Listed for all Voids in the P1 Unit Cell
# i.e. Centre of Gravity, Solvent Accessible Volume,
# Recovered number of Electrons in the Void and
# Details about the Squeezed Material
loop_
  _platon_squeeze_void_nr
  _platon_squeeze_void_average_x
  _platon_squeeze_void_average_y
  _platon_squeeze_void_average_z
  _platon_squeeze_void_volume
  _platon_squeeze_void_count_electrons
  _platon_squeeze_void_content
   1 -0.067  0.000 -0.043      2058       448 ' '
   2  0.000  0.000  0.500       555        78 ' '
   3 -0.001  0.500  0.494      2058       448 ' '
   4  0.500  0.500  0.500       555        78 ' '
# Missing Reflections Below sin(th)/lambda = 0.25
loop_
  _platon_missing_refln_index_h
  _platon_missing_refln_index_k
  _platon_missing_refln_index_l
  _platon_missing_refln_theta
   -6    8    1    14.108
_platon_squeeze_void_probe_radius                  1.20
_platon_squeeze_details
)
TITL x_a.res in C2/m
CELL   27.2432   36.6460   21.3526     90.00    117.49     90.00
SPGR C2/m
# Solvent Accessible Volume =    5370.4
# Electrons Found in S.A.V. =    1049.7
# Note: Atoms in Void as Cxxx and Qxxx all others
Q101 0.237 0.499 0.039 !       8.15 eA-3
Q102 0.288 0.500 0.148 !       5.61 eA-3
C103 0.500 0.203 0.495 !       4.92 eA-3
C104 0.068 0.499 0.500 !       4.69 eA-3
C105 0.724 0.501 0.492 !       4.17 eA-3
Q106 0.579 0.454 0.206 !       4.07 eA-3
Q107 0.717 0.056 0.221 !       4.02 eA-3
Q108 0.267 0.344 0.397 !       3.88 eA-3
C109 0.189 0.499 0.086 !       3.18 eA-3
C110 0.500 0.062 0.501 !       3.13 eA-3
Q111 0.081 0.187 0.499 !       2.83 eA-3
Q112 0.459 0.501 0.047 !       2.70 eA-3
C113 0.733 0.498 0.133 !       2.69 eA-3
C114 0.509 0.172 0.463 !       2.69 eA-3
Q115 0.257 0.501 0.109 !       2.54 eA-3
C116 0.310 0.502 0.484 !       2.48 eA-3
Q117 0.134 0.133 0.400 !       2.46 eA-3
C118 0.460 0.032 0.499 !       2.41 eA-3
C119 0.517 0.149 0.434 !       2.33 eA-3
C120 0.314 0.469 0.445 !       2.27 eA-3
C121 0.706 0.500 0.055 !       2.14 eA-3
C122 0.191 0.501 0.023 !       1.95 eA-3
Q123 0.762 0.373 0.076 !       1.93 eA-3
Q124 0.781 0.357 0.146 !       1.91 eA-3
C125 0.579 0.452 0.127 !       1.83 eA-3
Q126 0.264 0.181 0.143 !       1.83 eA-3
Q127 0.568 0.440 0.390 !       1.70 eA-3
Q128 0.058 0.052 0.435 !       1.70 eA-3
Q129 0.367 0.498 0.289 !       1.49 eA-3
C130 1.000 0.102-0.001 !       1.48 eA-3
C131 0.038 0.498 0.148 !       1.47 eA-3
C132 0.742 0.499 0.062 !       1.47 eA-3
C133 0.017 0.093 0.019 !       1.42 eA-3
Q134 0.379 0.502 0.242 !       1.39 eA-3
Q135 0.205 0.500 0.242 !       1.38 eA-3
Q136 0.249 0.461 0.162 !       1.28 eA-3
Q137 0.015 0.267 0.067 !       1.27 eA-3
Q138 0.334 0.415 0.407 !       1.26 eA-3
Q139 0.382 0.499 0.023 !       1.25 eA-3
C140 0.668 0.023 0.013 !       1.25 eA-3
C141 0.367 0.077 0.024 !       1.24 eA-3
C142 0.162 0.502 0.000 !       1.24 eA-3
C143 0.671 0.476 0.047 !       1.24 eA-3
Q144 0.111 0.108 0.115 !       1.23 eA-3
Q145 0.227 0.397 0.212 !       1.21 eA-3
C146 0.126 0.582 0.982 !       1.21 eA-3
Q147 0.086 0.094 0.387 !       1.18 eA-3
Q148 0.657 0.500 0.289 !       1.16 eA-3
Q149 0.454 0.499 0.141 !       1.16 eA-3
C150 0.497 0.502 0.047 !       1.15 eA-3
C151 0.012 0.054 0.043 !       1.15 eA-3
C152 0.650 0.023 0.052 !       1.13 eA-3
C153 0.071 0.126 0.068 !       1.10 eA-3
Q154 0.034 0.295 0.066 !       1.10 eA-3
C155 0.747 0.483 0.176 !       1.09 eA-3
C156 0.055 0.053 0.068 !       1.09 eA-3
Q157 0.216 0.236 0.265 !       1.08 eA-3
C158 0.644 0.040 0.025 !       1.06 eA-3
C159 0.623 0.056 0.097 !       1.05 eA-3
C160 0.788 0.500 0.187 !       1.04 eA-3
C161 0.540 0.437 0.035 !       1.02 eA-3
C162 0.815 0.007 0.289 !       1.01 eA-3
C163 1.000 0.062 0.002 !       1.01 eA-3
Q164 0.334 0.063 0.295 !       0.99 eA-3
Q165 0.360 0.390 0.327 !       0.98 eA-3
C166 0.338 0.497 0.305 !       0.97 eA-3
Q167 0.334 0.228 0.031 !       0.97 eA-3
C168 0.650 0.498 0.117 !       0.95 eA-3
C169 0.914 0.022 0.362 !       0.94 eA-3
Q170 0.069 0.064 0.351 !       0.92 eA-3
C171 0.116 0.470 0.049 !       0.91 eA-3
Q172 0.093 0.050 0.369 !       0.89 eA-3
Q173 0.453 0.375 0.396 !       0.88 eA-3
Q174 0.433 0.398 0.296 !       0.87 eA-3
C175 0.320 0.039 0.022 !       0.86 eA-3
C176 0.584 0.100 0.001 !       0.85 eA-3
C177 0.575 0.501 0.047 !       0.85 eA-3
Q178 0.142 0.132 0.168 !       0.83 eA-3
C179 0.037 0.043 0.028 !       0.83 eA-3
C180 0.982 0.025 0.029 !       0.82 eA-3
Q181 0.789 0.107 0.064 !       0.81 eA-3
Q182 0.953 0.467 0.328 !       0.80 eA-3
C183 0.500 0.500 0.000 !       0.80 eA-3
C184 0.283 0.501 0.195 !       0.78 eA-3
C185 0.968 0.500 0.492 !       0.78 eA-3
Q186 0.807 0.063 0.326 !       0.78 eA-3
C187 0.080 0.436 0.132 !       0.77 eA-3
Q188 0.921 0.226 0.412 !       0.77 eA-3
Q189 0.338 0.430 0.376 !       0.77 eA-3
C190 0.822 0.360 0.173 !       0.76 eA-3
Q191 0.679 0.287 0.348 !       0.76 eA-3
C192 0.061 0.024 0.079 !       0.76 eA-3
Q193 0.092 0.179 0.426 !       0.76 eA-3
Q194 0.393 0.280 0.386 !       0.76 eA-3
C195 0.796 0.423 0.231 !       0.75 eA-3
Q196 0.094 0.059 0.479 !       0.75 eA-3
Q197 0.135 0.029 0.460 !       0.74 eA-3
C198 0.142 0.038 0.052 !       0.74 eA-3
Q199 0.120 0.241 0.499 !       0.73 eA-3
)
;
_shelx_fab_checksum              41367
loop_
_space_group_symop_operation_xyz
'x, y, z'
'-x, y, -z'
'x+1/2, y+1/2, z'
'-x+1/2, y+1/2, -z'
'-x, -y, -z'
'x, -y, z'
'-x+1/2, -y+1/2, -z'
'x+1/2, -y+1/2, z'
loop_
_atom_site_label
_atom_site_type_symbol
_atom_site_fract_x
_atom_site_fract_y
_atom_site_fract_z
_atom_site_U_iso_or_equiv
_atom_site_adp_type
_atom_site_occupancy
_atom_site_site_symmetry_order
_atom_site_calc_flag
_atom_site_refinement_flags_posn
_atom_site_refinement_flags_adp
_atom_site_refinement_flags_occupancy
Zn4 Zn 0.40679(4) 0.70744(3) 0.49849(5) 0.0500(3) Uani 1 1 d . . .
Zn5 Zn 0.64741(4) 0.65052(3) 0.40432(5) 0.0554(4) Uani 1 1 d . . .
Zn1 Zn 0.70447(5) 0.63732(3) 0.59724(5) 0.0559(4) Uani 1 1 d . . .
Zn3 Zn 0.42517(5) 0.55087(3) 0.74587(8) 0.0785(5) Uani 1 1 d . . .
Zn2 Zn 0.55504(8) 0.5000 0.84694(17) 0.1138(11) Uani 1 2 d S T P
O1 O 0.5768(2) 0.72349(13) 0.5797(2) 0.0471(11) Uani 1 1 d . . .
O10 O 0.4094(2) 0.67634(13) 0.5762(2) 0.0476(11) Uani 1 1 d . . .
O11 O 0.48576(19) 0.72277(13) 0.5769(2) 0.0450(10) Uani 1 1 d . . .
O9 O 0.4113(2) 0.65253(13) 0.6974(2) 0.0474(11) Uani 1 1 d . . .
O2 O 0.6576(2) 0.68174(14) 0.5809(2) 0.0504(11) Uani 1 1 d . . .
O14 O 0.6926(2) 0.61352(13) 0.3773(3) 0.0494(11) Uani 1 1 d . . .
O8 O 0.4459(2) 0.60292(13) 0.7832(3) 0.0542(12) Uani 1 1 d . . .
O15 O 0.6571(2) 0.56408(13) 0.2899(3) 0.0544(12) Uani 1 1 d . . .
O3 O 0.7459(2) 0.66220(17) 0.6994(3) 0.0610(14) Uani 1 1 d . . .
O13 O 0.6955(3) 0.63170(16) 0.5002(3) 0.0634(15) Uani 1 1 d . . .
O4E O 0.3710(2) 0.75509(15) 0.5102(3) 0.0582(13) Uani 1 1 d . . .
O16 O 0.6039(3) 0.5000 0.2561(4) 0.0562(18) Uani 1 2 d S T P
O7 O 0.5042(2) 0.54125(15) 0.8164(4) 0.0709(17) Uani 1 1 d . . .
O5E O 0.6890(3) 0.69626(17) 0.4001(3) 0.0671(15) Uani 1 1 d D . .
O12 O 0.7783(3) 0.61177(16) 0.6246(3) 0.0696(17) Uani 1 1 d . . .
O6 O 0.6131(3) 0.53920(17) 0.9025(4) 0.0743(17) Uani 1 1 d . . .
O4 O 0.7970(3) 0.6173(2) 0.8031(4) 0.084(2) Uani 1 1 d . . .
H4 H 0.7811 0.6062 0.7644 0.101 Uiso 1 1 calc R U .
C22 C 0.5332(3) 0.71239(18) 0.7675(3) 0.0427(14) Uani 1 1 d . . .
H22 H 0.5624 0.7203 0.8113 0.051 Uiso 1 1 calc R U .
C52 C 0.7747(4) 0.5000 0.3616(5) 0.045(2) Uani 1 2 d S T P
H52 H 0.8140 0.5000 0.3846 0.054 Uiso 1 2 calc R U P
C27 C 0.5315(3) 0.72506(19) 0.7049(4) 0.0459(15) Uani 1 1 d . . .
O17 O 0.8121(4) 0.5648(2) 0.7227(4) 0.094(3) Uani 1 1 d . . .
H17 H 0.7789 0.5690 0.6941 0.113 Uiso 1 1 calc R U .
C23 C 0.4931(3) 0.68828(17) 0.7680(3) 0.0424(14) Uani 1 1 d . . .
C19 C 0.5011(3) 0.6056(2) 0.8283(4) 0.0527(17) Uani 1 1 d . . .
C55 C 0.6606(4) 0.5000 0.2903(6) 0.051(2) Uani 1 2 d S T P
C49 C 0.7374(3) 0.60175(18) 0.4380(4) 0.0452(14) Uani 1 1 d . . .
C24 C 0.4527(3) 0.67597(18) 0.7028(4) 0.0422(13) Uani 1 1 d . . .
C51 C 0.7775(3) 0.56992(19) 0.3683(4) 0.0470(15) Uani 1 1 d . . .
H51 H 0.7541 0.5885 0.3327 0.056 Uiso 1 1 calc R U .
C3 C 0.6191(3) 0.7160(2) 0.6427(4) 0.0477(15) Uani 1 1 d . . .
C26 C 0.4911(3) 0.71207(18) 0.6430(3) 0.0426(14) Uani 1 1 d . . .
C48 C 0.7385(4) 0.6119(2) 0.5011(4) 0.061(2) Uani 1 1 d . . .
C4 C 0.6616(3) 0.6939(2) 0.6438(3) 0.0480(15) Uani 1 1 d . . .
C6 C 0.7116(3) 0.6956(2) 0.7715(4) 0.0495(16) Uani 1 1 d . . .
C25 C 0.4505(3) 0.68820(18) 0.6398(3) 0.0441(14) Uani 1 1 d . . .
C7 C 0.7609(3) 0.6836(2) 0.8391(4) 0.0526(17) Uani 1 1 d . . .
H7 H 0.7923 0.6804 0.8277 0.063 Uiso 1 1 calc R U .
C45 C 0.8231(3) 0.5711(2) 0.5027(4) 0.0508(16) Uani 1 1 d . . .
H45 H 0.8526 0.5570 0.5034 0.061 Uiso 1 1 calc R U .
C53 C 0.7468(3) 0.53338(18) 0.3453(3) 0.0428(14) Uani 1 1 d . . .
C50 C 0.7803(3) 0.58115(19) 0.4384(4) 0.0468(15) Uani 1 1 d . . .
C54 C 0.6889(3) 0.53316(19) 0.3090(4) 0.0479(15) Uani 1 1 d . . .
C2 C 0.6238(3) 0.7284(2) 0.7069(4) 0.0465(15) Uani 1 1 d . . .
C46 C 0.8248(3) 0.5809(2) 0.5674(4) 0.0560(18) Uani 1 1 d . . .
C37 C 0.5130(4) 0.7026(2) 0.8949(4) 0.0557(17) Uani 1 1 d . . .
H37A H 0.5107 0.6913 0.9356 0.067 Uiso 1 1 calc R U .
H37B H 0.5522 0.7091 0.9105 0.067 Uiso 1 1 calc R U .
C1 C 0.6692(3) 0.7179(2) 0.7695(3) 0.0482(15) Uani 1 1 d . . .
H1 H 0.6715 0.7262 0.8129 0.058 Uiso 1 1 calc R U .
O5 O 0.7105(4) 0.5421(2) 0.9097(6) 0.106(3) Uani 1 1 d . . .
H5 H 0.7284 0.5378 0.9531 0.128 Uiso 1 1 calc R U .
C28 C 0.5756(3) 0.7507(2) 0.7063(4) 0.0489(15) Uani 1 1 d . . .
H28 H 0.5585 0.7644 0.6607 0.059 Uiso 1 1 calc R U .
C56 C 0.8699(5) 0.5000 0.6429(5) 0.057(3) Uani 1 2 d S T P
H56 H 0.8891 0.5000 0.6152 0.068 Uiso 1 2 calc R U P
C20 C 0.5282(3) 0.6387(2) 0.8574(4) 0.0491(16) Uani 1 1 d . . .
C8 C 0.7209(3) 0.6416(2) 0.9006(4) 0.0520(16) Uani 1 1 d . . .
H8 H 0.7091 0.6629 0.9154 0.062 Uiso 1 1 calc R U .
C21 C 0.4954(3) 0.6739(2) 0.8354(4) 0.0483(15) Uani 1 1 d . . .
H21 H 0.4565 0.6671 0.8233 0.058 Uiso 1 1 calc R U .
C18 C 0.5310(3) 0.5732(2) 0.8453(5) 0.062(2) Uani 1 1 d . . .
C59 C 0.8572(4) 0.5334(2) 0.6613(4) 0.063(2) Uani 1 1 d . . .
C5 C 0.7067(3) 0.6842(2) 0.7072(4) 0.0524(17) Uani 1 1 d . . .
C15 C 0.5849(3) 0.6375(2) 0.9003(4) 0.0519(17) Uani 1 1 d . . .
H15 H 0.6040 0.6598 0.9186 0.062 Uiso 1 1 calc R U .
C47 C 0.7813(4) 0.6012(2) 0.5664(4) 0.0574(18) Uani 1 1 d . . .
C29 C 0.7794(4) 0.7127(2) 0.8975(4) 0.0606(19) Uani 1 1 d . . .
H29A H 0.7854 0.7361 0.8787 0.073 Uiso 1 1 calc R U .
H29B H 0.7493 0.7166 0.9106 0.073 Uiso 1 1 calc R U .
C13 C 0.7087(3) 0.6078(3) 0.9194(4) 0.062(2) Uani 1 1 d . . .
C9 C 0.7496(3) 0.6459(2) 0.8611(4) 0.0567(18) Uani 1 1 d . . .
C60 C 0.8717(3) 0.5689(2) 0.6380(4) 0.0589(19) Uani 1 1 d . . .
H60 H 0.8744 0.5876 0.6734 0.071 Uiso 1 1 calc R U .
C16 C 0.6152(3) 0.6056(2) 0.9178(4) 0.0535(17) Uani 1 1 d . . .
C41 C 0.5946(4) 0.7794(2) 0.7655(4) 0.0599(19) Uani 1 1 d . . .
H41A H 0.6099 0.7667 0.8117 0.072 Uiso 1 1 calc R U .
H41B H 0.6246 0.7942 0.7646 0.072 Uiso 1 1 calc R U .
C17 C 0.5876(3) 0.5730(2) 0.8886(5) 0.062(2) Uani 1 1 d . . .
C14 C 0.6777(3) 0.6054(2) 0.9650(4) 0.0593(19) Uani 1 1 d . . .
H14 H 0.6867 0.5808 0.9878 0.071 Uiso 1 1 calc R U .
N1S N 0.3683(4) 0.8026(2) 0.5722(5) 0.079(2) Uani 1 1 d . . .
C61 C 0.8335(3) 0.5696(2) 0.3676(5) 0.0610(19) Uani 1 1 d . . .
H61A H 0.8278 0.5620 0.3202 0.073 Uiso 1 1 calc R U .
H61B H 0.8577 0.5512 0.4021 0.073 Uiso 1 1 calc R U .
C10 C 0.7655(4) 0.6136(3) 0.8399(4) 0.071(2) Uani 1 1 d . . .
C11 C 0.7515(5) 0.5791(3) 0.8553(6) 0.089(3) Uani 1 1 d . . .
H11 H 0.7609 0.5576 0.8383 0.107 Uiso 1 1 calc R U .
C38 C 0.4789(5) 0.7374(3) 0.8751(6) 0.079(3) Uani 1 1 d . . .
H38A H 0.4911 0.7520 0.9187 0.095 Uiso 1 1 calc R U .
H38B H 0.4892 0.7513 0.8432 0.095 Uiso 1 1 calc R U .
C33 C 0.6982(4) 0.6329(3) 1.0252(4) 0.070(2) Uani 1 1 d . . .
H33A H 0.7391 0.6318 1.0508 0.083 Uiso 1 1 calc R U .
H33B H 0.6878 0.6577 1.0049 0.083 Uiso 1 1 calc R U .
C58 C 0.8299(4) 0.5326(2) 0.7019(4) 0.069(2) Uani 1 1 d . . .
O1I O 0.6545(4) 0.6055(2) 0.6223(5) 0.097(2) Uani 1 1 d . . .
C57 C 0.8160(7) 0.5000 0.7230(7) 0.075(4) Uani 1 2 d S T P
H57 H 0.7975 0.5000 0.7513 0.091 Uiso 1 2 calc R U P
C12 C 0.7241(5) 0.5769(3) 0.8955(6) 0.082(3) Uani 1 1 d . . .
C1S C 0.3836(4) 0.7704(3) 0.5658(5) 0.076(3) Uani 1 1 d . . .
C30 C 0.8320(4) 0.7026(3) 0.9634(5) 0.071(2) Uani 1 1 d . . .
H30A H 0.8579 0.6903 0.9496 0.086 Uiso 1 1 calc R U .
H30B H 0.8230 0.6854 0.9923 0.086 Uiso 1 1 calc R U .
C65 C 0.9278(4) 0.5686(3) 0.6377(5) 0.080(3) Uani 1 1 d . . .
H65A H 0.9332 0.5925 0.6201 0.097 Uiso 1 1 calc R U .
H65B H 0.9271 0.5496 0.6043 0.097 Uiso 1 1 calc R U .
C8S C 0.5869(6) 0.6276(4) 0.7315(7) 0.100(4) Uani 1 1 d . . .
H8S1 H 0.5480 0.6269 0.7213 0.150 Uiso 1 1 calc R U .
H8S2 H 0.6084 0.6110 0.7708 0.150 Uiso 1 1 calc R U .
H8S3 H 0.6012 0.6525 0.7444 0.150 Uiso 1 1 calc R U .
C42 C 0.5488(5) 0.8043(3) 0.7592(6) 0.084(3) Uani 1 1 d . . .
H42A H 0.5344 0.8175 0.7136 0.100 Uiso 1 1 calc R U .
H42B H 0.5182 0.7894 0.7583 0.100 Uiso 1 1 calc R U .
C32 C 0.8280(5) 0.7572(3) 1.0330(6) 0.088(3) Uani 1 1 d . . .
H32A H 0.8492 0.7783 1.0604 0.132 Uiso 1 1 calc R U .
H32B H 0.7939 0.7657 0.9927 0.132 Uiso 1 1 calc R U .
H32C H 0.8186 0.7415 1.0630 0.132 Uiso 1 1 calc R U .
O2I O 0.5745(7) 0.5000 0.7597(12) 0.160(7) Uani 1 2 d S T P
C66 C 0.9777(5) 0.5613(4) 0.7108(7) 0.106(4) Uani 1 1 d . . .
H66A H 0.9740 0.5368 0.7278 0.127 Uiso 1 1 calc R U .
H66B H 0.9783 0.5796 0.7451 0.127 Uiso 1 1 calc R U .
C62 C 0.8637(5) 0.6075(3) 0.3861(6) 0.083(3) Uani 1 1 d . . .
H62A H 0.8754 0.6130 0.4364 0.100 Uiso 1 1 calc R U .
H62B H 0.8974 0.6058 0.3799 0.100 Uiso 1 1 calc R U .
C31 C 0.8604(5) 0.7370(4) 1.0080(6) 0.093(3) Uani 1 1 d . . .
H31A H 0.8951 0.7294 1.0492 0.112 Uiso 1 1 calc R U .
H31B H 0.8705 0.7535 0.9790 0.112 Uiso 1 1 calc R U .
C5S C 0.7379(5) 0.7601(3) 0.3866(7) 0.098(4) Uani 1 1 d D . .
H5S1 H 0.7543 0.7790 0.3695 0.147 Uiso 1 1 calc R U .
H5S2 H 0.7030 0.7691 0.3836 0.147 Uiso 1 1 calc R U .
H5S3 H 0.7636 0.7543 0.4358 0.147 Uiso 1 1 calc R U .
C2S C 0.3841(7) 0.8207(4) 0.6396(7) 0.118(5) Uani 1 1 d . . .
H2S1 H 0.3675 0.8451 0.6311 0.177 Uiso 1 1 calc R U .
H2S2 H 0.3710 0.8064 0.6677 0.177 Uiso 1 1 calc R U .
H2S3 H 0.4245 0.8229 0.6653 0.177 Uiso 1 1 calc R U .
N2S N 0.7275(8) 0.7280(3) 0.3440(7) 0.161(8) Uani 1 1 d D . .
O3I O 0.4335(9) 0.5525(6) 0.6439(11) 0.245(11) Uani 1 1 d . . .
N3S N 0.5917(6) 0.6160(6) 0.6683(9) 0.152(6) Uani 1 1 d . . .
C4S C 0.7049(8) 0.6976(4) 0.3561(8) 0.145(8) Uani 1 1 d D . .
C63 C 0.8299(7) 0.6376(4) 0.3434(7) 0.120(6) Uani 1 1 d . . .
H63A H 0.7972 0.6406 0.3516 0.144 Uiso 1 1 calc R U .
H63B H 0.8166 0.6319 0.2928 0.144 Uiso 1 1 calc R U .
C34 C 0.6760(6) 0.6272(5) 1.0775(7) 0.115(5) Uani 1 1 d . . .
H34A H 0.6351 0.6276 1.0508 0.137 Uiso 1 1 calc R U .
H34B H 0.6867 0.6023 1.0971 0.137 Uiso 1 1 calc R U .
C43 C 0.5654(8) 0.8312(4) 0.8164(10) 0.123(5) Uani 1 1 d . . .
H43A H 0.5864 0.8508 0.8075 0.147 Uiso 1 1 calc R U .
H43B H 0.5910 0.8191 0.8611 0.147 Uiso 1 1 calc R U .
C3S C 0.3294(10) 0.8235(4) 0.5144(8) 0.174(11) Uani 1 1 d . . .
H3S1 H 0.3240 0.8472 0.5317 0.261 Uiso 1 1 calc R U .
H3S2 H 0.3434 0.8273 0.4800 0.261 Uiso 1 1 calc R U .
H3S3 H 0.2940 0.8105 0.4918 0.261 Uiso 1 1 calc R U .
C39 C 0.4199(9) 0.7357(5) 0.8423(16) 0.172(10) Uani 1 1 d . . .
H39A H 0.4081 0.7237 0.7960 0.206 Uiso 1 1 calc R U .
H39B H 0.4104 0.7187 0.8711 0.206 Uiso 1 1 calc R U .
C67 C 1.0331(7) 0.5634(7) 0.7055(11) 0.159(8) Uani 1 1 d . . .
H67A H 1.0322 0.5467 0.6685 0.191 Uiso 1 1 calc R U .
H67B H 1.0400 0.5885 0.6946 0.191 Uiso 1 1 calc R U .
C9S C 0.5417(16) 0.6225(11) 0.5995(19) 0.250 Uiso 1 1 d . U .
H9S1 H 0.5087 0.6224 0.6066 0.375 Uiso 1 1 calc R U .
H9S2 H 0.5450 0.6463 0.5807 0.375 Uiso 1 1 calc R U .
H9S3 H 0.5387 0.6033 0.5661 0.375 Uiso 1 1 calc R U .
C64 C 0.8631(9) 0.6736(5) 0.3615(11) 0.159(9) Uani 1 1 d . . .
H64A H 0.8393 0.6933 0.3320 0.239 Uiso 1 1 calc R U .
H64B H 0.8758 0.6795 0.4113 0.239 Uiso 1 1 calc R U .
H64C H 0.8951 0.6709 0.3526 0.239 Uiso 1 1 calc R U .
C36 C 0.6637(8) 0.6465(7) 1.1882(11) 0.154(8) Uani 1 1 d . . .
H36A H 0.6784 0.6650 1.2254 0.231 Uiso 1 1 calc R U .
H36B H 0.6235 0.6493 1.1611 0.231 Uiso 1 1 calc R U .
H36C H 0.6723 0.6221 1.2096 0.231 Uiso 1 1 calc R U .
C44 C 0.5146(17) 0.8505(10) 0.828(2) 0.250 Uiso 1 1 d . U .
H44A H 0.5304 0.8678 0.8670 0.375 Uiso 1 1 calc R U .
H44B H 0.4895 0.8634 0.7844 0.375 Uiso 1 1 calc R U .
H44C H 0.4941 0.8316 0.8382 0.375 Uiso 1 1 calc R U .
C35 C 0.6918(18) 0.6515(10) 1.1354(12) 0.32(3) Uani 1 1 d . . .
H35A H 0.6838 0.6766 1.1162 0.386 Uiso 1 1 calc R U .
H35B H 0.7324 0.6496 1.1644 0.386 Uiso 1 1 calc R U .
C7S C 0.640(2) 0.6151(12) 0.672(2) 0.250 Uiso 1 1 d . U .
C40 C 0.3854(17) 0.7662(10) 0.829(2) 0.250 Uiso 1 1 d . U .
H40A H 0.3467 0.7584 0.8066 0.375 Uiso 1 1 calc R U .
H40B H 0.3939 0.7783 0.8743 0.375 Uiso 1 1 calc R U .
H40C H 0.3916 0.7833 0.7986 0.375 Uiso 1 1 calc R U .
C6S C 0.7494(15) 0.7286(9) 0.2929(16) 0.250 Uiso 1 1 d D U .
H6S1 H 0.7638 0.7529 0.2919 0.375 Uiso 1 1 calc R U .
H6S2 H 0.7793 0.7106 0.3066 0.375 Uiso 1 1 calc R U .
H6S3 H 0.7197 0.7225 0.2459 0.375 Uiso 1 1 calc R U .
C68 C 1.0773(17) 0.5516(10) 0.778(2) 0.250 Uiso 1 1 d . U .
H68A H 1.1137 0.5521 0.7794 0.375 Uiso 1 1 calc R U .
H68B H 1.0773 0.5683 0.8141 0.375 Uiso 1 1 calc R U .
H68C H 1.0694 0.5267 0.7881 0.375 Uiso 1 1 calc R U .
O2E O 0.5493(15) 0.5000 0.9476(18) 0.250 Uiso 1 2 d S U P
loop_
_atom_site_aniso_label
_atom_site_aniso_U_11
_atom_site_aniso_U_22
_atom_site_aniso_U_33
_atom_site_aniso_U_23
_atom_site_aniso_U_13
_atom_site_aniso_U_12
Zn4 0.0498(6) 0.0589(6) 0.0362(5) 0.0035(4) 0.0157(4) -0.0018(4)
Zn5 0.0514(6) 0.0635(7) 0.0433(6) -0.0019(4) 0.0151(5) 0.0072(4)
Zn1 0.0638(7) 0.0557(6) 0.0445(6) -0.0014(4) 0.0218(5) 0.0015(4)
Zn3 0.0494(7) 0.0495(7) 0.1026(10) -0.0008(6) 0.0062(6) -0.0033(4)
Zn2 0.0515(10) 0.0503(10) 0.177(3) 0.000 -0.0009(12) 0.000
O1 0.049(2) 0.053(3) 0.036(2) -0.0036(19) 0.017(2) 0.001(2)
O10 0.049(2) 0.049(3) 0.035(2) 0.0007(18) 0.010(2) -0.003(2)
O11 0.043(2) 0.057(3) 0.030(2) 0.0023(18) 0.0129(18) 0.001(2)
O9 0.047(2) 0.047(3) 0.039(2) 0.0036(18) 0.012(2) -0.0063(19)
O2 0.047(2) 0.063(3) 0.033(2) 0.000(2) 0.011(2) 0.007(2)
O14 0.055(3) 0.045(2) 0.046(3) 0.0044(19) 0.021(2) 0.005(2)
O8 0.043(2) 0.045(3) 0.056(3) 0.004(2) 0.008(2) -0.004(2)
O15 0.049(3) 0.045(3) 0.052(3) 0.001(2) 0.008(2) -0.004(2)
O3 0.053(3) 0.082(4) 0.041(3) -0.008(2) 0.016(2) 0.012(3)
O13 0.079(4) 0.065(3) 0.043(3) 0.008(2) 0.026(3) 0.028(3)
O4E 0.061(3) 0.058(3) 0.055(3) 0.003(2) 0.025(3) 0.011(2)
O16 0.041(3) 0.043(4) 0.069(5) 0.000 0.012(3) 0.000
O7 0.054(3) 0.044(3) 0.082(4) 0.000(3) 0.004(3) -0.004(2)
O5E 0.063(3) 0.064(3) 0.066(4) 0.000(3) 0.023(3) -0.015(3)
O12 0.096(4) 0.061(3) 0.037(3) -0.002(2) 0.019(3) 0.021(3)
O6 0.054(3) 0.058(3) 0.086(4) 0.001(3) 0.011(3) -0.001(3)
O4 0.101(5) 0.096(5) 0.060(4) 0.012(3) 0.040(4) 0.037(4)
C22 0.045(3) 0.047(3) 0.034(3) -0.006(3) 0.017(3) -0.003(3)
C52 0.046(5) 0.056(5) 0.038(5) 0.000 0.023(4) 0.000
C27 0.049(4) 0.046(3) 0.041(3) -0.003(3) 0.019(3) 0.004(3)
O17 0.140(7) 0.077(4) 0.052(4) -0.006(3) 0.032(4) 0.023(4)
C23 0.052(4) 0.036(3) 0.039(3) -0.003(2) 0.021(3) 0.001(3)
C19 0.055(4) 0.047(4) 0.047(4) 0.005(3) 0.015(3) -0.008(3)
C55 0.050(5) 0.039(5) 0.050(5) 0.000 0.012(4) 0.000
C49 0.049(4) 0.043(3) 0.041(3) -0.004(3) 0.019(3) -0.005(3)
C24 0.042(3) 0.043(3) 0.042(3) 0.002(3) 0.020(3) 0.002(3)
C51 0.047(4) 0.048(4) 0.048(4) 0.001(3) 0.024(3) -0.001(3)
C3 0.044(3) 0.054(4) 0.037(3) -0.005(3) 0.012(3) -0.008(3)
C26 0.047(3) 0.042(3) 0.038(3) 0.001(2) 0.019(3) 0.003(3)
C48 0.071(5) 0.052(4) 0.047(4) 0.003(3) 0.017(4) 0.011(4)
C4 0.044(3) 0.066(4) 0.034(3) -0.003(3) 0.019(3) 0.001(3)
C6 0.040(3) 0.064(4) 0.039(3) -0.005(3) 0.013(3) -0.007(3)
C25 0.044(3) 0.044(3) 0.036(3) -0.003(3) 0.011(3) 0.003(3)
C7 0.044(3) 0.069(5) 0.037(3) -0.009(3) 0.012(3) -0.004(3)
C45 0.047(4) 0.049(4) 0.047(4) -0.004(3) 0.014(3) -0.005(3)
C53 0.044(3) 0.047(4) 0.038(3) 0.000(3) 0.020(3) 0.001(3)
C50 0.044(3) 0.046(3) 0.046(4) 0.007(3) 0.018(3) -0.007(3)
C54 0.042(3) 0.052(4) 0.044(4) 0.000(3) 0.015(3) -0.003(3)
C2 0.042(3) 0.056(4) 0.038(3) -0.013(3) 0.016(3) -0.008(3)
C46 0.062(4) 0.047(4) 0.042(4) -0.007(3) 0.010(3) -0.009(3)
C37 0.069(5) 0.054(4) 0.049(4) -0.007(3) 0.031(4) -0.006(3)
C1 0.044(3) 0.062(4) 0.034(3) -0.011(3) 0.015(3) -0.010(3)
O5 0.103(6) 0.068(4) 0.133(8) 0.015(4) 0.041(6) 0.016(4)
C28 0.054(4) 0.044(3) 0.044(4) 0.001(3) 0.019(3) -0.003(3)
C56 0.062(6) 0.066(7) 0.030(5) 0.000 0.010(4) 0.000
C20 0.056(4) 0.054(4) 0.035(3) 0.003(3) 0.019(3) -0.006(3)
C8 0.050(4) 0.052(4) 0.041(4) 0.001(3) 0.010(3) 0.000(3)
C21 0.051(4) 0.053(4) 0.040(3) -0.004(3) 0.021(3) -0.001(3)
C18 0.048(4) 0.053(4) 0.065(5) -0.002(3) 0.009(4) -0.007(3)
C59 0.077(5) 0.057(4) 0.029(3) -0.007(3) 0.003(3) -0.006(4)
C5 0.041(3) 0.068(4) 0.041(4) -0.010(3) 0.013(3) -0.002(3)
C15 0.051(4) 0.053(4) 0.039(3) -0.004(3) 0.010(3) -0.012(3)
C47 0.072(5) 0.044(4) 0.048(4) -0.004(3) 0.021(4) 0.001(3)
C29 0.058(4) 0.068(5) 0.049(4) -0.016(4) 0.019(4) -0.016(4)
C13 0.045(4) 0.080(6) 0.043(4) -0.001(4) 0.005(3) 0.002(4)
C9 0.040(3) 0.075(5) 0.042(4) -0.007(3) 0.007(3) 0.001(3)
C60 0.053(4) 0.063(5) 0.040(4) -0.009(3) 0.004(3) -0.001(3)
C16 0.052(4) 0.053(4) 0.051(4) 0.009(3) 0.019(3) 0.000(3)
C41 0.075(5) 0.052(4) 0.058(4) -0.017(3) 0.034(4) -0.015(4)
C17 0.045(4) 0.054(4) 0.063(5) 0.014(3) 0.005(3) 0.000(3)
C14 0.051(4) 0.058(4) 0.057(4) 0.012(3) 0.015(3) -0.005(3)
N1S 0.079(5) 0.061(4) 0.076(5) 0.000(4) 0.018(4) 0.017(4)
C61 0.058(4) 0.071(5) 0.057(5) 0.001(4) 0.029(4) -0.011(4)
C10 0.087(6) 0.076(6) 0.047(4) 0.008(4) 0.027(4) 0.021(5)
C11 0.110(8) 0.082(7) 0.073(6) 0.004(5) 0.039(6) 0.041(6)
C38 0.100(7) 0.076(6) 0.073(6) -0.011(5) 0.049(6) 0.006(5)
C33 0.056(4) 0.100(7) 0.043(4) 0.006(4) 0.015(4) -0.014(4)
C58 0.084(6) 0.062(5) 0.038(4) -0.004(3) 0.010(4) 0.008(4)
O1I 0.115(6) 0.082(5) 0.107(6) 0.000(4) 0.062(5) -0.019(4)
C57 0.091(9) 0.076(8) 0.047(6) 0.000 0.021(6) 0.000
C12 0.085(6) 0.069(6) 0.076(6) 0.019(5) 0.024(5) 0.016(5)
C1S 0.068(5) 0.083(6) 0.065(6) -0.004(5) 0.020(4) 0.019(5)
C30 0.061(5) 0.094(7) 0.051(5) -0.011(4) 0.020(4) -0.012(4)
C65 0.062(5) 0.072(6) 0.066(6) 0.009(4) -0.006(4) -0.014(4)
C8S 0.118(10) 0.106(9) 0.093(8) -0.011(7) 0.063(8) 0.015(7)
C42 0.108(8) 0.059(5) 0.072(6) -0.006(4) 0.032(6) 0.015(5)
C32 0.088(7) 0.086(7) 0.067(6) -0.035(5) 0.017(5) -0.022(5)
O2I 0.090(10) 0.189(18) 0.22(2) 0.000 0.090(12) 0.000
C66 0.080(7) 0.092(8) 0.082(7) 0.008(6) -0.017(6) -0.003(6)
C62 0.086(7) 0.086(7) 0.076(6) 0.001(5) 0.035(5) -0.019(5)
C31 0.073(6) 0.107(8) 0.067(6) -0.016(6) 0.005(5) -0.019(6)
C5S 0.079(7) 0.109(9) 0.096(8) -0.016(7) 0.033(6) -0.016(6)
C2S 0.119(11) 0.104(9) 0.086(8) -0.014(7) 0.009(8) 0.036(8)
N2S 0.28(2) 0.123(10) 0.140(11) -0.053(9) 0.150(14) -0.104(13)
O3I 0.191(18) 0.22(2) 0.207(18) 0.006(15) -0.007(15) 0.046(15)
N3S 0.096(9) 0.210(17) 0.121(11) -0.038(11) 0.026(8) -0.003(10)
C4S 0.22(2) 0.121(12) 0.157(15) -0.065(11) 0.140(16) -0.087(13)
C63 0.119(10) 0.133(12) 0.079(8) 0.028(7) 0.020(7) -0.053(9)
C34 0.097(9) 0.166(14) 0.075(8) 0.015(8) 0.035(7) -0.012(9)
C43 0.139(13) 0.087(8) 0.138(13) -0.033(8) 0.060(11) 0.001(8)
C3S 0.26(2) 0.066(7) 0.090(9) -0.011(6) -0.007(12) 0.063(11)
C39 0.128(14) 0.107(12) 0.28(3) -0.037(15) 0.089(17) 0.013(11)
C67 0.086(10) 0.181(18) 0.137(15) -0.015(13) -0.011(10) -0.002(11)
C64 0.165(16) 0.156(16) 0.161(16) 0.038(13) 0.079(14) -0.073(14)
C36 0.127(14) 0.22(2) 0.126(14) -0.004(14) 0.071(12) -0.033(14)
C35 0.48(6) 0.37(5) 0.099(14) -0.05(2) 0.12(3) -0.31(5)
loop_
_atom_type_symbol
_atom_type_description
_atom_type_scat_dispersion_real
_atom_type_scat_dispersion_imag
_atom_type_scat_source
C C 0.0181 0.0091 'International Tables Vol C Tables 4.2.6.8 and 6.1.1.4'
H H 0.0000 0.0000 'International Tables Vol C Tables 4.2.6.8 and 6.1.1.4'
N N 0.0311 0.0180 'International Tables Vol C Tables 4.2.6.8 and 6.1.1.4'
O O 0.0492 0.0322 'International Tables Vol C Tables 4.2.6.8 and 6.1.1.4'
Zn Zn -1.5491 0.6778 'International Tables Vol C Tables 4.2.6.8 and 6.1.1.4'
loop_
_geom_angle_atom_site_label_1
_geom_angle_atom_site_label_2
_geom_angle_atom_site_label_3
_geom_angle
_geom_angle_site_symmetry_1
_geom_angle_site_symmetry_3
O10 Zn4 O1 158.1(2) . 2_656
O10 Zn4 O2 96.7(2) . 2_656
O1 Zn4 O2 83.0(2) 2_656 2_656
O10 Zn4 O4E 102.7(2) . .
O1 Zn4 O4E 98.7(2) 2_656 .
O2 Zn4 O4E 102.7(2) 2_656 .
O10 Zn4 O11 81.87(18) . .
O1 Zn4 O11 92.63(19) 2_656 .
O2 Zn4 O11 164.7(2) 2_656 .
O4E Zn4 O11 92.5(2) . .
O13 Zn5 O10 98.9(2) . 2_656
O13 Zn5 O9 160.8(2) . 2_656
O10 Zn5 O9 84.34(19) 2_656 2_656
O13 Zn5 O5E 102.5(3) . .
O10 Zn5 O5E 96.8(2) 2_656 .
O9 Zn5 O5E 95.9(2) 2_656 .
O13 Zn5 O14 82.3(2) . .
O10 Zn5 O14 166.2(2) 2_656 .
O9 Zn5 O14 90.15(19) 2_656 .
O5E Zn5 O14 96.3(2) . .
O13 Zn1 O2 98.2(2) . .
O13 Zn1 O1I 116.1(3) . .
O2 Zn1 O1I 93.5(3) . .
O13 Zn1 O12 83.2(2) . .
O2 Zn1 O12 152.7(3) . .
O1I Zn1 O12 110.5(3) . .
O13 Zn1 O3 149.5(3) . .
O2 Zn1 O3 79.9(2) . .
O1I Zn1 O3 94.4(3) . .
O12 Zn1 O3 85.3(2) . .
O7 Zn3 O16 97.4(3) . 5_666
O7 Zn3 O8 82.2(2) . .
O16 Zn3 O8 154.9(3) 5_666 .
O7 Zn3 O15 157.5(3) . 2_656
O16 Zn3 O15 82.0(2) 5_666 2_656
O8 Zn3 O15 89.0(2) . 2_656
O7 Zn3 O3I 100.1(6) . .
O16 Zn3 O3I 102.4(6) 5_666 .
O8 Zn3 O3I 102.4(6) . .
O15 Zn3 O3I 102.1(5) 2_656 .
O7 Zn2 O7 101.8(3) . 6_565
O7 Zn2 O6 83.7(2) . .
O7 Zn2 O6 166.5(4) 6_565 .
O7 Zn2 O6 166.5(4) . 6_565
O7 Zn2 O6 83.7(2) 6_565 6_565
O6 Zn2 O6 88.4(4) . 6_565
O7 Zn2 O2I 97.5(4) . .
O7 Zn2 O2I 97.5(4) 6_565 .
O6 Zn2 O2I 93.9(4) . .
O6 Zn2 O2I 93.9(4) 6_565 .
O7 Zn2 O2E 88.1(7) . .
O7 Zn2 O2E 88.1(7) 6_565 .
O6 Zn2 O2E 79.7(7) . .
O6 Zn2 O2E 79.7(7) 6_565 .
O2I Zn2 O2E 171.0(11) . .
C3 O1 Zn4 111.1(4) . 2_656
C25 O10 Zn4 110.1(4) . .
C25 O10 Zn5 107.4(4) . 2_656
Zn4 O10 Zn5 135.0(2) . 2_656
C26 O11 Zn4 108.6(4) . .
C24 O9 Zn5 108.9(4) . 2_656
C4 O2 Zn1 109.8(4) . .
C4 O2 Zn4 108.4(4) . 2_656
Zn1 O2 Zn4 139.7(3) . 2_656
C49 O14 Zn5 108.9(4) . .
C19 O8 Zn3 111.0(4) . .
C54 O15 Zn3 110.3(4) . 2_656
C5 O3 Zn1 107.0(4) . .
C48 O13 Zn5 110.6(5) . .
C48 O13 Zn1 110.4(5) . .
Zn5 O13 Zn1 138.6(3) . .
C1S O4E Zn4 125.0(6) . .
C55 O16 Zn3 110.2(2) . 5_666
C55 O16 Zn3 110.2(2) . 2_656
Zn3 O16 Zn3 134.9(4) 5_666 2_656
C18 O7 Zn2 111.4(5) . .
C18 O7 Zn3 110.6(5) . .
Zn2 O7 Zn3 137.5(3) . .
C4S O5E Zn5 118.3(7) . .
C47 O12 Zn1 109.9(5) . .
C17 O6 Zn2 108.9(5) . .
C10 O4 H4 109.5 . .
C27 C22 C23 122.2(6) . .
C27 C22 H22 118.9 . .
C23 C22 H22 118.9 . .
C53 C52 C53 122.2(9) 6_565 .
C53 C52 H52 118.9 6_565 .
C53 C52 H52 118.9 . .
C26 C27 C22 118.1(7) . .
C26 C27 C28 121.0(6) . .
C22 C27 C28 120.8(6) . .
C58 O17 H17 109.5 . .
C24 C23 C22 117.0(6) . .
C24 C23 C21 120.4(6) . .
C22 C23 C21 122.5(6) . .
O8 C19 C18 116.4(6) . .
O8 C19 C20 123.8(7) . .
C18 C19 C20 119.8(7) . .
O16 C55 C54 119.5(5) . 6_565
O16 C55 C54 119.4(5) . .
C54 C55 C54 121.0(10) 6_565 .
O14 C49 C48 116.4(6) . .
O14 C49 C50 123.6(6) . .
C48 C49 C50 120.0(7) . .
O9 C24 C25 116.8(6) . .
O9 C24 C23 121.6(6) . .
C25 C24 C23 121.5(6) . .
C50 C51 C61 114.5(6) . .
C50 C51 C53 108.8(5) . .
C61 C51 C53 112.9(6) . .
C50 C51 H51 106.7 . .
C61 C51 H51 106.7 . .
C53 C51 H51 106.7 . .
O1 C3 C2 124.8(7) . .
O1 C3 C4 117.1(6) . .
C2 C3 C4 118.0(6) . .
C27 C26 C25 122.5(6) . .
C27 C26 O11 122.8(6) . .
C25 C26 O11 114.6(6) . .
O13 C48 C49 119.6(7) . .
O13 C48 C47 118.4(7) . .
C49 C48 C47 121.9(8) . .
O2 C4 C5 120.4(6) . .
O2 C4 C3 118.6(6) . .
C5 C4 C3 121.0(6) . .
C5 C6 C1 116.4(6) . .
C5 C6 C7 119.9(7) . .
C1 C6 C7 123.6(6) . .
O10 C25 C26 121.0(6) . .
O10 C25 C24 120.4(6) . .
C26 C25 C24 118.6(6) . .
C6 C7 C9 109.7(6) . .
C6 C7 C29 112.8(7) . .
C9 C7 C29 114.4(6) . .
C6 C7 H7 106.4 . .
C9 C7 H7 106.4 . .
C29 C7 H7 106.4 . .
C50 C45 C46 122.6(7) . .
C50 C45 H45 118.7 . .
C46 C45 H45 118.7 . .
C52 C53 C54 118.5(7) . .
C52 C53 C51 122.0(6) . .
C54 C53 C51 119.5(6) . .
C45 C50 C49 118.3(7) . .
C45 C50 C51 122.9(7) . .
C49 C50 C51 118.9(6) . .
O15 C54 C55 116.4(7) . .
O15 C54 C53 123.8(6) . .
C55 C54 C53 119.8(7) . .
C1 C2 C3 119.5(7) . .
C1 C2 C28 122.1(6) . .
C3 C2 C28 118.2(6) . .
C47 C46 C45 118.7(7) . .
C47 C46 C60 119.4(7) . .
C45 C46 C60 121.9(8) . .
C38 C37 C21 115.1(7) . .
C38 C37 H37A 108.5 . .
C21 C37 H37A 108.5 . .
C38 C37 H37B 108.5 . .
C21 C37 H37B 108.5 . .
H37A C37 H37B 107.5 . .
C2 C1 C6 123.1(6) . .
C2 C1 H1 118.5 . .
C6 C1 H1 118.5 . .
C12 O5 H5 109.5 . .
C27 C28 C41 113.8(6) . .
C27 C28 C2 109.6(6) . .
C41 C28 C2 113.1(6) . .
C27 C28 H28 106.6 . .
C41 C28 H28 106.6 . .
C2 C28 H28 106.6 . .
C59 C56 C59 125.3(12) 6_565 .
C59 C56 H56 117.4 6_565 .
C59 C56 H56 117.4 . .
C15 C20 C19 117.4(7) . .
C15 C20 C21 123.5(7) . .
C19 C20 C21 118.9(7) . .
C13 C8 C9 123.3(8) . .
C13 C8 H8 118.4 . .
C9 C8 H8 118.4 . .
C23 C21 C20 110.7(6) . .
C23 C21 C37 114.0(6) . .
C20 C21 C37 114.1(6) . .
C23 C21 H21 105.7 . .
C20 C21 H21 105.7 . .
C37 C21 H21 105.7 . .
O7 C18 C17 119.7(7) . .
O7 C18 C19 119.2(7) . .
C17 C18 C19 121.0(7) . .
C56 C59 C58 116.2(8) . .
C56 C59 C60 122.2(9) . .
C58 C59 C60 121.7(8) . .
C6 C5 C4 121.9(7) . .
C6 C5 O3 123.9(6) . .
C4 C5 O3 114.1(6) . .
C16 C15 C20 123.5(7) . .
C16 C15 H15 118.3 . .
C20 C15 H15 118.3 . .
O12 C47 C46 123.9(7) . .
O12 C47 C48 117.6(8) . .
C46 C47 C48 118.5(7) . .
C30 C29 C7 113.4(8) . .
C30 C29 H29A 108.9 . .
C7 C29 H29A 108.9 . .
C30 C29 H29B 108.9 . .
C7 C29 H29B 108.9 . .
H29A C29 H29B 107.7 . .
C12 C13 C8 118.0(9) . .
C12 C13 C14 121.9(9) . .
C8 C13 C14 120.1(8) . .
C8 C9 C10 116.1(8) . .
C8 C9 C7 122.2(7) . .
C10 C9 C7 121.7(8) . .
C59 C60 C46 110.4(6) . .
C59 C60 C65 114.2(8) . .
C46 C60 C65 112.4(7) . .
C59 C60 H60 106.4 . .
C46 C60 H60 106.4 . .
C65 C60 H60 106.4 . .
C15 C16 C17 118.3(7) . .
C15 C16 C14 121.9(7) . .
C17 C16 C14 119.7(7) . .
C42 C41 C28 113.0(8) . .
C42 C41 H41A 109.0 . .
C28 C41 H41A 109.0 . .
C42 C41 H41B 109.0 . .
C28 C41 H41B 109.0 . .
H41A C41 H41B 107.8 . .
O6 C17 C18 116.2(7) . .
O6 C17 C16 123.9(7) . .
C18 C17 C16 119.9(7) . .
C33 C14 C16 114.5(8) . .
C33 C14 C13 113.4(7) . .
C16 C14 C13 110.4(6) . .
C33 C14 H14 105.9 . .
C16 C14 H14 105.9 . .
C13 C14 H14 105.9 . .
C1S N1S C3S 123.6(10) . .
C1S N1S C2S 124.3(9) . .
C3S N1S C2S 111.7(9) . .
C51 C61 C62 113.4(8) . .
C51 C61 H61A 108.9 . .
C62 C61 H61A 108.9 . .
C51 C61 H61B 108.9 . .
C62 C61 H61B 108.9 . .
H61A C61 H61B 107.7 . .
C11 C10 C9 121.8(9) . .
C11 C10 O4 121.2(9) . .
C9 C10 O4 117.0(9) . .
C12 C11 C10 118.9(9) . .
C12 C11 H11 120.6 . .
C10 C11 H11 120.6 . .
C39 C38 C37 120.4(11) . .
C39 C38 H38A 107.2 . .
C37 C38 H38A 107.2 . .
C39 C38 H38B 107.2 . .
C37 C38 H38B 107.2 . .
H38A C38 H38B 106.9 . .
C34 C33 C14 114.7(9) . .
C34 C33 H33A 108.6 . .
C14 C33 H33A 108.6 . .
C34 C33 H33B 108.6 . .
C14 C33 H33B 108.6 . .
H33A C33 H33B 107.6 . .
C59 C58 C57 121.9(9) . .
C59 C58 O17 122.7(9) . .
C57 C58 O17 115.4(10) . .
C7S O1I Zn1 122(2) . .
C58 C57 C58 118.6(14) 6_565 .
C58 C57 H57 120.7 6_565 .
C58 C57 H57 120.7 . .
C11 C12 C13 121.8(10) . .
C11 C12 O5 117.5(11) . .
C13 C12 O5 120.6(11) . .
O4E C1S N1S 125.0(9) . .
C29 C30 C31 111.0(9) . .
C29 C30 H30A 109.4 . .
C31 C30 H30A 109.4 . .
C29 C30 H30B 109.4 . .
C31 C30 H30B 109.4 . .
H30A C30 H30B 108.0 . .
C60 C65 C66 114.3(11) . .
C60 C65 H65A 108.7 . .
C66 C65 H65A 108.7 . .
C60 C65 H65B 108.7 . .
C66 C65 H65B 108.7 . .
H65A C65 H65B 107.6 . .
N3S C8S H8S1 109.5 . .
N3S C8S H8S2 109.5 . .
H8S1 C8S H8S2 109.5 . .
N3S C8S H8S3 109.5 . .
H8S1 C8S H8S3 109.5 . .
H8S2 C8S H8S3 109.5 . .
C43 C42 C41 114.1(11) . .
C43 C42 H42A 108.7 . .
C41 C42 H42A 108.7 . .
C43 C42 H42B 108.7 . .
C41 C42 H42B 108.7 . .
H42A C42 H42B 107.6 . .
C31 C32 H32A 109.5 . .
C31 C32 H32B 109.5 . .
H32A C32 H32B 109.5 . .
C31 C32 H32C 109.5 . .
H32A C32 H32C 109.5 . .
H32B C32 H32C 109.5 . .
C65 C66 C67 110.3(13) . .
C65 C66 H66A 109.6 . .
C67 C66 H66A 109.6 . .
C65 C66 H66B 109.6 . .
C67 C66 H66B 109.6 . .
H66A C66 H66B 108.1 . .
C63 C62 C61 114.1(10) . .
C63 C62 H62A 108.7 . .
C61 C62 H62A 108.7 . .
C63 C62 H62B 108.7 . .
C61 C62 H62B 108.7 . .
H62A C62 H62B 107.6 . .
C32 C31 C30 115.5(10) . .
C32 C31 H31A 108.4 . .
C30 C31 H31A 108.4 . .
C32 C31 H31B 108.4 . .
C30 C31 H31B 108.4 . .
H31A C31 H31B 107.5 . .
N2S C5S H5S1 109.5 . .
N2S C5S H5S2 109.5 . .
H5S1 C5S H5S2 109.5 . .
N2S C5S H5S3 109.5 . .
H5S1 C5S H5S3 109.5 . .
H5S2 C5S H5S3 109.5 . .
N1S C2S H2S1 109.5 . .
N1S C2S H2S2 109.5 . .
H2S1 C2S H2S2 109.5 . .
N1S C2S H2S3 109.5 . .
H2S1 C2S H2S3 109.5 . .
H2S2 C2S H2S3 109.5 . .
C4S N2S C5S 121.9(11) . .
C4S N2S C6S 122.0(16) . .
C5S N2S C6S 115.6(16) . .
C7S N3S C8S 118(2) . .
C7S N3S C9S 120(3) . .
C8S N3S C9S 115(2) . .
O5E C4S N2S 122.8(11) . .
C62 C63 C64 111.3(13) . .
C62 C63 H63A 109.4 . .
C64 C63 H63A 109.4 . .
C62 C63 H63B 109.4 . .
C64 C63 H63B 109.4 . .
H63A C63 H63B 108.0 . .
C35 C34 C33 119.5(16) . .
C35 C34 H34A 107.4 . .
C33 C34 H34A 107.4 . .
C35 C34 H34B 107.4 . .
C33 C34 H34B 107.4 . .
H34A C34 H34B 107.0 . .
C42 C43 C44 116.5(19) . .
C42 C43 H43A 108.2 . .
C44 C43 H43A 108.2 . .
C42 C43 H43B 108.2 . .
C44 C43 H43B 108.2 . .
H43A C43 H43B 107.3 . .
N1S C3S H3S1 109.5 . .
N1S C3S H3S2 109.5 . .
H3S1 C3S H3S2 109.5 . .
N1S C3S H3S3 109.5 . .
H3S1 C3S H3S3 109.5 . .
H3S2 C3S H3S3 109.5 . .
C40 C39 C38 124(2) . .
C40 C39 H39A 106.3 . .
C38 C39 H39A 106.3 . .
C40 C39 H39B 106.3 . .
C38 C39 H39B 106.3 . .
H39A C39 H39B 106.4 . .
C68 C67 C66 104(2) . .
C68 C67 H67A 110.9 . .
C66 C67 H67A 110.9 . .
C68 C67 H67B 110.9 . .
C66 C67 H67B 110.9 . .
H67A C67 H67B 108.9 . .
N3S C9S H9S1 109.5 . .
N3S C9S H9S2 109.5 . .
H9S1 C9S H9S2 109.5 . .
N3S C9S H9S3 109.5 . .
H9S1 C9S H9S3 109.5 . .
H9S2 C9S H9S3 109.5 . .
C63 C64 H64A 109.5 . .
C63 C64 H64B 109.5 . .
H64A C64 H64B 109.5 . .
C63 C64 H64C 109.5 . .
H64A C64 H64C 109.5 . .
H64B C64 H64C 109.5 . .
C35 C36 H36A 109.5 . .
C35 C36 H36B 109.5 . .
H36A C36 H36B 109.5 . .
C35 C36 H36C 109.5 . .
H36A C36 H36C 109.5 . .
H36B C36 H36C 109.5 . .
C43 C44 H44A 109.5 . .
C43 C44 H44B 109.5 . .
H44A C44 H44B 109.5 . .
C43 C44 H44C 109.5 . .
H44A C44 H44C 109.5 . .
H44B C44 H44C 109.5 . .
C34 C35 C36 118.5(19) . .
C34 C35 H35A 107.7 . .
C36 C35 H35A 107.7 . .
C34 C35 H35B 107.7 . .
C36 C35 H35B 107.7 . .
H35A C35 H35B 107.1 . .
N3S C7S O1I 129(4) . .
C39 C40 H40A 109.5 . .
C39 C40 H40B 109.5 . .
H40A C40 H40B 109.5 . .
C39 C40 H40C 109.5 . .
H40A C40 H40C 109.5 . .
H40B C40 H40C 109.5 . .
N2S C6S H6S1 109.5 . .
N2S C6S H6S2 109.5 . .
H6S1 C6S H6S2 109.5 . .
N2S C6S H6S3 109.5 . .
H6S1 C6S H6S3 109.5 . .
H6S2 C6S H6S3 109.5 . .
C67 C68 H68A 109.5 . .
C67 C68 H68B 109.5 . .
H68A C68 H68B 109.5 . .
C67 C68 H68C 109.5 . .
H68A C68 H68C 109.5 . .
H68B C68 H68C 109.5 . .
loop_
_geom_bond_atom_site_label_1
_geom_bond_atom_site_label_2
_geom_bond_distance
_geom_bond_site_symmetry_2
Zn4 O10 1.987(5) .
Zn4 O1 2.005(5) 2_656
Zn4 O2 2.024(5) 2_656
Zn4 O4E 2.071(5) .
Zn4 O11 2.103(5) .
Zn5 O13 1.977(5) .
Zn5 O10 2.015(5) 2_656
Zn5 O9 2.018(5) 2_656
Zn5 O5E 2.049(6) .
Zn5 O14 2.085(5) .
Zn1 O13 1.981(5) .
Zn1 O2 1.997(5) .
Zn1 O1I 2.042(8) .
Zn1 O12 2.044(7) .
Zn1 O3 2.143(5) .
Zn3 O7 2.009(6) .
Zn3 O16 2.018(3) 5_666
Zn3 O8 2.044(5) .
Zn3 O15 2.064(5) 2_656
Zn3 O3I 2.29(3) .
Zn2 O7 1.948(6) .
Zn2 O7 1.948(6) 6_565
Zn2 O6 2.060(6) .
Zn2 O6 2.060(6) 6_565
Zn2 O2I 2.16(2) .
Zn2 O2E 2.23(3) .
O1 C3 1.334(9) .
O1 Zn4 2.005(5) 2_656
O10 C25 1.372(8) .
O10 Zn5 2.015(5) 2_656
O11 C26 1.404(8) .
O9 C24 1.379(8) .
O9 Zn5 2.018(5) 2_656
O2 C4 1.370(8) .
O2 Zn4 2.024(5) 2_656
O14 C49 1.376(9) .
O8 C19 1.364(9) .
O15 C54 1.370(9) .
O15 Zn3 2.064(5) 2_656
O3 C5 1.409(9) .
O13 C48 1.372(11) .
O4E C1S 1.210(11) .
O16 C55 1.369(13) .
O16 Zn3 2.018(3) 5_666
O16 Zn3 2.018(3) 2_656
O7 C18 1.365(10) .
O5E C4S 1.202(12) .
O12 C47 1.341(10) .
O6 C17 1.384(10) .
O4 C10 1.412(13) .
O4 H4 0.8400 .
C22 C27 1.397(10) .
C22 C23 1.408(10) .
C22 H22 0.9500 .
C52 C53 1.397(8) 6_565
C52 C53 1.397(8) .
C52 H52 0.9500 .
C27 C26 1.357(10) .
C27 C28 1.513(10) .
O17 C58 1.420(12) .
O17 H17 0.8400 .
C23 C24 1.392(10) .
C23 C21 1.507(9) .
C19 C18 1.391(12) .
C19 C20 1.408(10) .
C55 C54 1.396(9) 6_565
C55 C54 1.396(9) .
C49 C48 1.384(11) .
C49 C50 1.388(11) .
C24 C25 1.392(10) .
C51 C50 1.520(10) .
C51 C61 1.532(11) .
C51 C53 1.535(10) .
C51 H51 1.0000 .
C3 C2 1.393(10) .
C3 C4 1.405(11) .
C26 C25 1.388(10) .
C48 C47 1.399(11) .
C4 C5 1.390(10) .
C6 C5 1.380(10) .
C6 C1 1.400(11) .
C6 C7 1.513(10) .
C7 C9 1.536(12) .
C7 C29 1.537(10) .
C7 H7 1.0000 .
C45 C50 1.380(10) .
C45 C46 1.408(11) .
C45 H45 0.9500 .
C53 C54 1.398(10) .
C2 C1 1.392(10) .
C2 C28 1.543(10) .
C46 C47 1.388(12) .
C46 C60 1.524(11) .
C37 C38 1.517(14) .
C37 C21 1.546(10) .
C37 H37A 0.9900 .
C37 H37B 0.9900 .
C1 H1 0.9500 .
O5 C12 1.401(14) .
O5 H5 0.8400 .
C28 C41 1.539(10) .
C28 H28 1.0000 .
C56 C59 1.378(10) 6_565
C56 C59 1.378(10) .
C56 H56 0.9500 .
C20 C15 1.388(11) .
C20 C21 1.514(11) .
C8 C13 1.390(12) .
C8 C9 1.400(12) .
C8 H8 0.9500 .
C21 H21 1.0000 .
C18 C17 1.386(11) .
C59 C58 1.380(15) .
C59 C60 1.507(12) .
C15 C16 1.378(11) .
C15 H15 0.9500 .
C29 C30 1.520(13) .
C29 H29A 0.9900 .
C29 H29B 0.9900 .
C13 C12 1.384(15) .
C13 C14 1.557(13) .
C9 C10 1.406(13) .
C60 C65 1.531(15) .
C60 H60 1.0000 .
C16 C17 1.395(12) .
C16 C14 1.528(11) .
C41 C42 1.502(14) .
C41 H41A 0.9900 .
C41 H41B 0.9900 .
C14 C33 1.523(13) .
C14 H14 1.0000 .
N1S C1S 1.278(13) .
N1S C3S 1.425(15) .
N1S C2S 1.459(16) .
C61 C62 1.571(14) .
C61 H61A 0.9900 .
C61 H61B 0.9900 .
C10 C11 1.402(17) .
C11 C12 1.376(17) .
C11 H11 0.9500 .
C38 C39 1.43(2) .
C38 H38A 0.9900 .
C38 H38B 0.9900 .
C33 C34 1.510(16) .
C33 H33A 0.9900 .
C33 H33B 0.9900 .
C58 C57 1.390(13) .
O1I C7S 1.33(4) .
C57 C58 1.390(13) 6_565
C57 H57 0.9500 .
C30 C31 1.555(14) .
C30 H30A 0.9900 .
C30 H30B 0.9900 .
C65 C66 1.547(13) .
C65 H65A 0.9900 .
C65 H65B 0.9900 .
C8S N3S 1.48(2) .
C8S H8S1 0.9800 .
C8S H8S2 0.9800 .
C8S H8S3 0.9800 .
C42 C43 1.468(17) .
C42 H42A 0.9900 .
C42 H42B 0.9900 .
C32 C31 1.431(18) .
C32 H32A 0.9800 .
C32 H32B 0.9800 .
C32 H32C 0.9800 .
C66 C67 1.57(3) .
C66 H66A 0.9900 .
C66 H66B 0.9900 .
C62 C63 1.45(2) .
C62 H62A 0.9900 .
C62 H62B 0.9900 .
C31 H31A 0.9900 .
C31 H31B 0.9900 .
C5S N2S 1.434(13) .
C5S H5S1 0.9800 .
C5S H5S2 0.9800 .
C5S H5S3 0.9800 .
C2S H2S1 0.9800 .
C2S H2S2 0.9800 .
C2S H2S3 0.9800 .
N2S C4S 1.355(13) .
N2S C6S 1.466(17) .
N3S C7S 1.29(5) .
N3S C9S 1.49(4) .
C63 C64 1.54(2) .
C63 H63A 0.9900 .
C63 H63B 0.9900 .
C34 C35 1.42(3) .
C34 H34A 0.9900 .
C34 H34B 0.9900 .
C43 C44 1.67(4) .
C43 H43A 0.9900 .
C43 H43B 0.9900 .
C3S H3S1 0.9800 .
C3S H3S2 0.9800 .
C3S H3S3 0.9800 .
C39 C40 1.40(4) .
C39 H39A 0.9900 .
C39 H39B 0.9900 .
C67 C68 1.52(4) .
C67 H67A 0.9900 .
C67 H67B 0.9900 .
C9S H9S1 0.9800 .
C9S H9S2 0.9800 .
C9S H9S3 0.9800 .
C64 H64A 0.9800 .
C64 H64B 0.9800 .
C64 H64C 0.9800 .
C36 C35 1.64(3) .
C36 H36A 0.9800 .
C36 H36B 0.9800 .
C36 H36C 0.9800 .
C44 H44A 0.9800 .
C44 H44B 0.9800 .
C44 H44C 0.9800 .
C35 H35A 0.9900 .
C35 H35B 0.9900 .
C40 H40A 0.9800 .
C40 H40B 0.9800 .
C40 H40C 0.9800 .
C6S H6S1 0.9800 .
C6S H6S2 0.9800 .
C6S H6S3 0.9800 .
C68 H68A 0.9800 .
C68 H68B 0.9800 .
C68 H68C 0.9800 .
loop_
_geom_torsion_atom_site_label_1
_geom_torsion_atom_site_label_2
_geom_torsion_atom_site_label_3
_geom_torsion_atom_site_label_4
_geom_torsion
_geom_torsion_site_symmetry_1
_geom_torsion_site_symmetry_4
C23 C22 C27 C26 -3.2(10) . .
C23 C22 C27 C28 -179.4(6) . .
C27 C22 C23 C24 3.2(10) . .
C27 C22 C23 C21 178.7(6) . .
Zn3 O8 C19 C18 -5.8(9) . .
Zn3 O8 C19 C20 174.3(6) . .
Zn3 O16 C55 C54 8.6(12) 5_666 6_565
Zn3 O16 C55 C54 168.4(7) 2_656 6_565
Zn3 O16 C55 C54 -168.4(7) 5_666 .
Zn3 O16 C55 C54 -8.6(12) 2_656 .
Zn5 O14 C49 C48 9.1(8) . .
Zn5 O14 C49 C50 -170.3(5) . .
Zn5 O9 C24 C25 -9.5(7) 2_656 .
Zn5 O9 C24 C23 167.3(5) 2_656 .
C22 C23 C24 O9 -179.5(6) . .
C21 C23 C24 O9 4.9(10) . .
C22 C23 C24 C25 -2.9(10) . .
C21 C23 C24 C25 -178.5(6) . .
Zn4 O1 C3 C2 170.3(6) 2_656 .
Zn4 O1 C3 C4 -10.0(8) 2_656 .
C22 C27 C26 C25 3.0(10) . .
C28 C27 C26 C25 179.2(6) . .
C22 C27 C26 O11 -179.6(6) . .
C28 C27 C26 O11 -3.4(10) . .
Zn4 O11 C26 C27 -164.6(5) . .
Zn4 O11 C26 C25 13.0(7) . .
Zn5 O13 C48 C49 -12.2(10) . .
Zn1 O13 C48 C49 173.7(6) . .
Zn5 O13 C48 C47 170.4(6) . .
Zn1 O13 C48 C47 -3.7(10) . .
O14 C49 C48 O13 1.7(11) . .
C50 C49 C48 O13 -178.9(7) . .
O14 C49 C48 C47 179.0(7) . .
C50 C49 C48 C47 -1.6(12) . .
Zn1 O2 C4 C5 21.4(9) . .
Zn4 O2 C4 C5 -171.7(6) 2_656 .
Zn1 O2 C4 C3 -158.1(6) . .
Zn4 O2 C4 C3 8.8(8) 2_656 .
O1 C3 C4 O2 0.7(10) . .
C2 C3 C4 O2 -179.6(6) . .
O1 C3 C4 C5 -178.8(7) . .
C2 C3 C4 C5 0.9(11) . .
Zn4 O10 C25 C26 -14.9(8) . .
Zn5 O10 C25 C26 -169.4(5) 2_656 .
Zn4 O10 C25 C24 166.1(5) . .
Zn5 O10 C25 C24 11.6(7) 2_656 .
C27 C26 C25 O10 178.3(6) . .
O11 C26 C25 O10 0.7(9) . .
C27 C26 C25 C24 -2.8(10) . .
O11 C26 C25 C24 179.7(6) . .
O9 C24 C25 O10 -1.5(9) . .
C23 C24 C25 O10 -178.3(6) . .
O9 C24 C25 C26 179.5(6) . .
C23 C24 C25 C26 2.7(10) . .
C5 C6 C7 C9 -84.6(9) . .
C1 C6 C7 C9 95.0(9) . .
C5 C6 C7 C29 146.6(8) . .
C1 C6 C7 C29 -33.8(10) . .
C53 C52 C53 C54 -2.6(13) 6_565 .
C53 C52 C53 C51 175.3(5) 6_565 .
C50 C51 C53 C52 -93.4(8) . .
C61 C51 C53 C52 34.9(10) . .
C50 C51 C53 C54 84.4(8) . .
C61 C51 C53 C54 -147.3(7) . .
C46 C45 C50 C49 0.0(11) . .
C46 C45 C50 C51 -178.6(7) . .
O14 C49 C50 C45 179.7(6) . .
C48 C49 C50 C45 0.4(10) . .
O14 C49 C50 C51 -1.6(10) . .
C48 C49 C50 C51 179.0(7) . .
C61 C51 C50 C45 -37.6(10) . .
C53 C51 C50 C45 89.7(8) . .
C61 C51 C50 C49 143.8(7) . .
C53 C51 C50 C49 -88.8(7) . .
Zn3 O15 C54 C55 10.2(9) 2_656 .
Zn3 O15 C54 C53 -169.6(6) 2_656 .
O16 C55 C54 O15 -1.2(13) . .
C54 C55 C54 O15 -178.2(6) 6_565 .
O16 C55 C54 C53 178.6(8) . .
C54 C55 C54 C53 1.6(16) 6_565 .
C52 C53 C54 O15 -179.8(7) . .
C51 C53 C54 O15 2.3(11) . .
C52 C53 C54 C55 0.4(12) . .
C51 C53 C54 C55 -177.5(7) . .
O1 C3 C2 C1 178.2(7) . .
C4 C3 C2 C1 -1.5(11) . .
O1 C3 C2 C28 3.3(11) . .
C4 C3 C2 C28 -176.3(6) . .
C50 C45 C46 C47 0.8(11) . .
C50 C45 C46 C60 178.6(7) . .
C3 C2 C1 C6 0.9(11) . .
C28 C2 C1 C6 175.6(7) . .
C5 C6 C1 C2 0.3(11) . .
C7 C6 C1 C2 -179.3(7) . .
C26 C27 C28 C41 145.5(7) . .
C22 C27 C28 C41 -38.4(10) . .
C26 C27 C28 C2 -86.7(8) . .
C22 C27 C28 C2 89.4(8) . .
C1 C2 C28 C27 -91.1(8) . .
C3 C2 C28 C27 83.7(8) . .
C1 C2 C28 C41 37.1(10) . .
C3 C2 C28 C41 -148.2(7) . .
O8 C19 C20 C15 -177.5(7) . .
C18 C19 C20 C15 2.7(11) . .
O8 C19 C20 C21 -3.0(11) . .
C18 C19 C20 C21 177.1(7) . .
C24 C23 C21 C20 85.5(8) . .
C22 C23 C21 C20 -89.9(8) . .
C24 C23 C21 C37 -144.2(7) . .
C22 C23 C21 C37 40.4(9) . .
C15 C20 C21 C23 89.2(8) . .
C19 C20 C21 C23 -84.9(8) . .
C15 C20 C21 C37 -41.1(10) . .
C19 C20 C21 C37 144.8(7) . .
C38 C37 C21 C23 54.2(10) . .
C38 C37 C21 C20 -177.2(7) . .
Zn2 O7 C18 C17 1.8(12) . .
Zn3 O7 C18 C17 -172.0(7) . .
Zn2 O7 C18 C19 178.9(7) . .
Zn3 O7 C18 C19 5.2(11) . .
O8 C19 C18 O7 0.5(13) . .
C20 C19 C18 O7 -179.6(8) . .
O8 C19 C18 C17 177.6(8) . .
C20 C19 C18 C17 -2.5(14) . .
C59 C56 C59 C58 0.5(16) 6_565 .
C59 C56 C59 C60 -178.9(7) 6_565 .
C1 C6 C5 C4 -0.9(12) . .
C7 C6 C5 C4 178.7(7) . .
C1 C6 C5 O3 179.0(7) . .
C7 C6 C5 O3 -1.4(12) . .
O2 C4 C5 C6 -179.1(7) . .
C3 C4 C5 C6 0.4(12) . .
O2 C4 C5 O3 0.9(11) . .
C3 C4 C5 O3 -179.6(7) . .
Zn1 O3 C5 C6 159.2(7) . .
Zn1 O3 C5 C4 -20.8(8) . .
C19 C20 C15 C16 -2.8(11) . .
C21 C20 C15 C16 -177.0(7) . .
Zn1 O12 C47 C46 -175.6(7) . .
Zn1 O12 C47 C48 5.7(10) . .
C45 C46 C47 O12 179.4(7) . .
C60 C46 C47 O12 1.6(12) . .
C45 C46 C47 C48 -1.9(12) . .
C60 C46 C47 C48 -179.8(7) . .
O13 C48 C47 O12 -1.5(12) . .
C49 C48 C47 O12 -178.9(8) . .
O13 C48 C47 C46 179.7(7) . .
C49 C48 C47 C46 2.3(13) . .
C6 C7 C29 C30 -174.6(7) . .
C9 C7 C29 C30 59.0(9) . .
C9 C8 C13 C12 -2.4(12) . .
C9 C8 C13 C14 178.6(7) . .
C13 C8 C9 C10 0.7(11) . .
C13 C8 C9 C7 178.0(7) . .
C6 C7 C9 C8 -85.1(8) . .
C29 C7 C9 C8 42.8(10) . .
C6 C7 C9 C10 92.0(9) . .
C29 C7 C9 C10 -140.0(8) . .
C56 C59 C60 C46 89.8(10) . .
C58 C59 C60 C46 -89.6(9) . .
C56 C59 C60 C65 -38.0(11) . .
C58 C59 C60 C65 142.6(9) . .
C47 C46 C60 C59 86.0(9) . .
C45 C46 C60 C59 -91.7(9) . .
C47 C46 C60 C65 -145.2(8) . .
C45 C46 C60 C65 37.0(10) . .
C20 C15 C16 C17 2.7(12) . .
C20 C15 C16 C14 179.7(7) . .
C27 C28 C41 C42 -61.6(10) . .
C2 C28 C41 C42 172.4(8) . .
Zn2 O6 C17 C18 2.9(11) . .
Zn2 O6 C17 C16 -179.9(7) . .
O7 C18 C17 O6 -3.3(14) . .
C19 C18 C17 O6 179.6(8) . .
O7 C18 C17 C16 179.4(8) . .
C19 C18 C17 C16 2.3(15) . .
C15 C16 C17 O6 -179.4(8) . .
C14 C16 C17 O6 3.5(14) . .
C15 C16 C17 C18 -2.3(13) . .
C14 C16 C17 C18 -179.5(8) . .
C15 C16 C14 C33 37.6(11) . .
C17 C16 C14 C33 -145.4(8) . .
C15 C16 C14 C13 -91.9(9) . .
C17 C16 C14 C13 85.1(9) . .
C12 C13 C14 C33 139.0(9) . .
C8 C13 C14 C33 -42.0(10) . .
C12 C13 C14 C16 -91.0(9) . .
C8 C13 C14 C16 88.1(9) . .
C50 C51 C61 C62 -58.7(9) . .
C53 C51 C61 C62 176.1(7) . .
C8 C9 C10 C11 2.2(13) . .
C7 C9 C10 C11 -175.1(9) . .
C8 C9 C10 O4 -176.8(7) . .
C7 C9 C10 O4 5.9(12) . .
C9 C10 C11 C12 -3.4(16) . .
O4 C10 C11 C12 175.6(10) . .
C21 C37 C38 C39 50.3(18) . .
C16 C14 C33 C34 61.9(12) . .
C13 C14 C33 C34 -170.2(10) . .
C56 C59 C58 C57 0.0(14) . .
C60 C59 C58 C57 179.5(9) . .
C56 C59 C58 O17 -177.6(9) . .
C60 C59 C58 O17 1.9(13) . .
C59 C58 C57 C58 -0.6(19) . 6_565
O17 C58 C57 C58 177.2(8) . 6_565
C10 C11 C12 C13 1.7(17) . .
C10 C11 C12 O5 179.7(10) . .
C8 C13 C12 C11 1.1(14) . .
C14 C13 C12 C11 -179.8(9) . .
C8 C13 C12 O5 -176.8(9) . .
C14 C13 C12 O5 2.2(14) . .
Zn4 O4E C1S N1S 168.0(9) . .
C3S N1S C1S O4E 7(2) . .
C2S N1S C1S O4E -179.6(13) . .
C7 C29 C30 C31 159.3(9) . .
C59 C60 C65 C66 -60.6(11) . .
C46 C60 C65 C66 172.6(8) . .
C28 C41 C42 C43 178.1(11) . .
C60 C65 C66 C67 -177.4(13) . .
C51 C61 C62 C63 -52.8(14) . .
C29 C30 C31 C32 60.4(13) . .
Zn5 O5E C4S N2S 172.8(13) . .
C5S N2S C4S O5E 5(3) . .
C6S N2S C4S O5E 177(2) . .
C61 C62 C63 C64 -176.9(13) . .
C14 C33 C34 C35 -179(3) . .
C41 C42 C43 C44 -161.2(18) . .
C37 C38 C39 C40 172(3) . .
C65 C66 C67 C68 -173.9(19) . .
C33 C34 C35 C36 176(2) . .
C8S N3S C7S O1I 180(3) . .
C9S N3S C7S O1I -29(6) . .
Zn1 O1I C7S N3S 130(4) . .
