#------------------------------------------------------------------------------
#$Date: 2018-02-28 05:06:44 +0200 (Wed, 28 Feb 2018) $
#$Revision: 206679 $
#$URL: file:///home/coder/svn-repositories/cod/cif/7/12/13/7121340.cif $
#------------------------------------------------------------------------------
#
# This file is available in the Crystallography Open Database (COD),
# http://www.crystallography.net/
#
# All data on this site have been placed in the public domain by the
# contributors.
#
data_7121340
loop_
_publ_author_name
'Zhou, Mi'
'Ju, Zhanfeng'
'Yuan, Daqiang'
_publ_section_title
;
 A new metal-organic framework constructed from cationic nodes and
 cationic linkers for highly efficient anion exchange
;
_journal_name_full               'Chemical Communications'
_journal_paper_doi               10.1039/C8CC01225C
_journal_year                    2018
_chemical_formula_sum            'C90 H84 Cu6 In3 N12 O22'
_chemical_formula_weight         2411.39
_space_group_crystal_system      trigonal
_space_group_IT_number           163
_space_group_name_Hall           '-P 3 2c'
_space_group_name_H-M_alt        'P -3 1 c'
_symmetry_space_group_name_Hall  '-P 3 2c'
_symmetry_space_group_name_H-M   'P -3 1 c'
_atom_sites_solution_hydrogens   geom
_audit_creation_method           SHELXL-2018/1
_audit_update_record
;
2018-02-06 deposited with the CCDC.
2018-02-27 downloaded from the CCDC.
;
_cell_angle_alpha                90
_cell_angle_beta                 90
_cell_angle_gamma                120
_cell_formula_units_Z            2
_cell_length_a                   23.0639(3)
_cell_length_b                   23.0639(3)
_cell_length_c                   30.1054(3)
_cell_measurement_reflns_used    9680
_cell_measurement_temperature    290(2)
_cell_measurement_theta_max      71.88
_cell_measurement_theta_min      3.68
_cell_volume                     13868.9(3)
_computing_cell_refinement       'Bruker SAINT'
_computing_data_collection       'Bruker APEX2'
_computing_data_reduction        'Bruker SAINT'
_computing_structure_refinement  'SHELXL-2018/1 (Sheldrick, 2018)'
_computing_structure_solution    'SHELXT 2014/5 (Sheldrick, 2014)'
_diffrn_ambient_temperature      290(2)
_diffrn_measured_fraction_theta_full 0.997
_diffrn_measured_fraction_theta_max 0.987
_diffrn_measurement_device_type  'Bruker APEX-III CCD'
_diffrn_measurement_method       '\f and \w scans'
_diffrn_radiation_type           CuK\a
_diffrn_radiation_wavelength     1.54178
_diffrn_reflns_av_R_equivalents  0.0526
_diffrn_reflns_av_unetI/netI     0.0258
_diffrn_reflns_Laue_measured_fraction_full 0.997
_diffrn_reflns_Laue_measured_fraction_max 0.987
_diffrn_reflns_limit_h_max       28
_diffrn_reflns_limit_h_min       -28
_diffrn_reflns_limit_k_max       28
_diffrn_reflns_limit_k_min       -28
_diffrn_reflns_limit_l_max       31
_diffrn_reflns_limit_l_min       -35
_diffrn_reflns_number            101698
_diffrn_reflns_point_group_measured_fraction_full 0.997
_diffrn_reflns_point_group_measured_fraction_max 0.987
_diffrn_reflns_theta_full        67.679
_diffrn_reflns_theta_max         72.412
_diffrn_reflns_theta_min         3.677
_exptl_absorpt_coefficient_mu    2.664
_exptl_absorpt_correction_T_max  0.7536
_exptl_absorpt_correction_T_min  0.3753
_exptl_absorpt_correction_type   multi-scan
_exptl_absorpt_process_details   sadabs
_exptl_crystal_colour            black
_exptl_crystal_density_diffrn    0.577
_exptl_crystal_description       block
_exptl_crystal_F_000             2410
_exptl_crystal_size_max          0.29
_exptl_crystal_size_mid          0.16
_exptl_crystal_size_min          0.14
_refine_diff_density_max         0.739
_refine_diff_density_min         -0.557
_refine_diff_density_rms         0.082
_refine_ls_extinction_method     none
_refine_ls_goodness_of_fit_ref   1.040
_refine_ls_hydrogen_treatment    constr
_refine_ls_matrix_type           full
_refine_ls_number_parameters     342
_refine_ls_number_reflns         9058
_refine_ls_number_restraints     226
_refine_ls_restrained_S_all      1.260
_refine_ls_R_factor_all          0.0693
_refine_ls_R_factor_gt           0.0597
_refine_ls_shift/su_max          0.000
_refine_ls_shift/su_mean         0.000
_refine_ls_structure_factor_coef Fsqd
_refine_ls_weighting_details
'w=1/[\s^2^(Fo^2^)+(0.1300P)^2^+8.9100P] where P=(Fo^2^+2Fc^2^)/3'
_refine_ls_weighting_scheme      calc
_refine_ls_wR_factor_gt          0.1815
_refine_ls_wR_factor_ref         0.1957
_reflns_Friedel_coverage         0.000
_reflns_number_gt                7505
_reflns_number_total             9058
_reflns_threshold_expression     'I > 2\s(I)'
_cod_data_source_file            c8cc01225c2.cif
_cod_data_source_block           FJI-Y6-Dye
_cod_original_cell_volume        13868.8(4)
_cod_database_code               7121340
_shelx_shelxl_version_number     2018/1
_shelx_space_group_comment
;
The symmetry employed for this shelxl refinement is uniquely defined
by the following loop, which should always be used as a source of
symmetry information in preference to the above space-group names.
They are only intended as comments.
;
_shelx_res_file
;
TITL F:\ZM-2\work\cu_ZM_2_0m_a.res in P-31c
    F:\ZM-2\work\b.res
    created by SHELXL-2018/1 at 21:33:01 on 09-Jan-2018
CELL 1.54178 23.0639 23.0639 30.1054 90.000 90.000 120.000
ZERR 2.0000 0.0003 0.0003 0.0003 0.000 0.000 0.000
LATT 1
SYMM -Y, X-Y, Z
SYMM -X+Y, -X, Z
SYMM -Y, -X, 0.5-Z
SYMM -X+Y, Y, 0.5-Z
SYMM X, X-Y, 0.5-Z
SFAC C H N O CU IN
UNIT 180 168 24 44 12 6
ISOR 0.005 $N $C
ISOR 0.005 Cu1 Cu2 O1 O2
ABIN
DFIX 1.45 0.01 N1 C12
DFIX 1.45 0.01 N2 C6
DFIX 1.45 0.01 N3 C7
DFIX 1.45 0.01 N4 C1
OMIT 1   5   5
OMIT 1   1   4
OMIT 0   3   8
OMIT -1   3   7
OMIT -3   6   0
OMIT 0   4   6
OMIT -2   4   0
OMIT 0   1   0
OMIT 1   2   1
ACTA
FMAP 2 1 53
PLAN 10 0 0
LIST 4
BOND
L.S. 15 0 157
WGHT    0.130000    8.910000
FVAR       0.20036
AFIX   9
PART -1
C1    1    0.672438    0.998209    0.526577    10.50000    0.08474    0.09488 =
         0.08642   -0.02779   -0.00299    0.04821
AFIX  13
H1    2    0.652880    0.950918    0.534664    10.50000   -1.20000
AFIX   5
C2    1    0.745528    1.032440    0.545387    10.50000    0.08906    0.10469 =
         0.09613   -0.01900   -0.00970    0.05424
AFIX  23
H2A   2    0.743872    1.028411    0.577495    10.50000   -1.20000
H2B   2    0.768593    1.079714    0.538025    10.50000   -1.20000
AFIX   5
C3    1    0.785509    0.999791    0.525928    10.50000    0.09675    0.11447 =
         0.11034   -0.01532   -0.00221    0.05796
AFIX  23
H3A   2    0.765760    0.954054    0.536493    10.50000   -1.20000
H3B   2    0.831378    1.024273    0.536444    10.50000   -1.20000
AFIX   5
C4    1    0.785120    0.999991    0.473878    10.50000    0.09691    0.11180 =
         0.10414   -0.01830   -0.00330    0.05459
AFIX  23
H4A   2    0.809976    1.045797    0.463280    10.50000   -1.20000
H4B   2    0.807277    0.976450    0.462986    10.50000   -1.20000
AFIX   5
C5    1    0.712030    0.965760    0.455067    10.50000    0.10142    0.12391 =
         0.11258   -0.02734   -0.00125    0.06019
AFIX  23
H5A   2    0.688965    0.918486    0.462429    10.50000   -1.20000
H5B   2    0.713686    0.969789    0.422959    10.50000   -1.20000
AFIX   5
C6    1    0.672049    0.998409    0.474527    10.50000    0.08263    0.09342 =
         0.09462   -0.02192   -0.00963    0.04505
AFIX  13
H6    2    0.684482    1.042052    0.461507    10.50000   -1.20000
AFIX   9
C7    1    0.345020    1.034063    0.509960    10.50000    0.11458    0.12966 =
         0.11741   -0.01050   -0.01434    0.06525
AFIX  13
H7    2    0.372389    1.066034    0.486859    10.50000   -1.20000
AFIX   5
C8    1    0.298269    1.053011    0.535371    10.50000    0.11299    0.12925 =
         0.13162   -0.01770   -0.00405    0.06907
AFIX  23
H8A   2    0.322721    1.100373    0.542470    10.50000   -1.20000
H8B   2    0.284289    1.028252    0.563062    10.50000   -1.20000
AFIX   5
C9    1    0.235457    1.037318    0.507464    10.50000    0.11999    0.12294 =
         0.12557   -0.01703   -0.00387    0.06311
AFIX  23
H9A   2    0.205771    1.046502    0.525110    10.50000   -1.20000
H9B   2    0.249050    1.066326    0.481632    10.50000   -1.20000
AFIX   5
C10   1    0.197299    0.963118    0.492094    10.50000    0.13202    0.13369 =
         0.13870   -0.01539   -0.00021    0.06874
AFIX  23
H10A  2    0.178711    0.934256    0.517810    10.50000   -1.20000
H10B  2    0.160470    0.955926    0.472933    10.50000   -1.20000
AFIX   5
C11   1    0.244059    0.944170    0.466683    10.50000    0.11703    0.12456 =
         0.12545   -0.00965   -0.00480    0.06216
AFIX  23
H11A  2    0.258042    0.968929    0.438992    10.50000   -1.20000
H11B  2    0.219610    0.896808    0.459584    10.50000   -1.20000
AFIX   5
C12   1    0.306862    0.959863    0.494591    10.50000    0.10246    0.12352 =
         0.10837   -0.02397    0.00725    0.05625
AFIX  13
H12   2    0.290125    0.932946    0.521691    10.50000   -1.20000
AFIX   0
PART 0
IN1   6    0.435625    0.717812    0.250000    10.50000    0.05167    0.05078 =
         0.02602   -0.00001    0.00000    0.02584
C13   1    0.401616    0.802955    0.316478    11.00000    0.07508    0.06447 =
         0.05551   -0.01916   -0.00881    0.03116
O3    4    0.344519    0.786587    0.301599    11.00000    0.08016    0.08292 =
         0.05914   -0.03433   -0.02203    0.04347
O4    4    0.441982    0.786404    0.301738    11.00000    0.07453    0.08129 =
         0.06303   -0.03449   -0.01310    0.03825
O5    4    0.333333    0.666667    0.250000    10.16667    0.04946    0.04946 =
         0.03868    0.00000    0.00000    0.02473
O6    4    0.549989    0.774995    0.250000    10.50000    0.05759    0.06920 =
         0.07840   -0.00008    0.00000    0.02880
PART -1
CU1   5    0.420699    0.965323    0.516908    10.50000    0.11164    0.22130 =
         0.13569   -0.13602   -0.06641    0.10914
CU2   5    0.544929    0.966462    0.516459    10.50000    0.10985    0.22896 =
         0.13873   -0.14307   -0.06911    0.11149
O1    4    0.464350    0.929145    0.483265    10.50000    0.09558    0.13481 =
         0.09642   -0.05950   -0.02366    0.06513
O2    4    0.501933    1.003691    0.549225    10.50000    0.09661    0.13563 =
         0.10632   -0.07532   -0.02561    0.06384
N1    3    0.352190    0.941794    0.474698    10.50000    0.08931    0.11104 =
         0.09208   -0.03336   -0.00106    0.05306
N2    3    0.594136    0.946903    0.473696    10.50000    0.08623    0.11169 =
         0.09891   -0.03205   -0.01062    0.05101
N3    3    0.386035    1.017386    0.544807    10.50000    0.09253    0.10953 =
         0.09170   -0.03016   -0.00567    0.05261
N4    3    0.628090    1.018103    0.545659    10.50000    0.08479    0.10366 =
         0.08831   -0.03309   -0.01544    0.05180
C14   1    0.415960    0.834771    0.361690    10.50000    0.07149    0.06275 =
         0.05408   -0.01021   -0.00295    0.02560
C15   1    0.375474    0.854743    0.381604    10.50000    0.07159    0.07283 =
         0.06369   -0.01474   -0.00545    0.03311
AFIX  43
H15   2    0.335354    0.844404    0.367809    10.50000   -1.20000
AFIX   0
C16   1    0.391661    0.890009    0.421768    10.50000    0.07945    0.08340 =
         0.07458   -0.02623   -0.00977    0.03860
C17   1    0.452128    0.904595    0.442425    10.50000    0.08354    0.09399 =
         0.07832   -0.03544   -0.01003    0.04423
C18   1    0.497788    0.889970    0.421766    10.50000    0.07992    0.08720 =
         0.07829   -0.02785   -0.00540    0.04038
C19   1    0.477682    0.854730    0.381932    10.50000    0.07367    0.07448 =
         0.06639   -0.01736    0.00041    0.03556
AFIX  43
H19   2    0.506963    0.843843    0.367990    10.50000   -1.20000
AFIX   0
C20   1    0.343212    0.904354    0.441089    10.50000    0.09049    0.10536 =
         0.09236   -0.02445   -0.00551    0.04749
AFIX  43
H20   2    0.301181    0.884423    0.427824    10.50000   -1.20000
AFIX   0
C21   1    0.561674    0.906761    0.440148    10.50000    0.09154    0.10015 =
         0.08867   -0.02740   -0.00801    0.05076
AFIX  43
H21   2    0.583267    0.886560    0.426543    10.50000   -1.20000
AFIX   0
C22   1    0.639504    1.058189    0.577801    10.50000    0.07456    0.08496 =
         0.07570   -0.03395   -0.01145    0.04285
AFIX  43
H22   2    0.682253    1.079183    0.590038    10.50000   -1.20000
AFIX   0
C23   1    0.417788    1.056191    0.578589    10.50000    0.07360    0.08662 =
         0.07379   -0.03293   -0.00761    0.04059
AFIX  43
H23   2    0.395536    1.075168    0.592889    10.50000   -1.20000
AFIX   0
C24   1    0.590297    1.074055    0.597237    10.50000    0.07686    0.08400 =
         0.07052   -0.02719   -0.01192    0.04099
C25   1    0.524842    1.049615    0.580752    10.50000    0.07935    0.09381 =
         0.07557   -0.03522   -0.01131    0.04389
C26   1    0.483703    1.074001    0.597110    10.50000    0.07184    0.08436 =
         0.06901   -0.02787   -0.00662    0.03876
C27   1    0.507533    1.119117    0.631768    10.50000    0.06707    0.06780 =
         0.05575   -0.01909   -0.00271    0.02991
AFIX  43
H27   2    0.480324    1.134030    0.644058    10.50000   -1.20000
AFIX   0
C28   1    0.570256    1.142172    0.648278    10.50000    0.05937    0.05477 =
         0.04528   -0.01563   -0.00320    0.02211
C29   1    0.610606    1.119301    0.631770    10.50000    0.06639    0.06590 =
         0.05467   -0.01753   -0.00722    0.02814
AFIX  43
H29   2    0.652734    1.134714    0.644192    10.50000   -1.20000
AFIX   0
HKLF 4




REM  F:\ZM-2\work\cu_ZM_2_0m_a.res in P-31c
REM R1 =  0.0597 for    7505 Fo > 4sig(Fo)  and  0.0693 for all    9058 data
REM    342 parameters refined using    226 restraints

END

WGHT      0.1299      8.9157

REM Highest difference peak  0.739,  deepest hole -0.557,  1-sigma level  0.082
Q1    1   0.4415  0.9991  0.5002  11.00000  0.05    0.60
Q2    1   0.5676  0.9137  0.4848  11.00000  0.05    0.58
Q3    1   0.7684  1.0846  0.5166  11.00000  0.05    0.52
Q4    1   0.4261  0.9171  0.5249  11.00000  0.05    0.51
Q5    1   0.2712  0.9955  0.5612  11.00000  0.05    0.51
Q6    1   0.4952  0.9270  0.5358  11.00000  0.05    0.48
Q7    1   0.3751  0.9854  0.5621  11.00000  0.05    0.47
Q8    1   0.3440  0.9099  0.4955  11.00000  0.05    0.46
Q9    1   0.6855  0.9163  0.4831  11.00000  0.05    0.46
Q10   1   0.2765  1.0033  0.4393  11.00000  0.05    0.46
;
_shelx_res_checksum              93104
_shelx_fab_file
;
    0    1    0    392.07      0.00
   -1    2    0    140.78      0.00
    0    2    0      6.70      0.00
   -1    3    0    142.77      0.00
    0    3    0    -14.72      0.00
   -2    4    0     23.96      0.00
   -1    4    0    -43.41      0.00
    0    4    0    -45.01      0.00
   -2    5    0     12.21      0.00
   -1    5    0    -38.12      0.00
    0    5    0     34.68      0.00
   -3    6    0     99.09      0.00
   -2    6    0    -44.58      0.00
   -1    6    0     20.31      0.00
    0    6    0     59.59      0.00
   -3    7    0     76.08      0.00
   -2    7    0    -16.16      0.00
   -1    7    0    -25.53      0.00
    0    7    0    -47.76      0.00
   -4    8    0     26.57      0.00
   -3    8    0    -30.56      0.00
   -2    8    0      2.92      0.00
   -1    8    0     13.22      0.00
    0    8    0     26.65      0.00
   -4    9    0     -4.18      0.00
   -3    9    0     -5.17      0.00
   -2    9    0     39.94      0.00
   -1    9    0     13.82      0.00
    0    9    0    -18.07      0.00
   -5   10    0     57.23      0.00
   -4   10    0     -4.86      0.00
   -3   10    0      4.86      0.00
   -2   10    0     -0.52      0.00
   -1   10    0    -11.42      0.00
    0   10    0      2.51      0.00
   -5   11    0     26.19      0.00
   -4   11    0     -8.89      0.00
   -3   11    0    -13.90      0.00
   -2   11    0     17.92      0.00
   -1   11    0      9.78      0.00
    0   11    0     11.03      0.00
   -6   12    0     19.41      0.00
   -5   12    0     -1.59      0.00
   -4   12    0      0.71      0.00
   -3   12    0     18.10      0.00
   -2   12    0      0.67      0.00
   -1   12    0     10.76      0.00
    0   12    0      3.88      0.00
   -6   13    0     -1.45      0.00
   -5   13    0     -2.54      0.00
   -4   13    0     19.03      0.00
   -3   13    0     10.76      0.00
   -2   13    0     -7.62      0.00
   -1   13    0      4.24      0.00
    0   13    0     -7.61      0.00
   -7   14    0     16.42      0.00
   -6   14    0      5.61      0.00
   -5   14    0      1.50      0.00
   -4   14    0     10.84      0.00
   -3   14    0      0.35      0.00
   -2   14    0      8.67      0.00
   -1   14    0      7.19      0.00
    0   14    0      6.88      0.00
   -7   15    0     11.81      0.00
   -6   15    0     -2.04      0.00
   -5   15    0      3.92      0.00
   -4   15    0      0.30      0.00
   -3   15    0      5.76      0.00
   -2   15    0     16.51      0.00
   -1   15    0      7.67      0.00
    0   15    0      1.87      0.00
   -8   16    0      8.15      0.00
   -7   16    0      1.83      0.00
   -6   16    0      1.29      0.00
   -5   16    0     -3.60      0.00
   -4   16    0     -4.33      0.00
   -3   16    0      5.49      0.00
   -2   16    0      4.21      0.00
   -1   16    0     -0.93      0.00
    0   16    0      6.15      0.00
   -8   17    0     -1.47      0.00
   -7   17    0      1.03      0.00
   -6   17    0     11.38      0.00
   -5   17    0      7.96      0.00
   -4   17    0     -4.20      0.00
   -3   17    0     -2.93      0.00
   -2   17    0     -4.30      0.00
   -1   17    0      0.86      0.00
    0   17    0     10.33      0.00
   -9   18    0      9.00      0.00
   -8   18    0      0.41      0.00
   -7   18    0      2.73      0.00
   -6   18    0      4.82      0.00
   -5   18    0      2.99      0.00
   -4   18    0     -0.06      0.00
   -3   18    0     -0.85      0.00
   -2   18    0     -4.11      0.00
   -1   18    0      1.99      0.00
    0   18    0      3.08      0.00
   -9   19    0      6.48      0.00
   -8   19    0     -0.81      0.00
   -7   19    0     -0.93      0.00
   -6   19    0     -3.37      0.00
   -5   19    0      0.42      0.00
   -4   19    0      5.37      0.00
   -3   19    0     -0.75      0.00
   -2   19    0     -0.44      0.00
   -1   19    0      2.05      0.00
    0   19    0      2.53      0.00
  -10   20    0      7.45      0.00
   -9   20    0     -2.32      0.00
   -8   20    0      4.03      0.00
   -7   20    0      4.95      0.00
   -6   20    0     -2.64      0.00
   -5   20    0     -0.11      0.00
   -4   20    0      3.73      0.00
   -3   20    0     -0.29      0.00
   -2   20    0      4.69      0.00
   -1   20    0      4.46      0.00
    0   20    0      1.09      0.00
  -10   21    0     -4.75      0.00
   -9   21    0      0.01      0.00
   -8   21    0      4.94      0.00
   -7   21    0      6.46      0.00
   -6   21    0      2.45      0.00
   -5   21    0      1.36      0.00
   -4   21    0     -0.78      0.00
   -3   21    0      0.54      0.00
   -2   21    0      4.29      0.00
   -1   21    0      1.14      0.00
    0   21    0     -0.95      0.00
  -11   22    0      2.74      0.00
  -10   22    0      0.70      0.00
   -9   22    0     -1.65      0.00
   -8   22    0     -1.67      0.00
   -7   22    0      0.51      0.00
   -6   22    0      2.94      0.00
   -5   22    0      5.02      0.00
   -4   22    0      1.01      0.00
   -3   22    0     -0.39      0.00
   -2   22    0     -2.66      0.00
   -1   22    0     -1.44      0.00
    0   22    0      2.50      0.00
  -11   23    0      0.04      0.00
  -10   23    0     -2.81      0.00
   -9   23    0     -0.82      0.00
   -8   23    0     -1.33      0.00
   -7   23    0      2.14      0.00
   -6   23    0      3.25      0.00
   -5   23    0      2.75      0.00
   -4   23    0      0.49      0.00
   -3   23    0     -1.34      0.00
   -2   23    0     -1.49      0.00
   -1   23    0      1.98      0.00
    0   23    0     -0.49      0.00
  -12   24    0     -2.62      0.00
  -11   24    0     -0.47      0.00
  -10   24    0      1.56      0.00
   -9   24    0      0.83      0.00
   -8   24    0      1.62      0.00
   -7   24    0     -0.25      0.00
   -6   24    0     -1.13      0.00
   -5   24    0     -0.75      0.00
   -4   24    0      2.30      0.00
   -3   24    0     -0.62      0.00
   -2   24    0     -1.55      0.00
   -1   24    0     -0.07      0.00
    0   24    0     -1.39      0.00
  -12   25    0      0.59      0.00
  -11   25    0      0.90      0.00
  -10   25    0     -1.61      0.00
   -9   25    0      0.58      0.00
   -8   25    0      0.07      0.00
   -7   25    0      0.76      0.00
   -6   25    0     -0.05      0.00
   -5   25    0      0.02      0.00
   -4   25    0      0.83      0.00
   -3   25    0     -3.25      0.00
   -2   25    0     -2.25      0.00
   -1   25    0     -1.92      0.00
  -13   26    0      4.84      0.00
  -12   26    0      0.94      0.00
  -11   26    0     -1.76      0.00
  -10   26    0     -3.74      0.00
   -9   26    0     -0.98      0.00
   -8   26    0      1.94      0.00
   -7   26    0      0.65      0.00
   -6   26    0     -0.02      0.00
   -5   26    0     -1.33      0.00
   -4   26    0     -1.49      0.00
   -3   26    0     -4.26      0.00
  -13   27    0      0.47      0.00
  -12   27    0      1.08      0.00
  -11   27    0      2.84      0.00
  -10   27    0      0.17      0.00
   -9   27    0      1.70      0.00
   -8   27    0      1.11      0.00
   -7   27    0      0.15      0.00
   -6   27    0     -2.95      0.00
  -14   28    0     -1.64      0.00
  -13   28    0     -0.14      0.00
  -12   28    0     -0.22      0.00
  -11   28    0      2.77      0.00
  -10   28    0      0.67      0.00
    0    2    1     77.50      0.00
    1    2    1    -33.54      0.00
   -1    3    1     66.64      0.00
    0    3    1    -65.55      0.00
    1    3    1    -65.48      0.00
    2    3    1     40.71      0.00
   -1    4    1    -75.40      0.00
    0    4    1    -47.47      0.00
    1    4    1      4.73      0.00
    2    4    1     32.43      0.00
    3    4    1     24.09      0.00
   -2    5    1     64.04      0.00
   -1    5    1    -10.02      0.00
    0    5    1     -1.63      0.00
    1    5    1    -43.98      0.00
    2    5    1    -25.88      0.00
    3    5    1     11.69      0.00
    4    5    1     21.50      0.00
   -2    6    1     45.43      0.00
   -1    6    1    -37.42      0.00
    0    6    1     -7.00      0.00
    1    6    1    -14.42      0.00
    2    6    1      5.61      0.00
    3    6    1     27.12      0.00
    4    6    1     -3.71      0.00
    5    6    1      0.12      0.00
   -3    7    1     24.09      0.00
   -2    7    1    -27.45      0.00
   -1    7    1    -12.69      0.00
    0    7    1     43.15      0.00
    1    7    1     -3.31      0.00
    2    7    1     -0.45      0.00
    3    7    1    -20.01      0.00
    4    7    1    -13.29      0.00
    5    7    1     12.96      0.00
    6    7    1     13.43      0.00
   -3    8    1     12.85      0.00
   -2    8    1      5.07      0.00
   -1    8    1      2.84      0.00
    0    8    1     14.73      0.00
    1    8    1    -12.89      0.00
    2    8    1     -2.61      0.00
    3    8    1     -9.52      0.00
    4    8    1     -2.70      0.00
    5    8    1     -2.87      0.00
    6    8    1      2.96      0.00
    7    8    1      5.05      0.00
   -4    9    1     21.69      0.00
   -3    9    1     22.83      0.00
   -2    9    1     -1.97      0.00
   -1    9    1    -14.90      0.00
    0    9    1    -21.07      0.00
    1    9    1      0.58      0.00
    2    9    1     12.76      0.00
    3    9    1      3.99      0.00
    4    9    1     -8.19      0.00
    5    9    1     -6.46      0.00
    6    9    1     -6.48      0.00
    7    9    1      5.71      0.00
    8    9    1      7.09      0.00
   -4   10    1      1.63      0.00
   -3   10    1    -17.82      0.00
   -2   10    1     -2.41      0.00
   -1   10    1     -3.29      0.00
    0   10    1      4.58      0.00
    1   10    1      9.10      0.00
    2   10    1     -4.74      0.00
    3   10    1      0.24      0.00
    4   10    1      1.95      0.00
    5   10    1     -2.91      0.00
    6   10    1     -1.49      0.00
    7   10    1      5.25      0.00
    8   10    1      0.75      0.00
    9   10    1     -4.00      0.00
   -5   11    1      0.99      0.00
   -4   11    1    -18.89      0.00
   -3   11    1    -10.04      0.00
   -2   11    1     13.48      0.00
   -1   11    1      9.23      0.00
    0   11    1      0.39      0.00
    1   11    1     -6.75      0.00
    2   11    1     -8.76      0.00
    3   11    1      3.37      0.00
    4   11    1      8.69      0.00
    5   11    1      0.92      0.00
    6   11    1     -2.95      0.00
    7   11    1     -1.39      0.00
    8   11    1     -5.66      0.00
    9   11    1      4.01      0.00
   10   11    1      0.16      0.00
   -5   12    1     12.03      0.00
   -4   12    1     -2.95      0.00
   -3   12    1      2.12      0.00
   -2   12    1     -5.76      0.00
   -1   12    1     -7.24      0.00
    0   12    1      1.58      0.00
    1   12    1      2.42      0.00
    2   12    1     -4.59      0.00
    3   12    1      2.32      0.00
    4   12    1     -2.70      0.00
    5   12    1     -2.43      0.00
    6   12    1      1.75      0.00
    7   12    1     -2.92      0.00
    8   12    1      1.15      0.00
    9   12    1      3.70      0.00
   10   12    1     -1.45      0.00
   11   12    1     -0.07      0.00
   -6   13    1     12.92      0.00
   -5   13    1      0.66      0.00
   -4   13    1     -7.41      0.00
   -3   13    1      0.72      0.00
   -2   13    1     -7.78      0.00
   -1   13    1     -2.28      0.00
    0   13    1      8.81      0.00
    1   13    1      2.29      0.00
    2   13    1     -0.78      0.00
    3   13    1     -1.43      0.00
    4   13    1     -8.63      0.00
    5   13    1      1.48      0.00
    6   13    1      3.63      0.00
    7   13    1     -0.58      0.00
    8   13    1      3.47      0.00
    9   13    1     -1.04      0.00
   10   13    1     -1.91      0.00
   11   13    1      3.47      0.00
   12   13    1      2.59      0.00
   -6   14    1      2.41      0.00
   -5   14    1     -4.57      0.00
   -4   14    1      0.59      0.00
   -3   14    1      4.43      0.00
   -2   14    1     -4.29      0.00
   -1   14    1      1.30      0.00
    0   14    1     -1.62      0.00
    1   14    1     -2.00      0.00
    2   14    1      3.13      0.00
    3   14    1     -0.29      0.00
    4   14    1     -1.88      0.00
    5   14    1      1.95      0.00
    6   14    1     -0.06      0.00
    7   14    1      0.02      0.00
    8   14    1      3.18      0.00
    9   14    1     -2.22      0.00
   10   14    1      0.39      0.00
   11   14    1      0.55      0.00
   12   14    1     -2.00      0.00
   13   14    1      0.63      0.00
   -7   15    1      2.93      0.00
   -6   15    1     -6.13      0.00
   -5   15    1     -3.20      0.00
   -4   15    1      7.36      0.00
   -3   15    1      4.55      0.00
   -2   15    1     -1.08      0.00
   -1   15    1     -1.23      0.00
    0   15    1     -7.09      0.00
    1   15    1      1.07      0.00
    2   15    1      2.79      0.00
    3   15    1     -0.70      0.00
    4   15    1     -0.93      0.00
    5   15    1     -6.69      0.00
    6   15    1     -4.81      0.00
    7   15    1      2.78      0.00
    8   15    1      0.98      0.00
    9   15    1     -1.96      0.00
   10   15    1     -1.02      0.00
   11   15    1     -2.69      0.00
   12   15    1      0.93      0.00
   13   15    1      0.16      0.00
   -7   16    1      4.71      0.00
   -6   16    1     -1.44      0.00
   -5   16    1      0.61      0.00
   -4   16    1     -1.92      0.00
   -3   16    1     -2.38      0.00
   -2   16    1      2.26      0.00
   -1   16    1      0.69      0.00
    0   16    1      0.36      0.00
    1   16    1      3.57      0.00
    2   16    1     -0.51      0.00
    3   16    1     -2.46      0.00
    4   16    1      0.11      0.00
    5   16    1     -2.19      0.00
    6   16    1     -0.07      0.00
    7   16    1      0.77      0.00
    8   16    1     -1.11      0.00
    9   16    1      1.77      0.00
   10   16    1     -1.54      0.00
   11   16    1     -0.83      0.00
   12   16    1      0.12      0.00
   -8   17    1      5.64      0.00
   -7   17    1      6.06      0.00
   -6   17    1     -2.75      0.00
   -5   17    1     -3.41      0.00
   -4   17    1     -8.02      0.00
   -3   17    1     -1.81      0.00
   -2   17    1      3.63      0.00
   -1   17    1      2.91      0.00
    0   17    1      2.95      0.00
    1   17    1     -0.28      0.00
    2   17    1     -2.20      0.00
    3   17    1      1.93      0.00
    4   17    1      1.47      0.00
    5   17    1      0.06      0.00
    6   17    1     -0.29      0.00
    7   17    1     -1.79      0.00
    8   17    1      0.29      0.00
    9   17    1      2.81      0.00
   10   17    1     -0.45      0.00
   11   17    1      0.98      0.00
   -8   18    1      0.27      0.00
   -7   18    1     -2.02      0.00
   -6   18    1      0.86      0.00
   -5   18    1      1.75      0.00
   -4   18    1     -2.28      0.00
   -3   18    1     -0.81      0.00
   -2   18    1     -1.31      0.00
   -1   18    1      0.42      0.00
    0   18    1     -0.45      0.00
    1   18    1     -0.80      0.00
    2   18    1      1.09      0.00
    3   18    1     -0.18      0.00
    4   18    1     -0.42      0.00
    5   18    1      0.42      0.00
    6   18    1      0.26      0.00
    7   18    1     -2.59      0.00
    8   18    1     -0.15      0.00
    9   18    1      0.29      0.00
   10   18    1     -0.45      0.00
   -9   19    1     -4.92      0.00
   -8   19    1     -5.63      0.00
   -7   19    1     -3.07      0.00
   -6   19    1      2.32      0.00
   -5   19    1      1.91      0.00
   -4   19    1      0.29      0.00
   -3   19    1     -1.02      0.00
   -2   19    1     -0.66      0.00
   -1   19    1     -0.53      0.00
    0   19    1      4.14      0.00
    1   19    1     -1.28      0.00
    2   19    1      1.50      0.00
    3   19    1      0.42      0.00
    4   19    1     -1.35      0.00
    5   19    1      0.91      0.00
    6   19    1      1.15      0.00
    7   19    1      0.21      0.00
    8   19    1     -2.36      0.00
   -9   20    1      3.55      0.00
   -8   20    1     -0.18      0.00
   -7   20    1     -0.98      0.00
   -6   20    1     -1.63      0.00
   -5   20    1     -7.34      0.00
   -4   20    1      1.39      0.00
   -3   20    1      3.51      0.00
   -2   20    1     -0.60      0.00
   -1   20    1      2.34      0.00
    0   20    1     -4.01      0.00
    1   20    1     -2.02      0.00
    2   20    1      0.49      0.00
    3   20    1      1.43      0.00
    4   20    1      1.38      0.00
    5   20    1      0.83      0.00
    6   20    1     -1.79      0.00
    7   20    1     -1.14      0.00
  -10   21    1      2.67      0.00
   -9   21    1      4.40      0.00
   -8   21    1      3.13      0.00
   -7   21    1      1.92      0.00
   -6   21    1     -4.93      0.00
   -5   21    1     -2.11      0.00
   -4   21    1     -0.11      0.00
   -3   21    1      1.03      0.00
   -2   21    1      0.52      0.00
   -1   21    1     -0.80      0.00
    0   21    1     -2.27      0.00
    1   21    1      2.32      0.00
    2   21    1      0.51      0.00
    3   21    1      0.06      0.00
    4   21    1      1.08      0.00
    5   21    1     -0.72      0.00
    6   21    1     -1.77      0.00
  -10   22    1     -0.46      0.00
   -9   22    1      1.28      0.00
   -8   22    1      2.98      0.00
   -7   22    1      1.51      0.00
   -6   22    1      2.81      0.00
   -5   22    1      0.16      0.00
   -4   22    1     -1.33      0.00
   -3   22    1     -2.55      0.00
   -2   22    1      1.72      0.00
   -1   22    1      1.76      0.00
    0   22    1      2.81      0.00
    1   22    1      0.56      0.00
    2   22    1     -1.17      0.00
    3   22    1      0.91      0.00
    4   22    1     -0.09      0.00
  -11   23    1      0.86      0.00
  -10   23    1     -1.45      0.00
   -9   23    1     -3.43      0.00
   -8   23    1      1.65      0.00
   -7   23    1      1.81      0.00
   -6   23    1      1.27      0.00
   -5   23    1     -1.11      0.00
   -4   23    1     -0.62      0.00
   -3   23    1     -0.07      0.00
   -2   23    1      0.52      0.00
   -1   23    1     -0.13      0.00
    0   23    1     -2.61      0.00
    1   23    1     -1.52      0.00
    2   23    1      1.38      0.00
    3   23    1      0.13      0.00
  -11   24    1      2.55      0.00
  -10   24    1      0.30      0.00
   -9   24    1     -0.81      0.00
   -8   24    1     -1.46      0.00
   -7   24    1     -1.62      0.00
   -6   24    1      0.58      0.00
   -5   24    1      2.55      0.00
   -4   24    1      0.91      0.00
   -3   24    1     -0.59      0.00
   -2   24    1     -1.10      0.00
   -1   24    1     -1.53      0.00
    0   24    1      0.07      0.00
    1   24    1      1.79      0.00
  -12   25    1      0.74      0.00
  -11   25    1      0.45      0.00
  -10   25    1     -1.27      0.00
   -9   25    1      2.81      0.00
   -8   25    1      0.49      0.00
   -7   25    1      0.72      0.00
   -6   25    1      0.89      0.00
   -5   25    1     -0.12      0.00
   -4   25    1      0.06      0.00
   -3   25    1      2.14      0.00
   -2   25    1      0.22      0.00
   -1   25    1      2.28      0.00
  -12   26    1     -1.72      0.00
  -11   26    1     -3.04      0.00
  -10   26    1     -1.18      0.00
   -9   26    1      2.49      0.00
   -8   26    1      1.59      0.00
   -7   26    1      0.77      0.00
   -6   26    1     -2.83      0.00
   -5   26    1     -0.92      0.00
   -4   26    1      0.19      0.00
   -3   26    1     -0.65      0.00
  -13   27    1      0.13      0.00
  -12   27    1      1.59      0.00
  -11   27    1     -0.57      0.00
  -10   27    1      0.19      0.00
   -9   27    1      0.10      0.00
   -8   27    1     -0.50      0.00
   -7   27    1     -0.96      0.00
   -6   27    1     -2.07      0.00
  -13   28    1      0.79      0.00
  -12   28    1      1.69      0.00
  -11   28    1      0.45      0.00
  -10   28    1     -0.26      0.00
    0    1    2   -106.50      0.00
    1    2    2     91.34      0.00
    2    2    2     -2.61      0.00
   -1    3    2     83.07      0.00
    0    3    2   -107.19      0.00
    1    3    2     20.73      0.00
    2    3    2     -8.27      0.00
    3    3    2     26.10      0.00
   -2    4    2     13.66      0.00
   -1    4    2      4.65      0.00
    0    4    2     55.36      0.00
    1    4    2     29.56      0.00
    2    4    2    -19.25      0.00
    3    4    2     -9.46      0.00
    4    4    2     11.21      0.00
   -2    5    2     -3.07      0.00
   -1    5    2     39.20      0.00
    0    5    2    -30.94      0.00
    1    5    2      0.70      0.00
    2    5    2      4.71      0.00
    3    5    2    -15.29      0.00
    4    5    2      4.41      0.00
    5    5    2     -2.51      0.00
   -3    6    2      7.61      0.00
   -2    6    2    -19.91      0.00
   -1    6    2     -9.38      0.00
    0    6    2      2.22      0.00
    1    6    2      6.66      0.00
    2    6    2     21.44      0.00
    3    6    2     -7.98      0.00
    4    6    2    -13.93      0.00
    5    6    2     -7.17      0.00
    6    6    2      3.63      0.00
   -3    7    2     -4.99      0.00
   -2    7    2     11.90      0.00
   -1    7    2      1.63      0.00
    0    7    2    -12.11      0.00
    1    7    2    -11.37      0.00
    2    7    2      3.58      0.00
    3    7    2      5.44      0.00
    4    7    2     10.58      0.00
    5    7    2      0.13      0.00
    6    7    2      1.59      0.00
    7    7    2     -6.84      0.00
   -4    8    2     -6.40      0.00
   -3    8    2    -11.22      0.00
   -2    8    2     19.63      0.00
   -1    8    2     -9.04      0.00
    0    8    2     11.31      0.00
    1    8    2     -8.10      0.00
    2    8    2      1.83      0.00
    3    8    2      3.78      0.00
    4    8    2      2.65      0.00
    5    8    2      1.79      0.00
    6    8    2      4.76      0.00
    7    8    2     -4.12      0.00
    8    8    2      1.02      0.00
   -4    9    2      9.19      0.00
   -3    9    2     -9.21      0.00
   -2    9    2      6.30      0.00
   -1    9    2     -9.34      0.00
    0    9    2      5.34      0.00
    1    9    2      1.22      0.00
    2    9    2     -3.72      0.00
    3    9    2     -4.48      0.00
    4    9    2      3.88      0.00
    5    9    2     -0.75      0.00
    6    9    2      3.71      0.00
    7    9    2     -0.12      0.00
    8    9    2      0.60      0.00
    9    9    2     -1.75      0.00
   -5   10    2     -2.74      0.00
   -4   10    2    -13.01      0.00
   -3   10    2      5.60      0.00
   -2   10    2      0.98      0.00
   -1   10    2      3.97      0.00
    0   10    2     11.04      0.00
    1   10    2     -1.50      0.00
    2   10    2     -6.23      0.00
    3   10    2     -0.51      0.00
    4   10    2      0.24      0.00
    5   10    2      2.03      0.00
    6   10    2      1.23      0.00
    7   10    2     -1.53      0.00
    8   10    2     -0.49      0.00
    9   10    2     -1.88      0.00
   10   10    2     -0.97      0.00
   -5   11    2     -7.16      0.00
   -4   11    2     10.26      0.00
   -3   11    2      6.18      0.00
   -2   11    2     -3.82      0.00
   -1   11    2     -2.71      0.00
    0   11    2     -2.84      0.00
    1   11    2      0.04      0.00
    2   11    2      2.83      0.00
    3   11    2      0.03      0.00
    4   11    2      3.39      0.00
    5   11    2      3.66      0.00
    6   11    2     -1.07      0.00
    7   11    2      0.61      0.00
    8   11    2      0.82      0.00
    9   11    2     -0.75      0.00
   10   11    2      2.79      0.00
   11   11    2     -0.14      0.00
   -6   12    2      1.08      0.00
   -5   12    2      1.00      0.00
   -4   12    2      0.95      0.00
   -3   12    2     -3.61      0.00
   -2   12    2     -5.12      0.00
   -1   12    2     -1.16      0.00
    0   12    2     -2.51      0.00
    1   12    2      1.59      0.00
    2   12    2     -0.53      0.00
    3   12    2     -1.75      0.00
    4   12    2      2.65      0.00
    5   12    2     -1.53      0.00
    6   12    2     -2.50      0.00
    7   12    2      0.83      0.00
    8   12    2     -1.55      0.00
    9   12    2      0.43      0.00
   10   12    2      0.50      0.00
   11   12    2      1.17      0.00
   12   12    2      0.35      0.00
   -6   13    2      1.01      0.00
   -5   13    2      0.81      0.00
   -4   13    2      0.71      0.00
   -3   13    2      0.16      0.00
   -2   13    2      4.34      0.00
   -1   13    2      2.88      0.00
    0   13    2     -3.47      0.00
    1   13    2     -1.54      0.00
    2   13    2     -2.22      0.00
    3   13    2      2.44      0.00
    4   13    2     -0.09      0.00
    5   13    2      1.18      0.00
    6   13    2      1.37      0.00
    7   13    2     -1.31      0.00
    8   13    2     -1.15      0.00
    9   13    2      1.69      0.00
   10   13    2      1.57      0.00
   11   13    2     -0.72      0.00
   12   13    2      0.27      0.00
   13   13    2     -1.75      0.00
   -7   14    2     -6.66      0.00
   -6   14    2      4.25      0.00
   -5   14    2     -2.66      0.00
   -4   14    2      0.97      0.00
   -3   14    2     -0.18      0.00
   -2   14    2     -1.09      0.00
   -1   14    2     -0.94      0.00
    0   14    2     -1.48      0.00
    1   14    2     -1.13      0.00
    2   14    2     -0.76      0.00
    3   14    2      4.24      0.00
    4   14    2     -1.72      0.00
    5   14    2      1.24      0.00
    6   14    2      1.67      0.00
    7   14    2     -2.27      0.00
    8   14    2      0.59      0.00
    9   14    2     -0.10      0.00
   10   14    2      0.31      0.00
   11   14    2     -0.03      0.00
   12   14    2     -0.54      0.00
   13   14    2     -1.31      0.00
   14   14    2      0.54      0.00
   -7   15    2     -4.55      0.00
   -6   15    2      4.31      0.00
   -5   15    2      0.72      0.00
   -4   15    2      3.95      0.00
   -3   15    2     -1.88      0.00
   -2   15    2     -3.75      0.00
   -1   15    2     -2.09      0.00
    0   15    2      1.08      0.00
    1   15    2     -0.13      0.00
    2   15    2      1.05      0.00
    3   15    2      1.74      0.00
    4   15    2      0.36      0.00
    5   15    2      2.02      0.00
    6   15    2     -1.58      0.00
    7   15    2      1.08      0.00
    8   15    2      0.36      0.00
    9   15    2      0.46      0.00
   10   15    2     -1.30      0.00
   11   15    2      0.72      0.00
   12   15    2     -0.47      0.00
   13   15    2      0.67      0.00
   -8   16    2      1.58      0.00
   -7   16    2      0.70      0.00
   -6   16    2      1.09      0.00
   -5   16    2      2.17      0.00
   -4   16    2      2.02      0.00
   -3   16    2      2.66      0.00
   -2   16    2     -0.80      0.00
   -1   16    2      1.00      0.00
    0   16    2      1.14      0.00
    1   16    2      1.43      0.00
    2   16    2      2.68      0.00
    3   16    2      0.38      0.00
    4   16    2      3.00      0.00
    5   16    2      1.19      0.00
    6   16    2     -0.30      0.00
    7   16    2      1.12      0.00
    8   16    2     -0.90      0.00
    9   16    2      0.05      0.00
   10   16    2      0.86      0.00
   11   16    2     -1.23      0.00
   12   16    2     -1.84      0.00
   -8   17    2      0.09      0.00
   -7   17    2     -0.04      0.00
   -6   17    2     -0.16      0.00
   -5   17    2     -1.38      0.00
   -4   17    2     -1.16      0.00
   -3   17    2      3.75      0.00
   -2   17    2      2.54      0.00
   -1   17    2      3.00      0.00
    0   17    2     -0.87      0.00
    1   17    2      2.09      0.00
    2   17    2      2.01      0.00
    3   17    2      0.87      0.00
    4   17    2      2.42      0.00
    5   17    2     -2.64      0.00
    6   17    2      1.63      0.00
    7   17    2     -1.59      0.00
    8   17    2     -0.68      0.00
    9   17    2     -0.25      0.00
   10   17    2      0.23      0.00
   11   17    2      1.17      0.00
   -9   18    2     -0.87      0.00
   -8   18    2      0.15      0.00
   -7   18    2      0.74      0.00
   -6   18    2     -2.00      0.00
   -5   18    2      1.56      0.00
   -4   18    2     -1.50      0.00
   -3   18    2      1.35      0.00
   -2   18    2      3.02      0.00
   -1   18    2     -0.15      0.00
    0   18    2      1.03      0.00
    1   18    2     -0.89      0.00
    2   18    2     -1.43      0.00
    3   18    2      1.45      0.00
    4   18    2      0.29      0.00
    5   18    2     -2.05      0.00
    6   18    2      2.35      0.00
    7   18    2     -0.84      0.00
    8   18    2     -1.17      0.00
    9   18    2     -2.34      0.00
   10   18    2      1.55      0.00
   -9   19    2     -1.42      0.00
   -8   19    2     -0.49      0.00
   -7   19    2      0.27      0.00
   -6   19    2      0.79      0.00
   -5   19    2      0.17      0.00
   -4   19    2      0.26      0.00
   -3   19    2      1.57      0.00
   -2   19    2      2.40      0.00
   -1   19    2     -0.04      0.00
    0   19    2      0.08      0.00
    1   19    2     -2.73      0.00
    2   19    2     -1.28      0.00
    3   19    2      1.10      0.00
    4   19    2     -1.02      0.00
    5   19    2      0.72      0.00
    6   19    2      1.19      0.00
    7   19    2      0.26      0.00
    8   19    2     -0.85      0.00
  -10   20    2     -0.66      0.00
   -9   20    2     -1.21      0.00
   -8   20    2      0.06      0.00
   -7   20    2     -2.32      0.00
   -6   20    2      0.44      0.00
   -5   20    2      1.74      0.00
   -4   20    2      1.14      0.00
   -3   20    2     -0.10      0.00
   -2   20    2     -1.62      0.00
   -1   20    2     -1.70      0.00
    0   20    2     -1.39      0.00
    1   20    2     -0.04      0.00
    2   20    2     -0.94      0.00
    3   20    2      1.42      0.00
    4   20    2      0.73      0.00
    5   20    2     -2.08      0.00
    6   20    2     -0.62      0.00
    7   20    2      0.10      0.00
  -10   21    2      1.16      0.00
   -9   21    2      0.92      0.00
   -8   21    2     -0.81      0.00
   -7   21    2     -1.10      0.00
   -6   21    2      0.00      0.00
   -5   21    2     -0.34      0.00
   -4   21    2      3.53      0.00
   -3   21    2     -0.21      0.00
   -2   21    2      1.14      0.00
   -1   21    2     -0.85      0.00
    0   21    2     -0.29      0.00
    1   21    2     -0.87      0.00
    2   21    2     -0.93      0.00
    3   21    2      0.21      0.00
    4   21    2     -1.02      0.00
    5   21    2      0.03      0.00
    6   21    2      0.78      0.00
  -11   22    2     -0.28      0.00
  -10   22    2     -0.83      0.00
   -9   22    2      2.90      0.00
   -8   22    2     -0.35      0.00
   -7   22    2      0.09      0.00
   -6   22    2      0.08      0.00
   -5   22    2     -0.07      0.00
   -4   22    2      2.23      0.00
   -3   22    2      0.94      0.00
   -2   22    2     -0.19      0.00
   -1   22    2     -0.07      0.00
    0   22    2     -0.12      0.00
    1   22    2      0.03      0.00
    2   22    2     -3.00      0.00
    3   22    2     -0.77      0.00
    4   22    2     -1.60      0.00
  -11   23    2      0.44      0.00
  -10   23    2      1.42      0.00
   -9   23    2     -0.64      0.00
   -8   23    2      1.82      0.00
   -7   23    2      0.45      0.00
   -6   23    2      0.08      0.00
   -5   23    2     -0.62      0.00
   -4   23    2     -2.52      0.00
   -3   23    2      1.62      0.00
   -2   23    2     -0.19      0.00
   -1   23    2      0.35      0.00
    0   23    2     -2.28      0.00
    1   23    2     -0.19      0.00
    2   23    2      0.08      0.00
    3   23    2      0.84      0.00
  -12   24    2     -0.38      0.00
  -11   24    2      0.68      0.00
  -10   24    2      0.56      0.00
   -9   24    2      0.59      0.00
   -8   24    2     -0.50      0.00
   -7   24    2     -1.14      0.00
   -6   24    2      0.20      0.00
   -5   24    2     -0.24      0.00
   -4   24    2      0.70      0.00
   -3   24    2      0.17      0.00
   -2   24    2     -0.14      0.00
   -1   24    2      0.18      0.00
    0   24    2      0.75      0.00
    1   24    2      1.07      0.00
  -12   25    2      0.52      0.00
  -11   25    2     -0.23      0.00
  -10   25    2     -1.70      0.00
   -9   25    2     -1.50      0.00
   -8   25    2     -0.58      0.00
   -7   25    2     -0.55      0.00
   -6   25    2      1.35      0.00
   -5   25    2     -0.56      0.00
   -4   25    2      0.43      0.00
   -3   25    2      0.26      0.00
   -2   25    2      1.08      0.00
   -1   25    2      0.33      0.00
  -13   26    2     -2.53      0.00
  -12   26    2      1.38      0.00
  -11   26    2     -0.62      0.00
  -10   26    2      0.90      0.00
   -9   26    2     -0.30      0.00
   -8   26    2      0.66      0.00
   -7   26    2     -0.22      0.00
   -6   26    2     -1.31      0.00
   -5   26    2      0.73      0.00
   -4   26    2      0.13      0.00
   -3   26    2      0.77      0.00
  -13   27    2     -0.46      0.00
  -12   27    2     -0.13      0.00
  -11   27    2     -1.04      0.00
  -10   27    2     -1.43      0.00
   -9   27    2     -2.11      0.00
   -8   27    2     -0.02      0.00
   -7   27    2      0.00      0.00
   -6   27    2      0.73      0.00
  -14   28    2      0.67      0.00
  -13   28    2      0.38      0.00
  -12   28    2     -1.73      0.00
  -11   28    2      1.59      0.00
  -10   28    2      0.55      0.00
    0    1    3    -42.10      0.00
    0    2    3    -36.65      0.00
    1    2    3    110.52      0.00
   -1    3    3     87.85      0.00
    0    3    3    -59.90      0.00
    1    3    3     28.04      0.00
    2    3    3     35.92      0.00
   -1    4    3      6.54      0.00
    0    4    3    -50.70      0.00
    1    4    3     10.05      0.00
    2    4    3     -3.95      0.00
    3    4    3      1.30      0.00
   -2    5    3     44.17      0.00
   -1    5    3      2.95      0.00
    0    5    3     37.14      0.00
    1    5    3    -19.51      0.00
    2    5    3    -17.79      0.00
    3    5    3    -10.47      0.00
    4    5    3     25.45      0.00
   -2    6    3     10.17      0.00
   -1    6    3    -15.00      0.00
    0    6    3    -19.66      0.00
    1    6    3     -5.19      0.00
    2    6    3      3.05      0.00
    3    6    3     10.74      0.00
    4    6    3     -0.28      0.00
    5    6    3     -2.41      0.00
   -3    7    3      0.29      0.00
   -2    7    3    -12.66      0.00
   -1    7    3     -1.11      0.00
    0    7    3      8.24      0.00
    1    7    3     -3.75      0.00
    2    7    3     -4.68      0.00
    3    7    3    -15.93      0.00
    4    7    3    -14.83      0.00
    5    7    3      8.43      0.00
    6    7    3     12.51      0.00
   -3    8    3    -13.06      0.00
   -2    8    3     -6.89      0.00
   -1    8    3     -1.32      0.00
    0    8    3     -0.76      0.00
    1    8    3      0.81      0.00
    2    8    3     -5.11      0.00
    3    8    3    -12.68      0.00
    4    8    3     -0.27      0.00
    5    8    3     -4.75      0.00
    6    8    3      2.73      0.00
    7    8    3      5.53      0.00
   -4    9    3     29.23      0.00
   -3    9    3     11.68      0.00
   -2    9    3     -7.36      0.00
   -1    9    3      6.02      0.00
    0    9    3    -35.53      0.00
    1    9    3      1.64      0.00
    2    9    3     -0.99      0.00
    3    9    3     -1.12      0.00
    4    9    3     -0.08      0.00
    5    9    3     -0.47      0.00
    6    9    3     -1.89      0.00
    7    9    3      7.45      0.00
    8    9    3      2.53      0.00
   -4   10    3      1.59      0.00
   -3   10    3    -17.05      0.00
   -2   10    3    -10.22      0.00
   -1   10    3     -1.03      0.00
    0   10    3     -5.68      0.00
    1   10    3      1.80      0.00
    2   10    3     -8.66      0.00
    3   10    3      1.61      0.00
    4   10    3      2.83      0.00
    5   10    3      0.00      0.00
    6   10    3     -1.57      0.00
    7   10    3      0.73      0.00
    8   10    3      1.04      0.00
    9   10    3     -0.06      0.00
   -5   11    3     -0.96      0.00
   -4   11    3    -15.90      0.00
   -3   11    3    -11.29      0.00
   -2   11    3     -1.80      0.00
   -1   11    3     -0.52      0.00
    0   11    3      5.62      0.00
    1   11    3     -6.55      0.00
    2   11    3     -5.41      0.00
    3   11    3      3.68      0.00
    4   11    3      3.27      0.00
    5   11    3      2.00      0.00
    6   11    3     -0.85      0.00
    7   11    3     -1.49      0.00
    8   11    3     -1.60      0.00
    9   11    3      1.96      0.00
   10   11    3      2.03      0.00
   -5   12    3      9.01      0.00
   -4   12    3     -0.20      0.00
   -3   12    3     -1.88      0.00
   -2   12    3     -9.17      0.00
   -1   12    3     -4.86      0.00
    0   12    3      7.53      0.00
    1   12    3      0.76      0.00
    2   12    3     -2.03      0.00
    3   12    3      1.09      0.00
    4   12    3     -2.61      0.00
    5   12    3      0.86      0.00
    6   12    3      0.36      0.00
    7   12    3     -2.73      0.00
    8   12    3      0.10      0.00
    9   12    3      2.54      0.00
   10   12    3      1.34      0.00
   11   12    3      1.15      0.00
   -6   13    3     12.51      0.00
   -5   13    3     -5.35      0.00
   -4   13    3      0.52      0.00
   -3   13    3      1.82      0.00
   -2   13    3     -3.35      0.00
   -1   13    3      0.57      0.00
    0   13    3      6.03      0.00
    1   13    3     -1.98      0.00
    2   13    3      1.05      0.00
    3   13    3     -5.19      0.00
    4   13    3     -3.36      0.00
    5   13    3      0.29      0.00
    6   13    3      1.81      0.00
    7   13    3      1.70      0.00
    8   13    3      0.31      0.00
    9   13    3      2.28      0.00
   10   13    3     -0.80      0.00
   11   13    3     -0.04      0.00
   12   13    3     -0.04      0.00
   -6   14    3      3.72      0.00
   -5   14    3     -0.79      0.00
   -4   14    3      4.10      0.00
   -3   14    3      2.20      0.00
   -2   14    3     -1.19      0.00
   -1   14    3     -1.25      0.00
    0   14    3     -4.15      0.00
    1   14    3     -2.38      0.00
    2   14    3      3.05      0.00
    3   14    3      0.88      0.00
    4   14    3      2.51      0.00
    5   14    3     -0.70      0.00
    6   14    3     -2.17      0.00
    7   14    3     -0.26      0.00
    8   14    3      0.82      0.00
    9   14    3      0.95      0.00
   10   14    3      1.55      0.00
   11   14    3      3.87      0.00
   12   14    3     -1.03      0.00
   13   14    3      0.83      0.00
   -7   15    3      4.62      0.00
   -6   15    3     -0.83      0.00
   -5   15    3     -0.96      0.00
   -4   15    3      4.00      0.00
   -3   15    3      0.65      0.00
   -2   15    3      1.44      0.00
   -1   15    3     -2.33      0.00
    0   15    3     -3.00      0.00
    1   15    3      1.88      0.00
    2   15    3      0.08      0.00
    3   15    3      1.74      0.00
    4   15    3      1.26      0.00
    5   15    3      0.15      0.00
    6   15    3      0.53      0.00
    7   15    3      2.39      0.00
    8   15    3      1.77      0.00
    9   15    3      1.93      0.00
   10   15    3      0.47      0.00
   11   15    3      0.72      0.00
   12   15    3      1.04      0.00
   13   15    3      0.29      0.00
   -7   16    3      6.21      0.00
   -6   16    3      0.44      0.00
   -5   16    3      1.05      0.00
   -4   16    3     -1.22      0.00
   -3   16    3     -6.19      0.00
   -2   16    3      4.00      0.00
   -1   16    3      1.10      0.00
    0   16    3      2.12      0.00
    1   16    3      1.33      0.00
    2   16    3     -0.17      0.00
    3   16    3     -0.40      0.00
    4   16    3      0.33      0.00
    5   16    3     -0.41      0.00
    6   16    3     -0.20      0.00
    7   16    3      2.88      0.00
    8   16    3      1.87      0.00
    9   16    3     -1.11      0.00
   10   16    3      1.12      0.00
   11   16    3      0.46      0.00
   12   16    3      1.42      0.00
   -8   17    3      1.43      0.00
   -7   17    3      0.66      0.00
   -6   17    3     -1.01      0.00
   -5   17    3      0.11      0.00
   -4   17    3     -3.58      0.00
   -3   17    3      1.09      0.00
   -2   17    3      2.13      0.00
   -1   17    3      0.65      0.00
    0   17    3      2.41      0.00
    1   17    3     -1.69      0.00
    2   17    3     -1.53      0.00
    3   17    3     -1.88      0.00
    4   17    3      0.63      0.00
    5   17    3     -2.32      0.00
    6   17    3     -0.58      0.00
    7   17    3      0.74      0.00
    8   17    3     -0.52      0.00
    9   17    3     -1.45      0.00
   10   17    3     -1.88      0.00
   11   17    3     -1.31      0.00
   -8   18    3      1.20      0.00
   -7   18    3     -2.03      0.00
   -6   18    3      0.72      0.00
   -5   18    3      1.46      0.00
   -4   18    3      2.73      0.00
   -3   18    3      1.65      0.00
   -2   18    3     -1.11      0.00
   -1   18    3     -1.07      0.00
    0   18    3      0.31      0.00
    1   18    3     -0.58      0.00
    2   18    3     -0.90      0.00
    3   18    3     -3.46      0.00
    4   18    3     -3.49      0.00
    5   18    3     -0.61      0.00
    6   18    3      0.40      0.00
    7   18    3     -0.51      0.00
    8   18    3     -0.61      0.00
    9   18    3     -0.35      0.00
   10   18    3      0.43      0.00
   -9   19    3     -0.44      0.00
   -8   19    3     -2.09      0.00
   -7   19    3     -1.95      0.00
   -6   19    3      2.73      0.00
   -5   19    3     -0.85      0.00
   -4   19    3      2.27      0.00
   -3   19    3     -1.58      0.00
   -2   19    3     -2.52      0.00
   -1   19    3      0.62      0.00
    0   19    3     -0.85      0.00
    1   19    3      1.77      0.00
    2   19    3     -0.58      0.00
    3   19    3     -2.27      0.00
    4   19    3     -0.06      0.00
    5   19    3      0.80      0.00
    6   19    3      0.92      0.00
    7   19    3     -1.81      0.00
    8   19    3      0.10      0.00
   -9   20    3      2.86      0.00
   -8   20    3      1.96      0.00
   -7   20    3      2.59      0.00
   -6   20    3     -2.50      0.00
   -5   20    3      0.30      0.00
   -4   20    3      0.64      0.00
   -3   20    3      0.75      0.00
   -2   20    3     -0.22      0.00
   -1   20    3     -0.21      0.00
    0   20    3      0.25      0.00
    1   20    3      1.22      0.00
    2   20    3      0.34      0.00
    3   20    3     -0.04      0.00
    4   20    3      0.03      0.00
    5   20    3     -1.19      0.00
    6   20    3     -1.99      0.00
    7   20    3      0.78      0.00
  -10   21    3     -0.42      0.00
   -9   21    3      1.80      0.00
   -8   21    3      0.11      0.00
   -7   21    3      0.59      0.00
   -6   21    3     -0.29      0.00
   -5   21    3      0.04      0.00
   -4   21    3      0.00      0.00
   -3   21    3      0.97      0.00
   -2   21    3     -1.47      0.00
   -1   21    3      0.52      0.00
    0   21    3      0.64      0.00
    1   21    3      1.56      0.00
    2   21    3      0.43      0.00
    3   21    3      1.21      0.00
    4   21    3      0.28      0.00
    5   21    3      0.44      0.00
    6   21    3     -0.49      0.00
  -10   22    3      0.70      0.00
   -9   22    3     -0.55      0.00
   -8   22    3      2.20      0.00
   -7   22    3      1.15      0.00
   -6   22    3     -0.88      0.00
   -5   22    3     -1.58      0.00
   -4   22    3     -3.21      0.00
   -3   22    3     -0.62      0.00
   -2   22    3     -0.35      0.00
   -1   22    3      1.75      0.00
    0   22    3     -0.21      0.00
    1   22    3     -0.06      0.00
    2   22    3      0.24      0.00
    3   22    3      0.86      0.00
    4   22    3      0.89      0.00
  -11   23    3      1.89      0.00
  -10   23    3     -0.60      0.00
   -9   23    3     -0.39      0.00
   -8   23    3      1.06      0.00
   -7   23    3     -0.54      0.00
   -6   23    3      0.77      0.00
   -5   23    3     -0.82      0.00
   -4   23    3     -1.16      0.00
   -3   23    3     -0.66      0.00
   -2   23    3      1.96      0.00
   -1   23    3     -1.10      0.00
    0   23    3      2.97      0.00
    1   23    3      0.61      0.00
    2   23    3     -0.75      0.00
  -11   24    3     -0.63      0.00
  -10   24    3      0.84      0.00
   -9   24    3      2.58      0.00
   -8   24    3     -0.10      0.00
   -7   24    3     -1.07      0.00
   -6   24    3     -0.51      0.00
   -5   24    3      0.25      0.00
   -4   24    3      0.55      0.00
   -3   24    3     -0.15      0.00
   -2   24    3     -0.33      0.00
   -1   24    3      1.55      0.00
    0   24    3      0.39      0.00
    1   24    3      0.16      0.00
  -12   25    3     -0.04      0.00
  -11   25    3      2.51      0.00
  -10   25    3     -1.15      0.00
   -9   25    3     -3.90      0.00
   -8   25    3     -0.73      0.00
   -7   25    3     -1.22      0.00
   -6   25    3      0.78      0.00
   -5   25    3     -0.81      0.00
   -4   25    3     -0.99      0.00
   -3   25    3     -2.53      0.00
   -2   25    3     -0.91      0.00
   -1   25    3      0.79      0.00
  -12   26    3      0.48      0.00
  -11   26    3     -0.66      0.00
  -10   26    3     -0.54      0.00
   -9   26    3     -0.38      0.00
   -8   26    3     -0.84      0.00
   -7   26    3     -2.57      0.00
   -6   26    3     -3.18      0.00
   -5   26    3      0.19      0.00
   -4   26    3      0.39      0.00
  -13   27    3      0.45      0.00
  -12   27    3     -1.55      0.00
  -11   27    3      0.31      0.00
  -10   27    3     -1.50      0.00
   -9   27    3     -0.57      0.00
   -8   27    3     -0.21      0.00
   -7   27    3      1.44      0.00
   -6   27    3     -0.16      0.00
  -13   28    3     -0.54      0.00
  -12   28    3      0.36      0.00
  -11   28    3     -2.71      0.00
  -10   28    3      0.67      0.00
    0    1    4   -158.06      0.00
    1    1    4     35.27      0.00
   -1    2    4    -36.57      0.00
    0    2    4     87.37      0.00
    1    2    4     45.66      0.00
    2    2    4    -78.78      0.00
   -1    3    4     20.95      0.00
    0    3    4     61.06      0.00
    1    3    4     33.73      0.00
    2    3    4     35.16      0.00
    3    3    4     -1.88      0.00
   -2    4    4    -46.50      0.00
   -1    4    4     23.38      0.00
    0    4    4    124.54      0.00
    1    4    4     25.42      0.00
    2    4    4     -2.80      0.00
    3    4    4    -47.97      0.00
    4    4    4    -19.65      0.00
   -2    5    4     40.62      0.00
   -1    5    4     12.71      0.00
    0    5    4     -1.91      0.00
    1    5    4    -25.05      0.00
    2    5    4     19.68      0.00
    3    5    4     14.20      0.00
    4    5    4     14.12      0.00
    5    5    4    -27.96      0.00
   -3    6    4    -14.34      0.00
   -2    6    4      7.56      0.00
   -1    6    4    -28.87      0.00
    0    6    4    -44.68      0.00
    1    6    4     32.46      0.00
    2    6    4      4.44      0.00
    3    6    4      3.03      0.00
    4    6    4      0.57      0.00
    5    6    4    -25.14      0.00
    6    6    4    -13.06      0.00
   -3    7    4    -45.51      0.00
   -2    7    4     27.51      0.00
   -1    7    4     29.33      0.00
    0    7    4     19.54      0.00
    1    7    4     -9.96      0.00
    2    7    4    -32.44      0.00
    3    7    4      3.82      0.00
    4    7    4      8.18      0.00
    5    7    4      5.63      0.00
    6    7    4     -1.59      0.00
    7    7    4    -12.51      0.00
   -4    8    4    -14.94      0.00
   -3    8    4     18.22      0.00
   -2    8    4      1.44      0.00
   -1    8    4     -6.34      0.00
    0    8    4      1.26      0.00
    1    8    4    -18.62      0.00
    2    8    4     -2.35      0.00
    3    8    4      6.45      0.00
    4    8    4     -2.75      0.00
    5    8    4      6.51      0.00
    6    8    4      3.82      0.00
    7    8    4     -3.02      0.00
    8    8    4     -5.12      0.00
   -4    9    4     13.49      0.00
   -3    9    4      0.08      0.00
   -2    9    4    -32.22      0.00
   -1    9    4    -17.66      0.00
    0    9    4     13.09      0.00
    1    9    4     11.18      0.00
    2    9    4      3.33      0.00
    3    9    4     -6.22      0.00
    4    9    4    -12.65      0.00
    5    9    4      3.42      0.00
    6    9    4      4.27      0.00
    7    9    4      6.64      0.00
    8    9    4      0.81      0.00
    9    9    4    -10.96      0.00
   -5   10    4    -31.26      0.00
   -4   10    4      2.80      0.00
   -3   10    4      5.77      0.00
   -2   10    4     -4.57      0.00
   -1   10    4     12.20      0.00
    0   10    4      0.54      0.00
    1   10    4      1.12      0.00
    2   10    4      5.06      0.00
    3   10    4     -2.49      0.00
    4   10    4     -3.50      0.00
    5   10    4      1.58      0.00
    6   10    4     -2.84      0.00
    7   10    4      3.22      0.00
    8   10    4      0.36      0.00
    9   10    4     -4.71      0.00
   10   10    4     -0.39      0.00
   -5   11    4    -26.66      0.00
   -4   11    4      8.52      0.00
   -3   11    4      8.50      0.00
   -2   11    4      7.57      0.00
   -1   11    4     -3.11      0.00
    0   11    4    -19.13      0.00
    1   11    4      1.66      0.00
    2   11    4      3.91      0.00
    3   11    4      5.37      0.00
    4   11    4      3.71      0.00
    5   11    4     -2.54      0.00
    6   11    4     -7.11      0.00
    7   11    4      0.24      0.00
    8   11    4      2.97      0.00
    9   11    4      3.00      0.00
   10   11    4      1.83      0.00
   11   11    4     -1.33      0.00
   -6   12    4    -11.56      0.00
   -5   12    4      5.20      0.00
   -4   12    4     -3.07      0.00
   -3   12    4     -7.11      0.00
   -2   12    4      7.07      0.00
   -1   12    4      2.06      0.00
    0   12    4     -0.65      0.00
    1   12    4      4.75      0.00
    2   12    4     -6.60      0.00
    3   12    4     -1.25      0.00
    4   12    4      3.62      0.00
    5   12    4     -0.69      0.00
    6   12    4      2.27      0.00
    7   12    4      2.04      0.00
    8   12    4     -1.42      0.00
    9   12    4      3.07      0.00
   10   12    4      0.59      0.00
   11   12    4      1.12      0.00
   12   12    4      1.19      0.00
   -6   13    4     -0.49      0.00
   -5   13    4      6.24      0.00
   -4   13    4    -11.50      0.00
   -3   13    4     -3.67      0.00
   -2   13    4      6.09      0.00
   -1   13    4      4.89      0.00
    0   13    4      2.32      0.00
    1   13    4     -4.21      0.00
    2   13    4    -10.26      0.00
    3   13    4      0.15      0.00
    4   13    4      2.31      0.00
    5   13    4      3.54      0.00
    6   13    4      4.09      0.00
    7   13    4     -2.63      0.00
    8   13    4     -2.89      0.00
    9   13    4      1.10      0.00
   10   13    4     -0.68      0.00
   11   13    4      0.89      0.00
   12   13    4     -0.76      0.00
   13   13    4      0.02      0.00
   -7   14    4    -11.15      0.00
   -6   14    4      2.91      0.00
   -5   14    4      2.42      0.00
   -4   14    4     -2.28      0.00
   -3   14    4      6.04      0.00
   -2   14    4     -8.06      0.00
   -1   14    4     -3.92      0.00
    0   14    4      0.86      0.00
    1   14    4     -4.56      0.00
    2   14    4      2.18      0.00
    3   14    4      3.36      0.00
    4   14    4     -3.21      0.00
    5   14    4      3.13      0.00
    6   14    4      1.41      0.00
    7   14    4      0.15      0.00
    8   14    4      2.64      0.00
    9   14    4      1.06      0.00
   10   14    4     -0.69      0.00
   11   14    4     -0.41      0.00
   12   14    4     -0.50      0.00
   13   14    4     -0.02      0.00
   14   14    4      1.30      0.00
   -7   15    4     -2.87      0.00
   -6   15    4      5.59      0.00
   -5   15    4      1.31      0.00
   -4   15    4      3.06      0.00
   -3   15    4     -1.22      0.00
   -2   15    4    -11.26      0.00
   -1   15    4     -3.82      0.00
    0   15    4      3.23      0.00
    1   15    4      1.09      0.00
    2   15    4      6.42      0.00
    3   15    4      0.57      0.00
    4   15    4     -2.92      0.00
    5   15    4     -0.04      0.00
    6   15    4     -1.08      0.00
    7   15    4      1.46      0.00
    8   15    4     -0.75      0.00
    9   15    4     -0.03      0.00
   10   15    4      1.32      0.00
   11   15    4      0.22      0.00
   12   15    4     -0.24      0.00
   13   15    4      1.77      0.00
   -8   16    4     -2.29      0.00
   -7   16    4      4.79      0.00
   -6   16    4     -0.95      0.00
   -5   16    4     -2.90      0.00
   -4   16    4      1.97      0.00
   -3   16    4      0.61      0.00
   -2   16    4      0.77      0.00
   -1   16    4      1.09      0.00
    0   16    4      0.58      0.00
    1   16    4     -0.84      0.00
    2   16    4      4.31      0.00
    3   16    4     -2.36      0.00
    4   16    4      1.25      0.00
    5   16    4     -1.30      0.00
    6   16    4     -5.08      0.00
    7   16    4     -0.08      0.00
    8   16    4     -0.40      0.00
    9   16    4      2.31      0.00
   10   16    4      1.80      0.00
   11   16    4      1.64      0.00
   12   16    4      0.54      0.00
   -8   17    4      3.57      0.00
   -7   17    4      2.24      0.00
   -6   17    4     -7.34      0.00
   -5   17    4     -2.26      0.00
   -4   17    4      2.94      0.00
   -3   17    4      4.85      0.00
   -2   17    4      4.14      0.00
   -1   17    4     -0.92      0.00
    0   17    4     -0.82      0.00
    1   17    4      1.80      0.00
    2   17    4      3.35      0.00
    3   17    4      0.71      0.00
    4   17    4     -2.12      0.00
    5   17    4     -0.69      0.00
    6   17    4     -1.40      0.00
    7   17    4      0.52      0.00
    8   17    4      0.33      0.00
    9   17    4     -1.15      0.00
   10   17    4      2.07      0.00
   11   17    4     -2.91      0.00
   -9   18    4    -10.24      0.00
   -8   18    4      0.96      0.00
   -7   18    4      0.15      0.00
   -6   18    4     -0.80      0.00
   -5   18    4      3.49      0.00
   -4   18    4     -1.12      0.00
   -3   18    4      0.78      0.00
   -2   18    4      3.63      0.00
   -1   18    4      1.95      0.00
    0   18    4      2.18      0.00
    1   18    4     -0.05      0.00
    2   18    4     -0.23      0.00
    3   18    4     -1.91      0.00
    4   18    4      0.21      0.00
    5   18    4      0.40      0.00
    6   18    4      0.84      0.00
    7   18    4      1.70      0.00
    8   18    4     -0.36      0.00
    9   18    4      0.03      0.00
   -9   19    4     -5.30      0.00
   -8   19    4      2.14      0.00
   -7   19    4      2.19      0.00
   -6   19    4      3.21      0.00
   -5   19    4      1.78      0.00
   -4   19    4     -2.94      0.00
   -3   19    4     -2.68      0.00
   -2   19    4      2.58      0.00
   -1   19    4      0.91      0.00
    0   19    4      1.39      0.00
    1   19    4     -1.40      0.00
    2   19    4      1.20      0.00
    3   19    4      0.98      0.00
    4   19    4     -0.77      0.00
    5   19    4      0.75      0.00
    6   19    4     -1.01      0.00
    7   19    4     -2.02      0.00
    8   19    4     -1.30      0.00
  -10   20    4      0.51      0.00
   -9   20    4      3.86      0.00
   -8   20    4     -1.08      0.00
   -7   20    4     -2.30      0.00
   -6   20    4      0.89      0.00
   -5   20    4      1.00      0.00
   -4   20    4      1.68      0.00
   -3   20    4      1.34      0.00
   -2   20    4     -1.73      0.00
   -1   20    4     -2.04      0.00
    0   20    4      2.31      0.00
    1   20    4      0.75      0.00
    2   20    4      0.64      0.00
    3   20    4      0.23      0.00
    4   20    4     -0.96      0.00
    5   20    4     -1.67      0.00
    6   20    4      0.44      0.00
    7   20    4     -0.38      0.00
  -10   21    4      2.12      0.00
   -9   21    4      1.45      0.00
   -8   21    4     -3.87      0.00
   -7   21    4      0.44      0.00
   -6   21    4     -0.22      0.00
   -5   21    4     -0.37      0.00
   -4   21    4      0.74      0.00
   -3   21    4     -0.74      0.00
   -2   21    4     -2.32      0.00
   -1   21    4     -0.06      0.00
    0   21    4     -0.07      0.00
    1   21    4      1.84      0.00
    2   21    4      2.05      0.00
    3   21    4     -1.84      0.00
    4   21    4     -1.28      0.00
    5   21    4      0.57      0.00
  -11   22    4     -3.18      0.00
  -10   22    4      0.63      0.00
   -9   22    4      0.01      0.00
   -8   22    4      1.19      0.00
   -7   22    4      2.07      0.00
   -6   22    4     -1.18      0.00
   -5   22    4      0.07      0.00
   -4   22    4     -0.61      0.00
   -3   22    4      0.62      0.00
   -2   22    4      1.36      0.00
   -1   22    4      0.97      0.00
    0   22    4     -0.37      0.00
    1   22    4      0.11      0.00
    2   22    4      0.41      0.00
    3   22    4      1.33      0.00
    4   22    4      1.69      0.00
  -11   23    4      0.19      0.00
  -10   23    4      0.41      0.00
   -9   23    4      1.73      0.00
   -8   23    4     -0.59      0.00
   -7   23    4     -0.33      0.00
   -6   23    4     -0.67      0.00
   -5   23    4      1.98      0.00
   -4   23    4      2.03      0.00
   -3   23    4      2.16      0.00
   -2   23    4      1.18      0.00
   -1   23    4     -2.28      0.00
    0   23    4     -3.04      0.00
    1   23    4      0.71      0.00
    2   23    4      3.42      0.00
  -12   24    4      0.04      0.00
  -11   24    4      1.23      0.00
  -10   24    4     -0.29      0.00
   -9   24    4     -0.74      0.00
   -8   24    4      0.10      0.00
   -7   24    4      1.82      0.00
   -6   24    4      2.65      0.00
   -5   24    4      0.77      0.00
   -4   24    4     -1.93      0.00
   -3   24    4     -2.58      0.00
   -2   24    4     -0.34      0.00
   -1   24    4      0.81      0.00
    0   24    4      0.40      0.00
    1   24    4     -0.28      0.00
  -12   25    4     -0.11      0.00
  -11   25    4      0.98      0.00
  -10   25    4      1.39      0.00
   -9   25    4      1.74      0.00
   -8   25    4      0.07      0.00
   -7   25    4      0.92      0.00
   -6   25    4      0.30      0.00
   -5   25    4     -0.84      0.00
   -4   25    4     -0.98      0.00
   -3   25    4      0.83      0.00
   -2   25    4      2.30      0.00
   -1   25    4      0.44      0.00
  -13   26    4     -0.10      0.00
  -12   26    4      0.50      0.00
  -11   26    4     -0.18      0.00
  -10   26    4      0.20      0.00
   -9   26    4     -0.09      0.00
   -8   26    4     -0.47      0.00
   -7   26    4     -1.44      0.00
   -6   26    4      0.18      0.00
   -5   26    4     -0.16      0.00
   -4   26    4      2.29      0.00
  -13   27    4      0.05      0.00
  -12   27    4      0.62      0.00
  -11   27    4      0.51      0.00
  -10   27    4      2.51      0.00
   -9   27    4     -0.26      0.00
   -8   27    4     -0.74      0.00
   -7   27    4     -0.68      0.00
   -6   27    4      0.26      0.00
  -14   28    4      1.96      0.00
  -13   28    4      2.45      0.00
  -12   28    4      1.27      0.00
  -11   28    4     -2.28      0.00
    0    1    5    -44.23      0.00
    0    2    5   -133.01      0.00
    1    2    5      4.19      0.00
   -1    3    5     -9.86      0.00
    0    3    5      5.88      0.00
    1    3    5     -6.68      0.00
    2    3    5    -49.09      0.00
   -1    4    5    -10.00      0.00
    0    4    5     96.54      0.00
    1    4    5    -44.53      0.00
    2    4    5    -16.56      0.00
    3    4    5     18.08      0.00
   -2    5    5    -38.26      0.00
   -1    5    5    -61.61      0.00
    0    5    5     53.81      0.00
    1    5    5     11.92      0.00
    2    5    5     37.93      0.00
    3    5    5    -24.39      0.00
    4    5    5    -19.57      0.00
   -2    6    5    -15.31      0.00
   -1    6    5    -43.10      0.00
    0    6    5     33.39      0.00
    1    6    5     32.33      0.00
    2    6    5     18.43      0.00
    3    6    5    -13.04      0.00
    4    6    5     -4.78      0.00
    5    6    5     -0.36      0.00
   -3    7    5     12.81      0.00
   -2    7    5     31.77      0.00
   -1    7    5     28.98      0.00
    0    7    5    -12.05      0.00
    1    7    5    -25.09      0.00
    2    7    5     10.40      0.00
    3    7    5     12.02      0.00
    4    7    5     20.69      0.00
    5    7    5     -4.11      0.00
    6    7    5     -6.87      0.00
   -3    8    5    -22.35      0.00
   -2    8    5     13.43      0.00
   -1    8    5    -17.09      0.00
    0    8    5      2.49      0.00
    1    8    5     16.16      0.00
    2    8    5     11.26      0.00
    3    8    5     14.87      0.00
    4    8    5      4.81      0.00
    5    8    5     -8.61      0.00
    6    8    5     -6.57      0.00
    7    8    5     -1.17      0.00
   -4    9    5    -20.97      0.00
   -3    9    5    -10.54      0.00
   -2    9    5      1.95      0.00
   -1    9    5     19.36      0.00
    0    9    5     19.42      0.00
    1    9    5      4.66      0.00
    2    9    5    -20.62      0.00
    3    9    5     -3.55      0.00
    4    9    5      3.66      0.00
    5    9    5      4.18      0.00
    6    9    5      1.39      0.00
    7    9    5     -2.34      0.00
    8    9    5     -7.93      0.00
   -4   10    5     -3.99      0.00
   -3   10    5     14.40      0.00
   -2   10    5     12.27      0.00
   -1   10    5      4.19      0.00
    0   10    5     -3.48      0.00
    1   10    5     -2.89      0.00
    2   10    5     -4.34      0.00
    3   10    5      0.37      0.00
    4   10    5     -2.88      0.00
    5   10    5      6.48      0.00
    6   10    5      0.94      0.00
    7   10    5     -6.17      0.00
    8   10    5     -1.38      0.00
    9   10    5      1.90      0.00
   -5   11    5     -3.65      0.00
   -4   11    5     20.33      0.00
   -3   11    5     17.20      0.00
   -2   11    5     -7.16      0.00
   -1   11    5     -1.05      0.00
    0   11    5      0.24      0.00
    1   11    5      1.96      0.00
    2   11    5      7.59      0.00
    3   11    5     -3.60      0.00
    4   11    5    -12.80      0.00
    5   11    5      0.71      0.00
    6   11    5      0.34      0.00
    7   11    5      1.03      0.00
    8   11    5      6.50      0.00
    9   11    5     -3.66      0.00
   10   11    5     -1.78      0.00
   -5   12    5     -4.48      0.00
   -4   12    5      4.72      0.00
   -3   12    5     -0.49      0.00
   -2   12    5     -3.52      0.00
   -1   12    5      3.12      0.00
    0   12    5     -5.72      0.00
    1   12    5     -0.29      0.00
    2   12    5      5.09      0.00
    3   12    5     -1.69      0.00
    4   12    5     -1.30      0.00
    5   12    5      2.15      0.00
    6   12    5     -2.09      0.00
    7   12    5      3.53      0.00
    8   12    5     -1.78      0.00
    9   12    5     -3.28      0.00
   10   12    5     -0.01      0.00
   11   12    5      0.63      0.00
   -6   13    5     -6.64      0.00
   -5   13    5     -7.24      0.00
   -4   13    5      2.66      0.00
   -3   13    5      1.94      0.00
   -2   13    5      7.17      0.00
   -1   13    5      2.18      0.00
    0   13    5    -11.63      0.00
    1   13    5     -4.12      0.00
    2   13    5     -1.20      0.00
    3   13    5      0.55      0.00
    4   13    5      9.98      0.00
    5   13    5     -0.86      0.00
    6   13    5     -4.09      0.00
    7   13    5     -1.43      0.00
    8   13    5     -2.50      0.00
    9   13    5      0.39      0.00
   10   13    5      1.08      0.00
   11   13    5     -3.69      0.00
   12   13    5      0.07      0.00
   -6   14    5     -6.39      0.00
   -5   14    5      5.81      0.00
   -4   14    5     -4.00      0.00
   -3   14    5     -2.67      0.00
   -2   14    5      3.32      0.00
   -1   14    5     -3.58      0.00
    0   14    5      0.82      0.00
    1   14    5      2.02      0.00
    2   14    5     -3.05      0.00
    3   14    5      2.59      0.00
    4   14    5      1.75      0.00
    5   14    5     -4.79      0.00
    6   14    5      0.02      0.00
    7   14    5     -0.21      0.00
    8   14    5     -2.05      0.00
    9   14    5     -0.32      0.00
   10   14    5     -1.99      0.00
   11   14    5     -1.25      0.00
   12   14    5     -0.36      0.00
   13   14    5     -0.64      0.00
   -7   15    5     -3.66      0.00
   -6   15    5      2.24      0.00
   -5   15    5      5.87      0.00
   -4   15    5    -13.00      0.00
   -3   15    5     -1.71      0.00
   -2   15    5     -1.83      0.00
   -1   15    5      2.57      0.00
    0   15    5      9.37      0.00
    1   15    5      0.03      0.00
    2   15    5     -6.28      0.00
    3   15    5     -0.71      0.00
    4   15    5     -1.05      0.00
    5   15    5      2.04      0.00
    6   15    5      4.76      0.00
    7   15    5     -1.81      0.00
    8   15    5     -2.51      0.00
    9   15    5     -0.86      0.00
   10   15    5      0.72      0.00
   11   15    5      1.74      0.00
   12   15    5     -0.95      0.00
   13   15    5     -1.98      0.00
   -7   16    5     -2.88      0.00
   -6   16    5      0.90      0.00
   -5   16    5      0.25      0.00
   -4   16    5     -1.77      0.00
   -3   16    5      1.35      0.00
   -2   16    5     -2.91      0.00
   -1   16    5      1.36      0.00
    0   16    5      1.84      0.00
    1   16    5     -6.57      0.00
    2   16    5     -0.47      0.00
    3   16    5      1.59      0.00
    4   16    5     -1.04      0.00
    5   16    5      1.43      0.00
    6   16    5     -1.40      0.00
    7   16    5     -1.42      0.00
    8   16    5      1.25      0.00
    9   16    5     -1.67      0.00
   10   16    5      0.61      0.00
   11   16    5      0.32      0.00
   12   16    5      0.01      0.00
   -8   17    5     -5.46      0.00
   -7   17    5     -4.58      0.00
   -6   17    5     -0.25      0.00
   -5   17    5      3.51      0.00
   -4   17    5      9.73      0.00
   -3   17    5      1.88      0.00
   -2   17    5     -5.69      0.00
   -1   17    5     -5.36      0.00
    0   17    5     -2.45      0.00
    1   17    5      0.90      0.00
    2   17    5      4.31      0.00
    3   17    5      0.48      0.00
    4   17    5     -1.62      0.00
    5   17    5      1.14      0.00
    6   17    5      1.28      0.00
    7   17    5      1.12      0.00
    8   17    5     -0.09      0.00
    9   17    5     -1.37      0.00
   10   17    5     -0.92      0.00
   11   17    5     -1.97      0.00
   -8   18    5     -2.60      0.00
   -7   18    5      2.88      0.00
   -6   18    5     -2.95      0.00
   -5   18    5     -0.97      0.00
   -4   18    5      3.19      0.00
   -3   18    5     -2.10      0.00
   -2   18    5      3.30      0.00
   -1   18    5      1.62      0.00
    0   18    5     -1.05      0.00
    1   18    5     -0.17      0.00
    2   18    5      1.94      0.00
    3   18    5      0.38      0.00
    4   18    5      5.19      0.00
    5   18    5      0.06      0.00
    6   18    5     -0.68      0.00
    7   18    5      0.10      0.00
    8   18    5     -0.56      0.00
    9   18    5      2.11      0.00
   -9   19    5      1.35      0.00
   -8   19    5      4.98      0.00
   -7   19    5      3.17      0.00
   -6   19    5     -4.86      0.00
   -5   19    5     -3.40      0.00
   -4   19    5     -0.59      0.00
   -3   19    5      0.54      0.00
   -2   19    5      4.51      0.00
   -1   19    5     -1.14      0.00
    0   19    5     -1.53      0.00
    1   19    5      2.25      0.00
    2   19    5     -0.47      0.00
    3   19    5      1.68      0.00
    4   19    5      0.71      0.00
    5   19    5     -2.51      0.00
    6   19    5     -0.96      0.00
    7   19    5     -0.15      0.00
    8   19    5      1.81      0.00
   -9   20    5     -2.84      0.00
   -8   20    5     -1.35      0.00
   -7   20    5     -1.01      0.00
   -6   20    5      0.39      0.00
   -5   20    5      2.56      0.00
   -4   20    5     -1.52      0.00
   -3   20    5     -0.30      0.00
   -2   20    5      0.29      0.00
   -1   20    5      1.00      0.00
    0   20    5     -0.75      0.00
    1   20    5      3.07      0.00
    2   20    5     -0.25      0.00
    3   20    5     -0.31      0.00
    4   20    5     -1.50      0.00
    5   20    5     -0.39      0.00
    6   20    5      2.19      0.00
    7   20    5      0.57      0.00
  -10   21    5     -2.73      0.00
   -9   21    5     -5.18      0.00
   -8   21    5     -1.95      0.00
   -7   21    5     -0.37      0.00
   -6   21    5      4.65      0.00
   -5   21    5      1.40      0.00
   -4   21    5     -3.39      0.00
   -3   21    5      0.18      0.00
   -2   21    5      0.30      0.00
   -1   21    5      2.11      0.00
    0   21    5      0.28      0.00
    1   21    5     -1.40      0.00
    2   21    5     -1.77      0.00
    3   21    5     -2.13      0.00
    4   21    5     -3.04      0.00
    5   21    5      1.09      0.00
  -10   22    5     -2.32      0.00
   -9   22    5      0.67      0.00
   -8   22    5     -2.07      0.00
   -7   22    5     -2.12      0.00
   -6   22    5      0.88      0.00
   -5   22    5     -0.36      0.00
   -4   22    5      4.05      0.00
   -3   22    5      2.01      0.00
   -2   22    5     -1.15      0.00
   -1   22    5     -1.33      0.00
    0   22    5     -1.93      0.00
    1   22    5      1.22      0.00
    2   22    5      2.13      0.00
    3   22    5     -0.80      0.00
    4   22    5     -2.61      0.00
  -11   23    5     -0.46      0.00
  -10   23    5      1.79      0.00
   -9   23    5      1.62      0.00
   -8   23    5     -1.76      0.00
   -7   23    5     -0.01      0.00
   -6   23    5     -0.17      0.00
   -5   23    5     -0.29      0.00
   -4   23    5      1.44      0.00
   -3   23    5     -0.18      0.00
   -2   23    5     -2.55      0.00
   -1   23    5     -0.15      0.00
    0   23    5      0.01      0.00
    1   23    5      1.33      0.00
    2   23    5      0.73      0.00
  -11   24    5     -2.16      0.00
  -10   24    5     -3.06      0.00
   -9   24    5     -1.04      0.00
   -8   24    5      0.43      0.00
   -7   24    5      0.83      0.00
   -6   24    5     -1.21      0.00
   -5   24    5     -0.72      0.00
   -4   24    5     -0.89      0.00
   -3   24    5     -2.78      0.00
   -2   24    5      1.05      0.00
   -1   24    5     -2.07      0.00
    0   24    5     -2.02      0.00
  -12   25    5     -0.12      0.00
  -11   25    5     -2.48      0.00
  -10   25    5      0.66      0.00
   -9   25    5     -2.18      0.00
   -8   25    5      0.46      0.00
   -7   25    5     -0.53      0.00
   -6   25    5     -1.85      0.00
   -5   25    5     -1.41      0.00
   -4   25    5     -2.39      0.00
   -3   25    5      1.46      0.00
   -2   25    5      0.36      0.00
  -12   26    5      0.40      0.00
  -11   26    5      2.09      0.00
  -10   26    5      0.58      0.00
   -9   26    5     -1.18      0.00
   -8   26    5     -2.33      0.00
   -7   26    5     -0.11      0.00
   -6   26    5      1.91      0.00
   -5   26    5      0.79      0.00
   -4   26    5     -0.28      0.00
  -13   27    5     -1.44      0.00
  -12   27    5     -0.36      0.00
  -11   27    5      0.56      0.00
  -10   27    5     -0.52      0.00
   -9   27    5      0.27      0.00
   -8   27    5     -2.00      0.00
   -7   27    5      1.10      0.00
  -13   28    5     -2.78      0.00
  -12   28    5     -1.21      0.00
  -11   28    5      0.26      0.00
    0    0    6    132.42      0.00
    0    1    6    111.18      0.00
    1    1    6    -45.43      0.00
   -1    2    6    -28.83      0.00
    0    2    6    -54.23      0.00
    1    2    6     17.19      0.00
    2    2    6     45.37      0.00
   -1    3    6     22.83      0.00
    0    3    6     34.91      0.00
    1    3    6     17.93      0.00
    2    3    6     21.20      0.00
    3    3    6     43.22      0.00
   -2    4    6     39.37      0.00
   -1    4    6     17.81      0.00
    0    4    6     24.16      0.00
    1    4    6    -12.95      0.00
    2    4    6     27.72      0.00
    3    4    6      1.99      0.00
    4    4    6      4.74      0.00
   -2    5    6     19.49      0.00
   -1    5    6    -15.48      0.00
    0    5    6     35.37      0.00
    1    5    6     16.92      0.00
    2    5    6      3.25      0.00
    3    5    6      9.35      0.00
    4    5    6     13.14      0.00
    5    5    6      7.35      0.00
   -3    6    6     40.22      0.00
   -2    6    6     32.21      0.00
   -1    6    6     19.54      0.00
    0    6    6     18.52      0.00
    1    6    6      9.96      0.00
    2    6    6     -0.26      0.00
    3    6    6      8.87      0.00
    4    6    6     22.90      0.00
    5    6    6     10.76      0.00
    6    6    6      5.83      0.00
   -3    7    6      3.94      0.00
   -2    7    6     -3.14      0.00
   -1    7    6     16.14      0.00
    0    7    6      9.56      0.00
    1    7    6      3.39      0.00
    2    7    6     10.81      0.00
    3    7    6     -2.74      0.00
    4    7    6     -4.44      0.00
    5    7    6      4.82      0.00
    6    7    6      5.61      0.00
    7    7    6      1.36      0.00
   -4    8    6     -0.58      0.00
   -3    8    6     16.11      0.00
   -2    8    6     -6.46      0.00
   -1    8    6      7.46      0.00
    0    8    6     13.95      0.00
    1    8    6      9.97      0.00
    2    8    6      6.33      0.00
    3    8    6      1.33      0.00
    4    8    6     -6.22      0.00
    5    8    6      1.28      0.00
    6    8    6     -0.82      0.00
    7    8    6      6.92      0.00
    8    8    6      3.23      0.00
   -4    9    6     11.92      0.00
   -3    9    6     12.85      0.00
   -2    9    6      9.67      0.00
   -1    9    6     13.66      0.00
    0    9    6      7.15      0.00
    1    9    6     -4.07      0.00
    2    9    6      6.60      0.00
    3    9    6      3.33      0.00
    4    9    6      7.92      0.00
    5    9    6      2.10      0.00
    6    9    6     -1.08      0.00
    7    9    6      4.02      0.00
    8    9    6     -2.32      0.00
    9    9    6      2.60      0.00
   -5   10    6      9.77      0.00
   -4   10    6     20.33      0.00
   -3   10    6     -2.37      0.00
   -2   10    6      6.21      0.00
   -1   10    6     -5.15      0.00
    0   10    6     -2.84      0.00
    1   10    6      3.82      0.00
    2   10    6      6.62      0.00
    3   10    6      1.83      0.00
    4   10    6     11.17      0.00
    5   10    6     -2.70      0.00
    6   10    6      2.50      0.00
    7   10    6      1.66      0.00
    8   10    6      0.93      0.00
    9   10    6      5.56      0.00
   10   10    6     -0.97      0.00
   -5   11    6     10.11      0.00
   -4   11    6     -3.29      0.00
   -3   11    6      0.82      0.00
   -2   11    6      6.45      0.00
   -1   11    6      5.06      0.00
    0   11    6     12.57      0.00
    1   11    6      8.79      0.00
    2   11    6     -2.31      0.00
    3   11    6      3.53      0.00
    4   11    6      2.01      0.00
    5   11    6     -3.07      0.00
    6   11    6      8.61      0.00
    7   11    6     -0.87      0.00
    8   11    6      0.20      0.00
    9   11    6      1.21      0.00
   10   11    6     -1.05      0.00
   11   11    6      5.36      0.00
   -6   12    6      6.55      0.00
   -5   12    6      4.45      0.00
   -4   12    6     -7.63      0.00
   -3   12    6      3.76      0.00
   -2   12    6      7.93      0.00
   -1   12    6      5.77      0.00
    0   12    6      8.67      0.00
    1   12    6      1.14      0.00
    2   12    6     -0.77      0.00
    3   12    6      2.51      0.00
    4   12    6      0.44      0.00
    5   12    6      5.69      0.00
    6   12    6      3.00      0.00
    7   12    6     -5.92      0.00
    8   12    6      0.79      0.00
    9   12    6      1.58      0.00
   10   12    6      1.88      0.00
   11   12    6      3.44      0.00
   12   12    6     -1.94      0.00
   -6   13    6      3.79      0.00
   -5   13    6      1.23      0.00
   -4   13    6      6.98      0.00
   -3   13    6      3.45      0.00
   -2   13    6     -1.31      0.00
   -1   13    6      1.05      0.00
    0   13    6      3.75      0.00
    1   13    6      5.52      0.00
    2   13    6      9.62      0.00
    3   13    6      2.57      0.00
    4   13    6     -1.75      0.00
    5   13    6     -0.16      0.00
    6   13    6     -4.04      0.00
    7   13    6      3.48      0.00
    8   13    6      4.22      0.00
    9   13    6      0.88      0.00
   10   13    6      1.48      0.00
   11   13    6     -0.17      0.00
   12   13    6      0.15      0.00
   13   13    6      1.31      0.00
   -7   14    6      0.95      0.00
   -6   14    6     -0.17      0.00
   -5   14    6      2.60      0.00
   -4   14    6     11.33      0.00
   -3   14    6      1.61      0.00
   -2   14    6     -0.42      0.00
   -1   14    6      5.86      0.00
    0   14    6     -1.77      0.00
    1   14    6      6.15      0.00
    2   14    6      4.51      0.00
    3   14    6     -2.42      0.00
    4   14    6      1.56      0.00
    5   14    6     -0.41      0.00
    6   14    6     -0.62      0.00
    7   14    6      2.80      0.00
    8   14    6     -0.26      0.00
    9   14    6     -0.31      0.00
   10   14    6      1.45      0.00
   11   14    6     -0.51      0.00
   12   14    6      1.31      0.00
   13   14    6      0.25      0.00
   14   14    6     -0.49      0.00
   -7   15    6      5.99      0.00
   -6   15    6     -0.86      0.00
   -5   15    6     -2.06      0.00
   -4   15    6      1.95      0.00
   -3   15    6      2.55      0.00
   -2   15    6      9.17      0.00
   -1   15    6      6.71      0.00
    0   15    6     -0.78      0.00
    1   15    6     -1.17      0.00
    2   15    6     -2.25      0.00
    3   15    6      1.31      0.00
    4   15    6      3.97      0.00
    5   15    6     -0.89      0.00
    6   15    6     -0.34      0.00
    7   15    6      1.44      0.00
    8   15    6      2.06      0.00
    9   15    6      3.62      0.00
   10   15    6      0.81      0.00
   11   15    6     -1.03      0.00
   12   15    6     -0.72      0.00
   13   15    6     -0.96      0.00
   -8   16    6      4.17      0.00
   -7   16    6      3.63      0.00
   -6   16    6      2.80      0.00
   -5   16    6      1.67      0.00
   -4   16    6      0.69      0.00
   -3   16    6      1.60      0.00
   -2   16    6      2.66      0.00
   -1   16    6      0.45      0.00
    0   16    6     -0.80      0.00
    1   16    6      0.53      0.00
    2   16    6     -4.01      0.00
    3   16    6      3.04      0.00
    4   16    6      0.23      0.00
    5   16    6     -0.34      0.00
    6   16    6      3.26      0.00
    7   16    6     -1.99      0.00
    8   16    6      0.34      0.00
    9   16    6     -0.49      0.00
   10   16    6     -0.19      0.00
   11   16    6     -1.90      0.00
   12   16    6      1.82      0.00
   -8   17    6     -1.32      0.00
   -7   17    6      1.51      0.00
   -6   17    6      8.63      0.00
   -5   17    6      5.68      0.00
   -4   17    6     -2.10      0.00
   -3   17    6     -2.25      0.00
   -2   17    6     -3.31      0.00
   -1   17    6      0.08      0.00
    0   17    6     -4.78      0.00
    1   17    6      0.06      0.00
    2   17    6     -1.37      0.00
    3   17    6     -1.42      0.00
    4   17    6      0.66      0.00
    5   17    6      0.11      0.00
    6   17    6      2.80      0.00
    7   17    6     -1.66      0.00
    8   17    6     -0.26      0.00
    9   17    6     -0.97      0.00
   10   17    6      0.76      0.00
   -9   18    6      2.09      0.00
   -8   18    6     -0.45      0.00
   -7   18    6     -0.64      0.00
   -6   18    6      3.69      0.00
   -5   18    6     -1.02      0.00
   -4   18    6      2.17      0.00
   -3   18    6      1.31      0.00
   -2   18    6     -2.89      0.00
   -1   18    6     -0.16      0.00
    0   18    6      0.48      0.00
    1   18    6     -0.18      0.00
    2   18    6      1.24      0.00
    3   18    6      1.40      0.00
    4   18    6      1.52      0.00
    5   18    6     -1.08      0.00
    6   18    6     -2.16      0.00
    7   18    6     -0.20      0.00
    8   18    6      1.51      0.00
    9   18    6     -0.62      0.00
   -9   19    6      5.13      0.00
   -8   19    6     -0.18      0.00
   -7   19    6     -3.56      0.00
   -6   19    6     -4.04      0.00
   -5   19    6      0.34      0.00
   -4   19    6      3.93      0.00
   -3   19    6      2.89      0.00
   -2   19    6     -0.78      0.00
   -1   19    6     -0.84      0.00
    0   19    6     -1.32      0.00
    1   19    6      2.02      0.00
    2   19    6      4.04      0.00
    3   19    6     -0.36      0.00
    4   19    6     -1.38      0.00
    5   19    6     -0.50      0.00
    6   19    6      1.17      0.00
    7   19    6     -0.31      0.00
    8   19    6      0.67      0.00
  -10   20    6     -2.19      0.00
   -9   20    6     -1.53      0.00
   -8   20    6     -0.50      0.00
   -7   20    6      2.57      0.00
   -6   20    6     -0.68      0.00
   -5   20    6      0.29      0.00
   -4   20    6      0.71      0.00
   -3   20    6     -0.35      0.00
   -2   20    6      0.70      0.00
   -1   20    6      2.11      0.00
    0   20    6      0.12      0.00
    1   20    6      0.06      0.00
    2   20    6     -0.02      0.00
    3   20    6      2.05      0.00
    4   20    6      2.04      0.00
    5   20    6      0.29      0.00
    6   20    6     -1.09      0.00
    7   20    6     -0.58      0.00
  -10   21    6     -2.17      0.00
   -9   21    6      0.31      0.00
   -8   21    6      3.94      0.00
   -7   21    6      2.87      0.00
   -6   21    6      1.10      0.00
   -5   21    6     -0.17      0.00
   -4   21    6     -0.89      0.00
   -3   21    6      1.53      0.00
   -2   21    6      3.37      0.00
   -1   21    6      0.02      0.00
    0   21    6     -2.01      0.00
    1   21    6      0.63      0.00
    2   21    6     -1.22      0.00
    3   21    6      1.68      0.00
    4   21    6     -0.27      0.00
    5   21    6     -0.64      0.00
  -11   22    6      5.35      0.00
  -10   22    6      1.99      0.00
   -9   22    6      0.91      0.00
   -8   22    6      0.15      0.00
   -7   22    6      0.70      0.00
   -6   22    6      3.28      0.00
   -5   22    6      0.27      0.00
   -4   22    6     -0.43      0.00
   -3   22    6     -1.82      0.00
   -2   22    6     -1.63      0.00
   -1   22    6     -1.62      0.00
    0   22    6      1.81      0.00
    1   22    6      1.30      0.00
    2   22    6     -2.70      0.00
    3   22    6     -1.32      0.00
    4   22    6     -0.62      0.00
  -11   23    6      2.77      0.00
  -10   23    6      0.93      0.00
   -9   23    6     -0.82      0.00
   -8   23    6      1.88      0.00
   -7   23    6     -0.74      0.00
   -6   23    6      2.33      0.00
   -5   23    6     -1.18      0.00
   -4   23    6     -1.09      0.00
   -3   23    6     -1.67      0.00
   -2   23    6     -2.19      0.00
   -1   23    6      1.42      0.00
    0   23    6      0.35      0.00
    1   23    6      0.19      0.00
    2   23    6     -0.64      0.00
  -12   24    6     -2.47      0.00
  -11   24    6     -0.32      0.00
  -10   24    6     -0.84      0.00
   -9   24    6      4.44      0.00
   -8   24    6      1.95      0.00
   -7   24    6     -2.22      0.00
   -6   24    6     -1.31      0.00
   -5   24    6     -1.12      0.00
   -4   24    6      2.12      0.00
   -3   24    6      0.78      0.00
   -2   24    6      0.20      0.00
   -1   24    6      0.28      0.00
    0   24    6     -0.41      0.00
  -12   25    6     -0.36      0.00
  -11   25    6     -1.16      0.00
  -10   25    6     -0.30      0.00
   -9   25    6     -0.96      0.00
   -8   25    6     -0.07      0.00
   -7   25    6      0.31      0.00
   -6   25    6      0.57      0.00
   -5   25    6      0.87      0.00
   -4   25    6      1.01      0.00
   -3   25    6     -2.66      0.00
   -2   25    6     -0.16      0.00
  -13   26    6     -0.66      0.00
  -12   26    6      1.23      0.00
  -11   26    6     -2.26      0.00
  -10   26    6     -0.36      0.00
   -9   26    6      0.40      0.00
   -8   26    6      1.48      0.00
   -7   26    6      0.91      0.00
   -6   26    6     -1.07      0.00
   -5   26    6     -0.83      0.00
   -4   26    6     -2.77      0.00
  -13   27    6     -0.17      0.00
  -12   27    6     -0.69      0.00
  -11   27    6     -0.68      0.00
  -10   27    6      0.18      0.00
   -9   27    6     -1.29      0.00
   -8   27    6      0.60      0.00
   -7   27    6     -1.21      0.00
  -14   28    6      0.08      0.00
  -13   28    6     -0.85      0.00
  -12   28    6     -0.75      0.00
    0    1    7    -14.79      0.00
    0    2    7     19.88      0.00
    1    2    7    -11.26      0.00
   -1    3    7      1.14      0.00
    0    3    7    -25.82      0.00
    1    3    7     -3.87      0.00
    2    3    7    -21.25      0.00
   -1    4    7     -1.04      0.00
    0    4    7    -24.54      0.00
    1    4    7     -3.52      0.00
    2    4    7      4.89      0.00
    3    4    7     -3.41      0.00
   -2    5    7    -33.51      0.00
   -1    5    7      1.11      0.00
    0    5    7     11.46      0.00
    1    5    7    -13.62      0.00
    2    5    7     10.66      0.00
    3    5    7    -13.76      0.00
    4    5    7     -5.81      0.00
   -2    6    7      4.68      0.00
   -1    6    7      0.71      0.00
    0    6    7    -21.10      0.00
    1    6    7      2.47      0.00
    2    6    7      5.19      0.00
    3    6    7    -11.55      0.00
    4    6    7     -1.69      0.00
    5    6    7     -4.76      0.00
   -3    7    7     -7.54      0.00
   -2    7    7     14.92      0.00
   -1    7    7      5.27      0.00
    0    7    7    -15.55      0.00
    1    7    7      1.67      0.00
    2    7    7     -7.91      0.00
    3    7    7     -0.73      0.00
    4    7    7      2.62      0.00
    5    7    7     -4.67      0.00
    6    7    7     -2.12      0.00
   -3    8    7    -14.89      0.00
   -2    8    7     -2.74      0.00
   -1    8    7      3.37      0.00
    0    8    7     -1.20      0.00
    1    8    7     -4.54      0.00
    2    8    7    -10.84      0.00
    3    8    7      5.27      0.00
    4    8    7     -1.53      0.00
    5    8    7     -1.06      0.00
    6    8    7      2.54      0.00
    7    8    7     -3.12      0.00
   -4    9    7     -4.73      0.00
   -3    9    7     -9.50      0.00
   -2    9    7    -11.32      0.00
   -1    9    7      0.89      0.00
    0    9    7     11.63      0.00
    1    9    7     -3.52      0.00
    2    9    7     -6.87      0.00
    3    9    7      1.61      0.00
    4    9    7     -2.55      0.00
    5    9    7      7.58      0.00
    6    9    7      1.19      0.00
    7    9    7     -0.11      0.00
    8    9    7      0.41      0.00
   -4   10    7     -2.16      0.00
   -3   10    7      1.64      0.00
   -2   10    7    -12.04      0.00
   -1   10    7     -3.91      0.00
    0   10    7     -3.54      0.00
    1   10    7      4.40      0.00
    2   10    7      8.71      0.00
    3   10    7     -1.80      0.00
    4   10    7     -4.66      0.00
    5   10    7     -0.73      0.00
    6   10    7     -0.07      0.00
    7   10    7      6.01      0.00
    8   10    7      0.77      0.00
    9   10    7     -2.87      0.00
   -5   11    7     -6.77      0.00
   -4   11    7      1.63      0.00
   -3   11    7      4.91      0.00
   -2   11    7     -8.99      0.00
   -1   11    7      3.34      0.00
    0   11    7    -14.28      0.00
    1   11    7     -0.05      0.00
    2   11    7      4.17      0.00
    3   11    7     -1.36      0.00
    4   11    7      1.70      0.00
    5   11    7      1.26      0.00
    6   11    7      1.81      0.00
    7   11    7      1.19      0.00
    8   11    7     -3.42      0.00
    9   11    7      0.83      0.00
   10   11    7     -0.70      0.00
   -5   12    7     -3.72      0.00
   -4   12    7     -0.74      0.00
   -3   12    7      1.70      0.00
   -2   12    7      7.74      0.00
   -1   12    7      0.09      0.00
    0   12    7     -6.96      0.00
    1   12    7     -0.55      0.00
    2   12    7      0.26      0.00
    3   12    7      5.92      0.00
    4   12    7      3.35      0.00
    5   12    7     -2.80      0.00
    6   12    7     -0.34      0.00
    7   12    7     -1.90      0.00
    8   12    7     -0.46      0.00
    9   12    7      2.14      0.00
   10   12    7     -0.96      0.00
   11   12    7     -0.09      0.00
   -6   13    7     -1.29      0.00
   -5   13    7      0.05      0.00
   -4   13    7     -1.85      0.00
   -3   13    7     -3.52      0.00
   -2   13    7      5.50      0.00
   -1   13    7     -0.28      0.00
    0   13    7      4.79      0.00
    1   13    7     -0.66      0.00
    2   13    7     -0.42      0.00
    3   13    7      1.29      0.00
    4   13    7     -1.56      0.00
    5   13    7     -0.45      0.00
    6   13    7      2.92      0.00
    7   13    7     -0.07      0.00
    8   13    7      0.09      0.00
    9   13    7     -0.06      0.00
   10   13    7      0.10      0.00
   11   13    7     -0.12      0.00
   12   13    7     -1.45      0.00
   -6   14    7      1.56      0.00
   -5   14    7      5.70      0.00
   -4   14    7     -4.30      0.00
   -3   14    7     -1.21      0.00
   -2   14    7     -0.27      0.00
   -1   14    7      1.44      0.00
    0   14    7      7.20      0.00
    1   14    7     -0.30      0.00
    2   14    7      1.14      0.00
    3   14    7     -3.26      0.00
    4   14    7     -2.22      0.00
    5   14    7      2.39      0.00
    6   14    7      0.02      0.00
    7   14    7      0.94      0.00
    8   14    7      1.02      0.00
    9   14    7      0.75      0.00
   10   14    7      1.13      0.00
   11   14    7     -1.43      0.00
   12   14    7     -0.81      0.00
   13   14    7      0.01      0.00
   -7   15    7     -4.33      0.00
   -6   15    7     -0.13      0.00
   -5   15    7     -0.15      0.00
   -4   15    7      2.13      0.00
   -3   15    7      5.84      0.00
   -2   15    7     -0.45      0.00
   -1   15    7      0.00      0.00
    0   15    7     -0.60      0.00
    1   15    7     -1.52      0.00
    2   15    7     -0.31      0.00
    3   15    7     -3.59      0.00
    4   15    7      0.10      0.00
    5   15    7     -0.94      0.00
    6   15    7     -1.87      0.00
    7   15    7      1.85      0.00
    8   15    7      0.24      0.00
    9   15    7     -2.81      0.00
   10   15    7     -0.44      0.00
   11   15    7     -1.20      0.00
   12   15    7     -0.08      0.00
   -7   16    7     -0.31      0.00
   -6   16    7     -1.39      0.00
   -5   16    7      0.45      0.00
   -4   16    7      2.47      0.00
   -3   16    7      0.67      0.00
   -2   16    7      0.39      0.00
   -1   16    7     -1.64      0.00
    0   16    7     -4.27      0.00
    1   16    7      1.60      0.00
    2   16    7      0.48      0.00
    3   16    7     -0.80      0.00
    4   16    7      0.63      0.00
    5   16    7     -0.34      0.00
    6   16    7      3.44      0.00
    7   16    7      0.90      0.00
    8   16    7     -0.85      0.00
    9   16    7     -1.73      0.00
   10   16    7     -0.27      0.00
   11   16    7     -1.33      0.00
   -8   17    7      1.50      0.00
   -7   17    7      5.47      0.00
   -6   17    7      0.55      0.00
   -5   17    7     -5.35      0.00
   -4   17    7     -1.42      0.00
   -3   17    7     -1.70      0.00
   -2   17    7      0.82      0.00
   -1   17    7      0.61      0.00
    0   17    7     -0.65      0.00
    1   17    7     -1.50      0.00
    2   17    7      1.67      0.00
    3   17    7     -0.09      0.00
    4   17    7      3.32      0.00
    5   17    7      4.06      0.00
    6   17    7      3.45      0.00
    7   17    7     -1.22      0.00
    8   17    7      2.23      0.00
    9   17    7     -0.77      0.00
   10   17    7     -3.54      0.00
   -8   18    7     -0.49      0.00
   -7   18    7      0.59      0.00
   -6   18    7      0.49      0.00
   -5   18    7     -1.23      0.00
   -4   18    7     -2.17      0.00
   -3   18    7     -3.50      0.00
   -2   18    7     -0.44      0.00
   -1   18    7     -0.84      0.00
    0   18    7      1.57      0.00
    1   18    7     -1.44      0.00
    2   18    7      0.56      0.00
    3   18    7      2.48      0.00
    4   18    7      1.10      0.00
    5   18    7      0.34      0.00
    6   18    7      1.09      0.00
    7   18    7      1.13      0.00
    8   18    7      0.01      0.00
    9   18    7     -0.98      0.00
   -9   19    7     -1.92      0.00
   -8   19    7     -3.52      0.00
   -7   19    7     -1.39      0.00
   -6   19    7      2.61      0.00
   -5   19    7      3.27      0.00
   -4   19    7      0.96      0.00
   -3   19    7     -2.00      0.00
   -2   19    7     -0.17      0.00
   -1   19    7     -0.50      0.00
    0   19    7     -0.64      0.00
    1   19    7      0.08      0.00
    2   19    7     -0.52      0.00
    3   19    7      1.05      0.00
    4   19    7      1.17      0.00
    5   19    7      2.45      0.00
    6   19    7      2.87      0.00
    7   19    7     -1.46      0.00
    8   19    7      0.41      0.00
   -9   20    7      1.73      0.00
   -8   20    7     -0.58      0.00
   -7   20    7      0.19      0.00
   -6   20    7     -1.15      0.00
   -5   20    7      0.13      0.00
   -4   20    7      2.43      0.00
   -3   20    7      0.86      0.00
   -2   20    7      0.72      0.00
   -1   20    7      0.23      0.00
    0   20    7     -0.78      0.00
    1   20    7     -0.51      0.00
    2   20    7     -1.42      0.00
    3   20    7      1.39      0.00
    4   20    7      0.41      0.00
    5   20    7      0.00      0.00
    6   20    7     -1.10      0.00
  -10   21    7      0.39      0.00
   -9   21    7      2.27      0.00
   -8   21    7     -0.02      0.00
   -7   21    7     -0.58      0.00
   -6   21    7     -1.04      0.00
   -5   21    7      1.01      0.00
   -4   21    7      3.44      0.00
   -3   21    7      3.33      0.00
   -2   21    7      1.05      0.00
   -1   21    7      0.17      0.00
    0   21    7      0.57      0.00
    1   21    7      1.54      0.00
    2   21    7      0.82      0.00
    3   21    7      2.28      0.00
    4   21    7     -0.46      0.00
    5   21    7     -1.21      0.00
  -10   22    7     -0.26      0.00
   -9   22    7     -1.18      0.00
   -8   22    7      0.92      0.00
   -7   22    7      1.37      0.00
   -6   22    7      3.21      0.00
   -5   22    7      1.93      0.00
   -4   22    7      0.55      0.00
   -3   22    7      0.60      0.00
   -2   22    7      0.34      0.00
   -1   22    7      1.41      0.00
    0   22    7     -1.38      0.00
    1   22    7     -0.11      0.00
    2   22    7      0.80      0.00
    3   22    7      0.23      0.00
    4   22    7     -0.12      0.00
  -11   23    7      0.69      0.00
  -10   23    7     -1.48      0.00
   -9   23    7      1.08      0.00
   -8   23    7     -0.34      0.00
   -7   23    7     -1.42      0.00
   -6   23    7      0.45      0.00
   -5   23    7      0.90      0.00
   -4   23    7     -0.39      0.00
   -3   23    7      1.28      0.00
   -2   23    7      0.75      0.00
   -1   23    7     -0.20      0.00
    0   23    7     -0.51      0.00
    1   23    7     -1.60      0.00
    2   23    7     -2.33      0.00
  -11   24    7     -0.18      0.00
  -10   24    7      1.09      0.00
   -9   24    7     -3.31      0.00
   -8   24    7      1.34      0.00
   -7   24    7     -0.82      0.00
   -6   24    7      0.06      0.00
   -5   24    7      1.04      0.00
   -4   24    7     -0.64      0.00
   -3   24    7      1.83      0.00
   -2   24    7      0.60      0.00
   -1   24    7     -1.03      0.00
    0   24    7      0.36      0.00
  -12   25    7     -0.17      0.00
  -11   25    7     -0.89      0.00
  -10   25    7      1.32      0.00
   -9   25    7     -1.15      0.00
   -8   25    7      2.53      0.00
   -7   25    7      1.70      0.00
   -6   25    7      2.94      0.00
   -5   25    7      0.27      0.00
   -4   25    7      0.12      0.00
   -3   25    7     -0.24      0.00
   -2   25    7     -1.88      0.00
  -12   26    7     -0.56      0.00
  -11   26    7     -0.13      0.00
  -10   26    7     -1.58      0.00
   -9   26    7      0.46      0.00
   -8   26    7     -0.03      0.00
   -7   26    7     -0.19      0.00
   -6   26    7      2.09      0.00
   -5   26    7     -0.13      0.00
   -4   26    7     -1.23      0.00
  -13   27    7      0.55      0.00
  -12   27    7      0.08      0.00
  -11   27    7     -0.77      0.00
  -10   27    7     -2.04      0.00
   -9   27    7      0.67      0.00
   -8   27    7      1.45      0.00
    0    0    8     40.53      0.00
    0    1    8     78.93      0.00
    1    1    8     21.37      0.00
   -1    2    8     25.89      0.00
    0    2    8     23.67      0.00
    1    2    8      7.43      0.00
    2    2    8     36.46      0.00
   -1    3    8      6.32      0.00
    0    3    8    -13.39      0.00
    1    3    8    -28.19      0.00
    2    3    8     -1.88      0.00
    3    3    8      3.03      0.00
   -2    4    8     39.92      0.00
   -1    4    8    -26.34      0.00
    0    4    8    -28.87      0.00
    1    4    8    -10.54      0.00
    2    4    8      2.37      0.00
    3    4    8     12.52      0.00
    4    4    8     19.07      0.00
   -2    5    8     -6.07      0.00
   -1    5    8    -12.87      0.00
    0    5    8     21.52      0.00
    1    5    8      1.47      0.00
    2    5    8     -2.75      0.00
    3    5    8     -1.50      0.00
    4    5    8    -10.85      0.00
    5    5    8      5.45      0.00
   -3    6    8      4.59      0.00
   -2    6    8      9.57      0.00
   -1    6    8     -1.60      0.00
    0    6    8    -14.37      0.00
    1    6    8     -3.17      0.00
    2    6    8    -11.95      0.00
    3    6    8     -9.64      0.00
    4    6    8      1.58      0.00
    5    6    8     14.09      0.00
    6    6    8      6.41      0.00
   -3    7    8     10.80      0.00
   -2    7    8     -9.64      0.00
   -1    7    8      2.79      0.00
    0    7    8    -12.81      0.00
    1    7    8      7.05      0.00
    2    7    8      6.58      0.00
    3    7    8     -5.57      0.00
    4    7    8     -3.94      0.00
    5    7    8     -1.06      0.00
    6    7    8      1.07      0.00
    7    7    8      9.89      0.00
   -4    8    8     25.42      0.00
   -3    8    8     -7.43      0.00
   -2    8    8    -11.92      0.00
   -1    8    8      8.78      0.00
    0    8    8    -23.61      0.00
    1    8    8     10.37      0.00
    2    8    8      1.83      0.00
    3    8    8      0.89      0.00
    4    8    8     -0.38      0.00
    5    8    8     -1.63      0.00
    6    8    8     -2.66      0.00
    7    8    8      4.57      0.00
    8    8    8      2.85      0.00
   -4    9    8    -10.76      0.00
   -3    9    8     -5.34      0.00
   -2    9    8      2.40      0.00
   -1    9    8     12.97      0.00
    0    9    8      3.50      0.00
    1    9    8     -5.35      0.00
    2    9    8    -13.04      0.00
    3    9    8      4.27      0.00
    4    9    8     -4.59      0.00
    5    9    8     -0.38      0.00
    6    9    8     -2.15      0.00
    7    9    8     -0.71      0.00
    8    9    8      2.59      0.00
    9    9    8      4.42      0.00
   -5   10    8      5.99      0.00
   -4   10    8      2.14      0.00
   -3   10    8     -3.77      0.00
   -2   10    8      0.60      0.00
   -1   10    8     -3.24      0.00
    0   10    8      1.22      0.00
    1   10    8     -1.42      0.00
    2   10    8     -7.35      0.00
    3   10    8     -0.45      0.00
    4   10    8     -0.54      0.00
    5   10    8      1.83      0.00
    6   10    8      1.03      0.00
    7   10    8      0.08      0.00
    8   10    8      3.65      0.00
    9   10    8      1.16      0.00
   10   10    8      1.56      0.00
   -5   11    8     13.35      0.00
   -4   11    8     -4.57      0.00
   -3   11    8      1.24      0.00
   -2   11    8    -13.27      0.00
   -1   11    8     -2.06      0.00
    0   11    8      8.07      0.00
    1   11    8      3.48      0.00
    2   11    8      0.01      0.00
    3   11    8     -4.57      0.00
    4   11    8     -2.61      0.00
    5   11    8      5.59      0.00
    6   11    8      3.40      0.00
    7   11    8     -0.89      0.00
    8   11    8     -0.18      0.00
    9   11    8     -1.08      0.00
   10   11    8     -1.23      0.00
   11   11    8     -1.51      0.00
   -6   12    8      8.21      0.00
   -5   12    8      0.21      0.00
   -4   12    8     -0.02      0.00
   -3   12    8      4.40      0.00
   -2   12    8     -5.39      0.00
   -1   12    8      2.97      0.00
    0   12    8     -4.95      0.00
    1   12    8     -0.28      0.00
    2   12    8      4.45      0.00
    3   12    8      2.91      0.00
    4   12    8     -0.08      0.00
    5   12    8      1.75      0.00
    6   12    8      0.47      0.00
    7   12    8      0.29      0.00
    8   12    8      0.01      0.00
    9   12    8     -1.32      0.00
   10   12    8      0.53      0.00
   11   12    8      0.83      0.00
   12   12    8     -0.04      0.00
   -6   13    8     -0.79      0.00
   -5   13    8     -2.37      0.00
   -4   13    8     -3.63      0.00
   -3   13    8     -2.07      0.00
   -2   13    8      0.16      0.00
   -1   13    8      0.27      0.00
    0   13    8     -2.95      0.00
    1   13    8      3.33      0.00
    2   13    8      6.12      0.00
    3   13    8      1.99      0.00
    4   13    8     -1.08      0.00
    5   13    8     -1.86      0.00
    6   13    8     -1.04      0.00
    7   13    8      2.83      0.00
    8   13    8      1.03      0.00
    9   13    8     -0.35      0.00
   10   13    8      0.57      0.00
   11   13    8      0.45      0.00
   12   13    8      0.61      0.00
   13   13    8      0.17      0.00
   -7   14    8      7.48      0.00
   -6   14    8     -1.91      0.00
   -5   14    8      0.82      0.00
   -4   14    8      1.24      0.00
   -3   14    8     -5.18      0.00
   -2   14    8      4.81      0.00
   -1   14    8      3.65      0.00
    0   14    8      1.38      0.00
    1   14    8      0.47      0.00
    2   14    8     -1.11      0.00
    3   14    8      1.12      0.00
    4   14    8      2.80      0.00
    5   14    8      0.92      0.00
    6   14    8     -1.00      0.00
    7   14    8      2.03      0.00
    8   14    8     -0.92      0.00
    9   14    8      0.32      0.00
   10   14    8      2.88      0.00
   11   14    8     -0.30      0.00
   12   14    8      0.21      0.00
   13   14    8     -0.07      0.00
   -7   15    8      6.57      0.00
   -6   15    8     -3.01      0.00
   -5   15    8      2.63      0.00
   -4   15    8     -2.49      0.00
   -3   15    8      0.98      0.00
   -2   15    8      5.86      0.00
   -1   15    8      0.35      0.00
    0   15    8      2.07      0.00
    1   15    8     -4.47      0.00
    2   15    8     -0.21      0.00
    3   15    8      1.20      0.00
    4   15    8      1.74      0.00
    5   15    8      1.25      0.00
    6   15    8      0.49      0.00
    7   15    8     -0.81      0.00
    8   15    8      1.14      0.00
    9   15    8      1.42      0.00
   10   15    8     -1.31      0.00
   11   15    8      0.03      0.00
   12   15    8      1.46      0.00
   -8   16    8      2.38      0.00
   -7   16    8     -1.96      0.00
   -6   16    8     -0.52      0.00
   -5   16    8      3.20      0.00
   -4   16    8     -0.66      0.00
   -3   16    8      2.78      0.00
   -2   16    8     -1.22      0.00
   -1   16    8     -5.22      0.00
    0   16    8      2.23      0.00
    1   16    8     -1.37      0.00
    2   16    8      0.22      0.00
    3   16    8     -0.04      0.00
    4   16    8      0.87      0.00
    5   16    8      1.33      0.00
    6   16    8      1.09      0.00
    7   16    8      2.30      0.00
    8   16    8      1.00      0.00
    9   16    8      1.57      0.00
   10   16    8     -0.44      0.00
   11   16    8      0.70      0.00
   -8   17    8     -2.11      0.00
   -7   17    8     -1.04      0.00
   -6   17    8      4.11      0.00
   -5   17    8      1.52      0.00
   -4   17    8      0.46      0.00
   -3   17    8     -0.10      0.00
   -2   17    8     -0.26      0.00
   -1   17    8     -0.23      0.00
    0   17    8      2.89      0.00
    1   17    8      0.94      0.00
    2   17    8      0.79      0.00
    3   17    8     -0.02      0.00
    4   17    8      0.95      0.00
    5   17    8      1.78      0.00
    6   17    8      1.19      0.00
    7   17    8     -0.20      0.00
    8   17    8      2.91      0.00
    9   17    8      1.39      0.00
   10   17    8     -0.13      0.00
   -9   18    8      4.05      0.00
   -8   18    8      2.26      0.00
   -7   18    8     -1.32      0.00
   -6   18    8      0.81      0.00
   -5   18    8     -2.11      0.00
   -4   18    8      1.75      0.00
   -3   18    8     -1.67      0.00
   -2   18    8      1.50      0.00
   -1   18    8      0.77      0.00
    0   18    8      1.60      0.00
    1   18    8      1.56      0.00
    2   18    8      0.61      0.00
    3   18    8      0.02      0.00
    4   18    8      0.27      0.00
    5   18    8      1.02      0.00
    6   18    8      0.22      0.00
    7   18    8      1.33      0.00
    8   18    8     -0.23      0.00
    9   18    8      0.45      0.00
   -9   19    8      0.55      0.00
   -8   19    8     -1.18      0.00
   -7   19    8      1.50      0.00
   -6   19    8     -0.59      0.00
   -5   19    8      1.19      0.00
   -4   19    8      2.27      0.00
   -3   19    8     -0.63      0.00
   -2   19    8      0.53      0.00
   -1   19    8      0.09      0.00
    0   19    8     -0.30      0.00
    1   19    8      2.31      0.00
    2   19    8      2.45      0.00
    3   19    8     -0.53      0.00
    4   19    8     -0.52      0.00
    5   19    8      1.38      0.00
    6   19    8     -0.10      0.00
    7   19    8      0.52      0.00
    8   19    8     -0.31      0.00
  -10   20    8      0.26      0.00
   -9   20    8     -0.56      0.00
   -8   20    8      0.43      0.00
   -7   20    8      2.99      0.00
   -6   20    8      0.03      0.00
   -5   20    8      1.22      0.00
   -4   20    8      0.19      0.00
   -3   20    8      1.02      0.00
   -2   20    8      1.62      0.00
   -1   20    8      3.19      0.00
    0   20    8      0.66      0.00
    1   20    8     -0.42      0.00
    2   20    8     -1.74      0.00
    3   20    8     -0.65      0.00
    4   20    8      1.72      0.00
    5   20    8      0.23      0.00
    6   20    8      0.56      0.00
  -10   21    8     -1.82      0.00
   -9   21    8     -0.30      0.00
   -8   21    8      1.22      0.00
   -7   21    8      2.51      0.00
   -6   21    8      1.23      0.00
   -5   21    8      0.99      0.00
   -4   21    8     -0.02      0.00
   -3   21    8      0.28      0.00
   -2   21    8      2.00      0.00
   -1   21    8      0.36      0.00
    0   21    8     -0.23      0.00
    1   21    8     -0.70      0.00
    2   21    8      1.77      0.00
    3   21    8      3.60      0.00
    4   21    8      0.03      0.00
    5   21    8     -0.64      0.00
  -11   22    8     -0.82      0.00
  -10   22    8      0.02      0.00
   -9   22    8      0.29      0.00
   -8   22    8      0.93      0.00
   -7   22    8     -0.09      0.00
   -6   22    8      1.81      0.00
   -5   22    8      3.93      0.00
   -4   22    8     -0.77      0.00
   -3   22    8     -0.86      0.00
   -2   22    8     -2.47      0.00
   -1   22    8      0.00      0.00
    0   22    8      1.84      0.00
    1   22    8      2.02      0.00
    2   22    8      2.34      0.00
    3   22    8      0.65      0.00
  -11   23    8      0.18      0.00
  -10   23    8      0.22      0.00
   -9   23    8      0.35      0.00
   -8   23    8      0.36      0.00
   -7   23    8      3.41      0.00
   -6   23    8      0.65      0.00
   -5   23    8      2.75      0.00
   -4   23    8     -0.21      0.00
   -3   23    8     -0.42      0.00
   -2   23    8      2.03      0.00
   -1   23    8     -0.39      0.00
    0   23    8     -0.40      0.00
    1   23    8     -0.35      0.00
    2   23    8      0.48      0.00
  -12   24    8      1.69      0.00
  -11   24    8      0.18      0.00
  -10   24    8      1.06      0.00
   -9   24    8     -0.43      0.00
   -8   24    8      0.97      0.00
   -7   24    8      0.24      0.00
   -6   24    8     -1.60      0.00
   -5   24    8     -0.49      0.00
   -4   24    8      2.36      0.00
   -3   24    8      3.09      0.00
   -2   24    8      1.24      0.00
   -1   24    8      0.05      0.00
    0   24    8      0.80      0.00
  -12   25    8      0.38      0.00
  -11   25    8      1.30      0.00
  -10   25    8     -0.21      0.00
   -9   25    8      1.31      0.00
   -8   25    8     -0.32      0.00
   -7   25    8      0.94      0.00
   -6   25    8      0.32      0.00
   -5   25    8      0.77      0.00
   -4   25    8      0.84      0.00
   -3   25    8     -0.51      0.00
   -2   25    8     -0.65      0.00
  -13   26    8      0.96      0.00
  -12   26    8      0.29      0.00
  -11   26    8     -0.37      0.00
  -10   26    8      0.62      0.00
   -9   26    8     -0.95      0.00
   -8   26    8      0.73      0.00
   -7   26    8      0.85      0.00
   -6   26    8      0.76      0.00
   -5   26    8     -0.58      0.00
  -13   27    8     -0.72      0.00
  -12   27    8      0.65      0.00
  -11   27    8     -0.03      0.00
  -10   27    8      0.41      0.00
   -9   27    8      0.91      0.00
   -8   27    8      0.02      0.00
    0    1    9     19.44      0.00
    0    2    9     75.76      0.00
    1    2    9      3.91      0.00
   -1    3    9      3.31      0.00
    0    3    9     36.83      0.00
    1    3    9     10.52      0.00
    2    3    9      3.20      0.00
   -1    4    9     14.86      0.00
    0    4    9    -26.00      0.00
    1    4    9      4.10      0.00
    2    4    9     13.84      0.00
    3    4    9     -7.29      0.00
   -2    5    9      6.52      0.00
   -1    5    9      4.29      0.00
    0    5    9     -8.84      0.00
    1    5    9     -8.71      0.00
    2    5    9    -14.45      0.00
    3    5    9     -0.07      0.00
    4    5    9     13.19      0.00
   -2    6    9     21.44      0.00
   -1    6    9     -1.62      0.00
    0    6    9     -5.54      0.00
    1    6    9    -23.77      0.00
    2    6    9     -3.70      0.00
    3    6    9      9.04      0.00
    4    6    9     13.37      0.00
    5    6    9     -0.14      0.00
   -3    7    9     -9.28      0.00
   -2    7    9     -9.92      0.00
   -1    7    9    -19.83      0.00
    0    7    9      3.59      0.00
    1    7    9     11.11      0.00
    2    7    9      7.77      0.00
    3    7    9     -3.79      0.00
    4    7    9    -11.73      0.00
    5    7    9     -0.89      0.00
    6    7    9      7.65      0.00
   -3    8    9     -3.80      0.00
   -2    8    9     -6.47      0.00
   -1    8    9     11.16      0.00
    0    8    9      9.73      0.00
    1    8    9     -3.89      0.00
    2    8    9     -2.26      0.00
    3    8    9     -8.61      0.00
    4    8    9     -7.46      0.00
    5    8    9      5.32      0.00
    6    8    9      4.28      0.00
    7    8    9      2.14      0.00
   -4    9    9     12.60      0.00
   -3    9    9     11.21      0.00
   -2    9    9      1.99      0.00
   -1    9    9     -1.88      0.00
    0    9    9     -5.15      0.00
    1    9    9     -5.75      0.00
    2    9    9      2.60      0.00
    3    9    9      3.67      0.00
    4    9    9      0.90      0.00
    5    9    9     -4.67      0.00
    6    9    9     -1.90      0.00
    7    9    9      2.31      0.00
    8    9    9      4.93      0.00
   -4   10    9     11.43      0.00
   -3   10    9     -1.78      0.00
   -2   10    9     -4.67      0.00
   -1   10    9     -5.90      0.00
    0   10    9     -2.48      0.00
    1   10    9      9.71      0.00
    2   10    9      0.47      0.00
    3   10    9      1.02      0.00
    4   10    9      1.62      0.00
    5   10    9     -3.54      0.00
    6   10    9     -2.77      0.00
    7   10    9      2.58      0.00
    8   10    9      0.63      0.00
    9   10    9      1.67      0.00
   -5   11    9      0.53      0.00
   -4   11    9    -12.30      0.00
   -3   11    9     -7.86      0.00
   -2   11    9      1.38      0.00
   -1   11    9     10.13      0.00
    0   11    9     -0.32      0.00
    1   11    9      0.83      0.00
    2   11    9    -10.74      0.00
    3   11    9      0.98      0.00
    4   11    9      2.95      0.00
    5   11    9      2.18      0.00
    6   11    9     -0.46      0.00
    7   11    9     -3.08      0.00
    8   11    9     -4.21      0.00
    9   11    9      3.94      0.00
   10   11    9      1.52      0.00
   -5   12    9     -1.41      0.00
   -4   12    9     -7.08      0.00
   -3   12    9      2.90      0.00
   -2   12    9      2.16      0.00
   -1   12    9      0.99      0.00
    0   12    9     -3.13      0.00
    1   12    9     -1.91      0.00
    2   12    9     -2.70      0.00
    3   12    9      2.49      0.00
    4   12    9     -3.34      0.00
    5   12    9     -0.28      0.00
    6   12    9     -1.27      0.00
    7   12    9     -0.92      0.00
    8   12    9      2.54      0.00
    9   12    9      3.44      0.00
   10   12    9     -1.65      0.00
   11   12    9     -0.32      0.00
   -6   13    9     10.02      0.00
   -5   13    9      2.88      0.00
   -4   13    9      1.68      0.00
   -3   13    9     -0.26      0.00
   -2   13    9     -9.41      0.00
   -1   13    9     -3.00      0.00
    0   13    9      8.38      0.00
    1   13    9      3.73      0.00
    2   13    9      2.02      0.00
    3   13    9     -3.55      0.00
    4   13    9     -7.76      0.00
    5   13    9      1.56      0.00
    6   13    9      3.70      0.00
    7   13    9      0.57      0.00
    8   13    9      2.44      0.00
    9   13    9     -1.34      0.00
   10   13    9     -0.01      0.00
   11   13    9      1.14      0.00
   12   13    9      0.73      0.00
   -6   14    9      4.81      0.00
   -5   14    9     -4.37      0.00
   -4   14    9      1.61      0.00
   -3   14    9      1.20      0.00
   -2   14    9     -1.12      0.00
   -1   14    9      3.49      0.00
    0   14    9     -1.80      0.00
    1   14    9     -3.14      0.00
    2   14    9     -0.04      0.00
    3   14    9     -2.60      0.00
    4   14    9     -0.20      0.00
    5   14    9      0.16      0.00
    6   14    9      0.27      0.00
    7   14    9      0.20      0.00
    8   14    9      1.07      0.00
    9   14    9     -0.62      0.00
   10   14    9      0.64      0.00
   11   14    9     -1.66      0.00
   12   14    9     -1.27      0.00
   13   14    9      0.32      0.00
   -7   15    9      0.77      0.00
   -6   15    9     -3.54      0.00
   -5   15    9     -3.13      0.00
   -4   15    9      4.79      0.00
   -3   15    9      4.30      0.00
   -2   15    9      2.94      0.00
   -1   15    9     -3.81      0.00
    0   15    9     -6.83      0.00
    1   15    9      1.81      0.00
    2   15    9      4.95      0.00
    3   15    9      2.69      0.00
    4   15    9     -0.49      0.00
    5   15    9     -2.57      0.00
    6   15    9     -3.27      0.00
    7   15    9      1.17      0.00
    8   15    9      3.75      0.00
    9   15    9      1.60      0.00
   10   15    9     -0.12      0.00
   11   15    9     -3.49      0.00
   12   15    9     -1.39      0.00
   -7   16    9      3.15      0.00
   -6   16    9     -1.48      0.00
   -5   16    9      3.08      0.00
   -4   16    9     -2.91      0.00
   -3   16    9     -4.16      0.00
   -2   16    9      0.09      0.00
   -1   16    9      1.11      0.00
    0   16    9      5.47      0.00
    1   16    9      4.47      0.00
    2   16    9     -0.60      0.00
    3   16    9     -1.10      0.00
    4   16    9      2.54      0.00
    5   16    9     -0.88      0.00
    6   16    9     -0.27      0.00
    7   16    9     -0.27      0.00
    8   16    9     -0.71      0.00
    9   16    9     -1.03      0.00
   10   16    9      1.20      0.00
   11   16    9     -0.85      0.00
   -8   17    9      4.61      0.00
   -7   17    9      3.09      0.00
   -6   17    9     -1.34      0.00
   -5   17    9     -1.94      0.00
   -4   17    9     -8.16      0.00
   -3   17    9     -2.00      0.00
   -2   17    9      6.11      0.00
   -1   17    9      4.61      0.00
    0   17    9      4.04      0.00
    1   17    9     -2.09      0.00
    2   17    9     -2.95      0.00
    3   17    9      0.74      0.00
    4   17    9      0.40      0.00
    5   17    9     -1.24      0.00
    6   17    9     -0.78      0.00
    7   17    9     -1.82      0.00
    8   17    9     -1.48      0.00
    9   17    9      4.82      0.00
   10   17    9      0.39      0.00
   -8   18    9      2.03      0.00
   -7   18    9     -3.96      0.00
   -6   18    9     -0.89      0.00
   -5   18    9     -0.35      0.00
   -4   18    9     -0.29      0.00
   -3   18    9      0.92      0.00
   -2   18    9     -0.87      0.00
   -1   18    9     -2.43      0.00
    0   18    9      2.77      0.00
    1   18    9      1.13      0.00
    2   18    9      1.87      0.00
    3   18    9      0.18      0.00
    4   18    9     -1.57      0.00
    5   18    9     -0.48      0.00
    6   18    9      1.07      0.00
    7   18    9      1.50      0.00
    8   18    9      0.97      0.00
    9   18    9      0.06      0.00
   -9   19    9      1.38      0.00
   -8   19    9     -5.14      0.00
   -7   19    9     -1.06      0.00
   -6   19    9      3.02      0.00
   -5   19    9      0.30      0.00
   -4   19    9      0.30      0.00
   -3   19    9     -0.94      0.00
   -2   19    9     -3.38      0.00
   -1   19    9      1.06      0.00
    0   19    9      4.47      0.00
    1   19    9     -0.67      0.00
    2   19    9      0.18      0.00
    3   19    9     -1.32      0.00
    4   19    9      0.51      0.00
    5   19    9      2.71      0.00
    6   19    9     -0.73      0.00
    7   19    9     -0.18      0.00
   -9   20    9      3.37      0.00
   -8   20    9     -0.05      0.00
   -7   20    9      0.57      0.00
   -6   20    9     -0.53      0.00
   -5   20    9     -2.05      0.00
   -4   20    9      2.09      0.00
   -3   20    9      2.18      0.00
   -2   20    9      2.36      0.00
   -1   20    9      0.29      0.00
    0   20    9     -2.92      0.00
    1   20    9     -0.22      0.00
    2   20    9      0.30      0.00
    3   20    9      1.95      0.00
    4   20    9      3.23      0.00
    5   20    9      1.82      0.00
    6   20    9     -1.17      0.00
  -10   21    9      1.47      0.00
   -9   21    9      3.27      0.00
   -8   21    9      1.22      0.00
   -7   21    9     -0.34      0.00
   -6   21    9     -2.19      0.00
   -5   21    9     -0.84      0.00
   -4   21    9      0.89      0.00
   -3   21    9     -0.83      0.00
   -2   21    9     -1.57      0.00
   -1   21    9     -1.38      0.00
    0   21    9     -0.07      0.00
    1   21    9      1.02      0.00
    2   21    9      0.79      0.00
    3   21    9      2.07      0.00
    4   21    9      1.94      0.00
    5   21    9      0.26      0.00
  -10   22    9     -1.75      0.00
   -9   22    9     -1.56      0.00
   -8   22    9      0.57      0.00
   -7   22    9      1.67      0.00
   -6   22    9      0.64      0.00
   -5   22    9      0.56      0.00
   -4   22    9     -3.46      0.00
   -3   22    9     -1.72      0.00
   -2   22    9      0.97      0.00
   -1   22    9      1.60      0.00
    0   22    9      1.30      0.00
    1   22    9      1.33      0.00
    2   22    9     -0.41      0.00
    3   22    9      1.74      0.00
  -11   23    9     -0.13      0.00
  -10   23    9     -1.57      0.00
   -9   23    9     -0.82      0.00
   -8   23    9      2.33      0.00
   -7   23    9      0.35      0.00
   -6   23    9      0.11      0.00
   -5   23    9      1.70      0.00
   -4   23    9      0.57      0.00
   -3   23    9      2.08      0.00
   -2   23    9      0.67      0.00
   -1   23    9      2.57      0.00
    0   23    9     -0.34      0.00
    1   23    9     -2.82      0.00
  -11   24    9      1.63      0.00
  -10   24    9      1.11      0.00
   -9   24    9      0.07      0.00
   -8   24    9      0.39      0.00
   -7   24    9     -1.62      0.00
   -6   24    9      2.29      0.00
   -5   24    9      0.35      0.00
   -4   24    9      1.97      0.00
   -3   24    9      0.40      0.00
   -2   24    9      0.16      0.00
   -1   24    9     -1.50      0.00
  -12   25    9      0.61      0.00
  -11   25    9     -3.63      0.00
  -10   25    9      1.02      0.00
   -9   25    9     -0.95      0.00
   -8   25    9     -1.49      0.00
   -7   25    9     -2.84      0.00
   -6   25    9     -1.46      0.00
   -5   25    9      1.03      0.00
   -4   25    9      2.54      0.00
   -3   25    9      2.06      0.00
  -12   26    9     -3.14      0.00
  -11   26    9     -1.41      0.00
  -10   26    9      0.00      0.00
   -9   26    9      1.90      0.00
   -8   26    9     -0.22      0.00
   -7   26    9     -0.45      0.00
   -6   26    9     -3.45      0.00
   -5   26    9     -0.58      0.00
  -13   27    9      0.51      0.00
  -12   27    9     -1.95      0.00
  -11   27    9      0.07      0.00
  -10   27    9      0.69      0.00
   -9   27    9      2.81      0.00
    0    0   10   -129.12      0.00
    0    1   10    -26.17      0.00
    1    1   10     23.01      0.00
   -1    2   10     21.41      0.00
    0    2   10      3.69      0.00
    1    2   10      3.20      0.00
    2    2   10    -11.35      0.00
   -1    3   10      2.78      0.00
    0    3   10     28.90      0.00
    1    3   10     -2.64      0.00
    2    3   10    -10.59      0.00
    3    3   10      4.82      0.00
   -2    4   10     -7.69      0.00
   -1    4   10     -5.44      0.00
    0    4   10     26.03      0.00
    1    4   10     20.17      0.00
    2    4   10     11.19      0.00
    3    4   10     -5.45      0.00
    4    4   10     -2.16      0.00
   -2    5   10     -8.66      0.00
   -1    5   10     17.60      0.00
    0    5   10     17.81      0.00
    1    5   10     -9.39      0.00
    2    5   10      4.67      0.00
    3    5   10     -3.33      0.00
    4    5   10     -4.65      0.00
    5    5   10      0.16      0.00
   -3    6   10      5.16      0.00
   -2    6   10     10.56      0.00
   -1    6   10     -8.96      0.00
    0    6   10    -17.35      0.00
    1    6   10     -6.00      0.00
    2    6   10     10.38      0.00
    3    6   10      1.28      0.00
    4    6   10     -4.83      0.00
    5    6   10     -6.46      0.00
    6    6   10    -12.32      0.00
   -3    7   10     -5.66      0.00
   -2    7   10      3.22      0.00
   -1    7   10     -1.08      0.00
    0    7   10      6.67      0.00
    1    7   10      2.51      0.00
    2    7   10     -6.07      0.00
    3    7   10     -3.36      0.00
    4    7   10      2.60      0.00
    5    7   10     -3.00      0.00
    6    7   10     -1.33      0.00
    7    7   10     -1.20      0.00
   -4    8   10     -1.30      0.00
   -3    8   10     -1.62      0.00
   -2    8   10      6.97      0.00
   -1    8   10      7.65      0.00
    0    8   10    -15.29      0.00
    1    8   10    -11.16      0.00
    2    8   10     -5.21      0.00
    3    8   10      4.94      0.00
    4    8   10      5.28      0.00
    5    8   10      2.74      0.00
    6    8   10     -1.92      0.00
    7    8   10     -6.76      0.00
    8    8   10     -6.36      0.00
   -4    9   10     -3.70      0.00
   -3    9   10      1.79      0.00
   -2    9   10     -8.04      0.00
   -1    9   10    -11.05      0.00
    0    9   10      3.49      0.00
    1    9   10      1.94      0.00
    2    9   10      0.64      0.00
    3    9   10      2.03      0.00
    4    9   10     -8.68      0.00
    5    9   10     -4.15      0.00
    6    9   10      1.40      0.00
    7    9   10      1.02      0.00
    8    9   10      3.66      0.00
    9    9   10     -0.37      0.00
   -5   10   10      3.63      0.00
   -4   10   10     -3.86      0.00
   -3   10   10     -0.72      0.00
   -2   10   10     -5.87      0.00
   -1   10   10     -0.41      0.00
    0   10   10      8.87      0.00
    1   10   10     -0.87      0.00
    2   10   10      1.07      0.00
    3   10   10     -4.73      0.00
    4   10   10     -5.46      0.00
    5   10   10     -1.44      0.00
    6   10   10      0.82      0.00
    7   10   10      0.48      0.00
    8   10   10     -1.13      0.00
    9   10   10     -4.57      0.00
   10   10   10     -1.03      0.00
   -5   11   10     -7.07      0.00
   -4   11   10      1.65      0.00
   -3   11   10      6.09      0.00
   -2   11   10      2.19      0.00
   -1   11   10     -1.01      0.00
    0   11   10     -9.90      0.00
    1   11   10     -5.23      0.00
    2   11   10      4.18      0.00
    3   11   10      1.29      0.00
    4   11   10      1.14      0.00
    5   11   10     -4.29      0.00
    6   11   10     -6.79      0.00
    7   11   10     -0.79      0.00
    8   11   10      2.36      0.00
    9   11   10      1.09      0.00
   10   11   10      3.79      0.00
   11   11   10     -2.15      0.00
   -6   12   10     -9.78      0.00
   -5   12   10     -4.55      0.00
   -4   12   10      6.24      0.00
   -3   12   10      0.37      0.00
   -2   12   10      1.64      0.00
   -1   12   10     -6.18      0.00
    0   12   10     -7.12      0.00
    1   12   10      2.81      0.00
    2   12   10      2.12      0.00
    3   12   10     -2.50      0.00
    4   12   10      4.16      0.00
    5   12   10     -5.31      0.00
    6   12   10     -1.85      0.00
    7   12   10      2.07      0.00
    8   12   10     -1.17      0.00
    9   12   10      0.18      0.00
   10   12   10      0.74      0.00
   11   12   10     -2.93      0.00
   12   12   10      1.05      0.00
   -6   13   10      0.18      0.00
   -5   13   10      2.49      0.00
   -4   13   10     -6.38      0.00
   -3   13   10     -5.77      0.00
   -2   13   10      6.20      0.00
   -1   13   10      2.50      0.00
    0   13   10      6.95      0.00
    1   13   10     -1.13      0.00
    2   13   10    -12.01      0.00
    3   13   10     -4.01      0.00
    4   13   10      3.48      0.00
    5   13   10      0.93      0.00
    6   13   10      4.10      0.00
    7   13   10     -2.89      0.00
    8   13   10     -3.68      0.00
    9   13   10      0.53      0.00
   10   13   10      1.16      0.00
   11   13   10      1.67      0.00
   12   13   10      0.20      0.00
   13   13   10     -4.05      0.00
   -7   14   10     -3.85      0.00
   -6   14   10     -1.14      0.00
   -5   14   10     -3.58      0.00
   -4   14   10     -6.03      0.00
   -3   14   10      0.02      0.00
   -2   14   10      1.78      0.00
   -1   14   10     -2.64      0.00
    0   14   10     -0.33      0.00
    1   14   10     -4.07      0.00
    2   14   10     -1.62      0.00
    3   14   10      1.43      0.00
    4   14   10     -0.06      0.00
    5   14   10     -0.40      0.00
    6   14   10      0.87      0.00
    7   14   10     -3.84      0.00
    8   14   10      2.11      0.00
    9   14   10      0.20      0.00
   10   14   10      0.00      0.00
   11   14   10      0.71      0.00
   12   14   10     -0.84      0.00
   13   14   10      0.30      0.00
   -7   15   10     -6.71      0.00
   -6   15   10      0.85      0.00
   -5   15   10     -3.26      0.00
   -4   15   10      0.97      0.00
   -3   15   10     -1.39      0.00
   -2   15   10    -10.74      0.00
   -1   15   10     -3.54      0.00
    0   15   10      0.16      0.00
    1   15   10      3.39      0.00
    2   15   10      5.04      0.00
    3   15   10     -2.03      0.00
    4   15   10     -4.68      0.00
    5   15   10     -0.56      0.00
    6   15   10      1.14      0.00
    7   15   10     -0.21      0.00
    8   15   10      0.85      0.00
    9   15   10     -1.51      0.00
   10   15   10     -1.79      0.00
   11   15   10      1.57      0.00
   12   15   10     -0.18      0.00
   -8   16   10     -6.33      0.00
   -7   16   10      1.87      0.00
   -6   16   10     -0.88      0.00
   -5   16   10     -4.84      0.00
   -4   16   10      3.06      0.00
   -3   16   10     -0.09      0.00
   -2   16   10     -2.67      0.00
   -1   16   10      2.53      0.00
    0   16   10     -1.28      0.00
    1   16   10      1.12      0.00
    2   16   10      2.16      0.00
    3   16   10      0.16      0.00
    4   16   10      1.65      0.00
    5   16   10     -0.02      0.00
    6   16   10     -1.30      0.00
    7   16   10     -0.04      0.00
    8   16   10     -0.86      0.00
    9   16   10     -1.47      0.00
   10   16   10      1.59      0.00
   11   16   10     -0.60      0.00
   -8   17   10      4.77      0.00
   -7   17   10     -0.79      0.00
   -6   17   10     -6.82      0.00
   -5   17   10     -5.19      0.00
   -4   17   10      2.61      0.00
   -3   17   10      0.15      0.00
   -2   17   10      5.65      0.00
   -1   17   10     -0.29      0.00
    0   17   10     -1.36      0.00
    1   17   10     -0.09      0.00
    2   17   10      1.42      0.00
    3   17   10      1.66      0.00
    4   17   10      0.17      0.00
    5   17   10     -0.65      0.00
    6   17   10     -0.48      0.00
    7   17   10     -1.79      0.00
    8   17   10     -0.60      0.00
    9   17   10      1.13      0.00
   10   17   10     -1.00      0.00
   -9   18   10     -2.43      0.00
   -8   18   10      0.05      0.00
   -7   18   10     -0.20      0.00
   -6   18   10     -1.02      0.00
   -5   18   10      2.04      0.00
   -4   18   10      0.58      0.00
   -3   18   10     -0.96      0.00
   -2   18   10      0.83      0.00
   -1   18   10     -1.04      0.00
    0   18   10      0.26      0.00
    1   18   10      0.49      0.00
    2   18   10     -3.05      0.00
    3   18   10     -1.71      0.00
    4   18   10      0.67      0.00
    5   18   10     -0.29      0.00
    6   18   10     -1.43      0.00
    7   18   10     -1.64      0.00
    8   18   10     -1.44      0.00
   -9   19   10     -3.90      0.00
   -8   19   10      1.63      0.00
   -7   19   10      1.27      0.00
   -6   19   10      3.43      0.00
   -5   19   10      0.27      0.00
   -4   19   10     -4.93      0.00
   -3   19   10      0.70      0.00
   -2   19   10      1.25      0.00
   -1   19   10      1.19      0.00
    0   19   10     -0.04      0.00
    1   19   10     -1.39      0.00
    2   19   10     -3.20      0.00
    3   19   10      0.91      0.00
    4   19   10     -2.39      0.00
    5   19   10     -2.26      0.00
    6   19   10     -0.46      0.00
    7   19   10      0.85      0.00
  -10   20   10     -1.63      0.00
   -9   20   10      1.67      0.00
   -8   20   10     -2.44      0.00
   -7   20   10     -2.97      0.00
   -6   20   10      1.19      0.00
   -5   20   10      0.15      0.00
   -4   20   10      0.54      0.00
   -3   20   10      0.99      0.00
   -2   20   10     -3.16      0.00
   -1   20   10     -2.18      0.00
    0   20   10     -0.95      0.00
    1   20   10      0.80      0.00
    2   20   10      1.46      0.00
    3   20   10     -0.23      0.00
    4   20   10     -3.17      0.00
    5   20   10     -1.26      0.00
    6   20   10     -1.00      0.00
  -10   21   10      2.40      0.00
   -9   21   10      0.08      0.00
   -8   21   10     -2.67      0.00
   -7   21   10     -3.60      0.00
   -6   21   10      0.31      0.00
   -5   21   10     -0.57      0.00
   -4   21   10     -0.45      0.00
   -3   21   10     -1.75      0.00
   -2   21   10     -3.25      0.00
   -1   21   10      0.86      0.00
    0   21   10     -0.08      0.00
    1   21   10      0.20      0.00
    2   21   10     -0.62      0.00
    3   21   10      0.87      0.00
    4   21   10     -0.27      0.00
  -11   22   10     -4.34      0.00
  -10   22   10     -0.36      0.00
   -9   22   10      0.07      0.00
   -8   22   10     -0.31      0.00
   -7   22   10      0.69      0.00
   -6   22   10     -1.23      0.00
   -5   22   10     -1.33      0.00
   -4   22   10     -0.09      0.00
   -3   22   10      2.36      0.00
   -2   22   10      1.17      0.00
   -1   22   10      0.07      0.00
    0   22   10     -2.34      0.00
    1   22   10      0.25      0.00
    2   22   10     -1.62      0.00
    3   22   10     -0.63      0.00
  -11   23   10     -2.94      0.00
  -10   23   10      2.10      0.00
   -9   23   10      0.49      0.00
   -8   23   10      2.23      0.00
   -7   23   10     -0.55      0.00
   -6   23   10     -0.48      0.00
   -5   23   10     -1.20      0.00
   -4   23   10     -1.21      0.00
   -3   23   10      0.38      0.00
   -2   23   10     -0.04      0.00
   -1   23   10      0.06      0.00
    0   23   10      0.81      0.00
    1   23   10     -0.11      0.00
  -12   24   10      0.87      0.00
  -11   24   10      0.73      0.00
  -10   24   10      3.23      0.00
   -9   24   10      0.64      0.00
   -8   24   10      1.61      0.00
   -7   24   10     -1.52      0.00
   -6   24   10      1.72      0.00
   -5   24   10     -2.57      0.00
   -4   24   10     -1.94      0.00
   -3   24   10     -0.83      0.00
   -2   24   10     -1.98      0.00
   -1   24   10     -0.31      0.00
  -12   25   10     -0.02      0.00
  -11   25   10      1.66      0.00
  -10   25   10     -1.16      0.00
   -9   25   10     -1.22      0.00
   -8   25   10     -0.74      0.00
   -7   25   10     -0.48      0.00
   -6   25   10      0.02      0.00
   -5   25   10     -1.09      0.00
   -4   25   10      0.06      0.00
   -3   25   10     -0.96      0.00
  -13   26   10     -3.84      0.00
  -12   26   10     -1.47      0.00
  -11   26   10      1.87      0.00
  -10   26   10      1.47      0.00
   -9   26   10      0.91      0.00
   -8   26   10     -1.72      0.00
   -7   26   10      0.32      0.00
   -6   26   10     -1.36      0.00
  -13   27   10     -0.14      0.00
  -12   27   10     -0.04      0.00
  -11   27   10     -1.51      0.00
  -10   27   10      0.06      0.00
    0    1   11      1.35      0.00
    0    2   11    -31.08      0.00
    1    2   11    -12.47      0.00
   -1    3   11    -14.01      0.00
    0    3   11     10.77      0.00
    1    3   11     14.41      0.00
    2    3   11     -1.88      0.00
   -1    4   11     16.82      0.00
    0    4   11     16.47      0.00
    1    4   11      7.19      0.00
    2    4   11     -7.41      0.00
    3    4   11      7.06      0.00
   -2    5   11      1.86      0.00
   -1    5   11      5.76      0.00
    0    5   11    -14.45      0.00
    1    5   11      7.03      0.00
    2    5   11     -5.85      0.00
    3    5   11     10.18      0.00
    4    5   11      3.61      0.00
   -2    6   11     -4.81      0.00
   -1    6   11      7.51      0.00
    0    6   11      7.39      0.00
    1    6   11     -4.23      0.00
    2    6   11     -2.55      0.00
    3    6   11      2.08      0.00
    4    6   11     -1.61      0.00
    5    6   11      4.31      0.00
   -3    7   11      7.48      0.00
   -2    7   11     -6.34      0.00
   -1    7   11     -4.23      0.00
    0    7   11      5.30      0.00
    1    7   11      1.16      0.00
    2    7   11      3.74      0.00
    3    7   11      2.98      0.00
    4    7   11     -3.59      0.00
    5    7   11      0.53      0.00
    6    7   11     -2.67      0.00
   -3    8   11      9.50      0.00
   -2    8   11      2.40      0.00
   -1    8   11      3.10      0.00
    0    8   11    -14.86      0.00
    1    8   11     -1.31      0.00
    2    8   11      6.81      0.00
    3    8   11      0.58      0.00
    4    8   11      1.44      0.00
    5    8   11     -1.73      0.00
    6    8   11     -5.06      0.00
    7    8   11      2.24      0.00
   -4    9   11      3.23      0.00
   -3    9   11      0.54      0.00
   -2    9   11      3.10      0.00
   -1    9   11     -4.15      0.00
    0    9   11     -2.79      0.00
    1    9   11      0.72      0.00
    2    9   11     -3.95      0.00
    3    9   11     -3.32      0.00
    4    9   11      2.51      0.00
    5    9   11     -2.81      0.00
    6    9   11      3.81      0.00
    7    9   11     -1.20      0.00
    8    9   11     -2.45      0.00
   -4   10   11     -2.81      0.00
   -3   10   11      3.73      0.00
   -2   10   11      6.45      0.00
   -1   10   11     -0.31      0.00
    0   10   11     -3.89      0.00
    1   10   11     -5.77      0.00
    2   10   11     -9.66      0.00
    3   10   11      0.79      0.00
    4   10   11      3.40      0.00
    5   10   11      2.39      0.00
    6   10   11      3.04      0.00
    7   10   11     -5.17      0.00
    8   10   11     -1.03      0.00
    9   10   11      1.04      0.00
   -5   11   11      5.46      0.00
   -4   11   11     -5.66      0.00
   -3   11   11      1.85      0.00
   -2   11   11     -2.04      0.00
   -1   11   11     -6.27      0.00
    0   11   11     -0.67      0.00
    1   11   11      3.28      0.00
    2   11   11      1.82      0.00
    3   11   11      3.68      0.00
    4   11   11      0.25      0.00
    5   11   11      1.79      0.00
    6   11   11     -0.71      0.00
    7   11   11      1.30      0.00
    8   11   11      3.95      0.00
    9   11   11      0.07      0.00
   10   11   11     -0.44      0.00
   -5   12   11      1.00      0.00
   -4   12   11     -0.57      0.00
   -3   12   11     -3.93      0.00
   -2   12   11     -8.05      0.00
   -1   12   11      1.85      0.00
    0   12   11      2.49      0.00
    1   12   11     -1.25      0.00
    2   12   11      5.62      0.00
    3   12   11     -4.28      0.00
    4   12   11      1.43      0.00
    5   12   11      3.57      0.00
    6   12   11     -1.29      0.00
    7   12   11      0.86      0.00
    8   12   11      0.16      0.00
    9   12   11     -1.81      0.00
   10   12   11      1.55      0.00
   11   12   11      1.23      0.00
   -6   13   11     -2.88      0.00
   -5   13   11     -1.45      0.00
   -4   13   11      3.79      0.00
   -3   13   11     -0.04      0.00
   -2   13   11      1.91      0.00
   -1   13   11     -0.70      0.00
    0   13   11     -5.75      0.00
    1   13   11     -5.63      0.00
    2   13   11      2.06      0.00
    3   13   11      0.82      0.00
    4   13   11      5.52      0.00
    5   13   11     -0.47      0.00
    6   13   11     -3.03      0.00
    7   13   11     -0.87      0.00
    8   13   11     -1.12      0.00
    9   13   11      1.10      0.00
   10   13   11      0.59      0.00
   11   13   11     -2.50      0.00
   12   13   11     -1.77      0.00
   -6   14   11     -6.51      0.00
   -5   14   11     -0.62      0.00
   -4   14   11      3.91      0.00
   -3   14   11      2.49      0.00
   -2   14   11      6.46      0.00
   -1   14   11     -5.09      0.00
    0   14   11     -1.63      0.00
    1   14   11      1.02      0.00
    2   14   11      2.38      0.00
    3   14   11      3.61      0.00
    4   14   11      3.37      0.00
    5   14   11     -2.01      0.00
    6   14   11      0.53      0.00
    7   14   11      1.76      0.00
    8   14   11     -1.77      0.00
    9   14   11     -0.52      0.00
   10   14   11     -1.57      0.00
   11   14   11     -1.16      0.00
   12   14   11      0.93      0.00
   13   14   11      1.13      0.00
   -7   15   11      1.97      0.00
   -6   15   11      3.53      0.00
   -5   15   11      1.47      0.00
   -4   15   11     -0.45      0.00
   -3   15   11     -4.60      0.00
   -2   15   11      1.16      0.00
   -1   15   11      1.83      0.00
    0   15   11      6.01      0.00
    1   15   11     -0.05      0.00
    2   15   11      0.53      0.00
    3   15   11     -0.89      0.00
    4   15   11      1.26      0.00
    5   15   11      2.63      0.00
    6   15   11      3.99      0.00
    7   15   11     -1.00      0.00
    8   15   11     -2.08      0.00
    9   15   11     -0.04      0.00
   10   15   11     -1.41      0.00
   11   15   11      1.00      0.00
   12   15   11      1.83      0.00
   -7   16   11     -1.92      0.00
   -6   16   11      2.86      0.00
   -5   16   11      2.39      0.00
   -4   16   11      1.02      0.00
   -3   16   11      1.49      0.00
   -2   16   11      2.30      0.00
   -1   16   11      1.08      0.00
    0   16   11      3.94      0.00
    1   16   11     -1.58      0.00
    2   16   11     -0.45      0.00
    3   16   11     -0.32      0.00
    4   16   11     -0.54      0.00
    5   16   11      1.35      0.00
    6   16   11     -0.42      0.00
    7   16   11     -1.59      0.00
    8   16   11      2.68      0.00
    9   16   11     -0.58      0.00
   10   16   11      1.05      0.00
   11   16   11      1.65      0.00
   -8   17   11     -3.87      0.00
   -7   17   11     -5.99      0.00
   -6   17   11     -1.89      0.00
   -5   17   11      4.03      0.00
   -4   17   11      5.71      0.00
   -3   17   11      3.24      0.00
   -2   17   11     -0.81      0.00
   -1   17   11     -4.10      0.00
    0   17   11     -1.64      0.00
    1   17   11      2.58      0.00
    2   17   11      1.14      0.00
    3   17   11     -1.13      0.00
    4   17   11     -0.97      0.00
    5   17   11      0.54      0.00
    6   17   11      0.56      0.00
    7   17   11      0.92      0.00
    8   17   11     -0.06      0.00
    9   17   11     -2.06      0.00
   -8   18   11     -1.14      0.00
   -7   18   11      1.07      0.00
   -6   18   11     -2.18      0.00
   -5   18   11     -0.50      0.00
   -4   18   11      2.16      0.00
   -3   18   11      0.42      0.00
   -2   18   11     -0.13      0.00
   -1   18   11      2.57      0.00
    0   18   11     -2.41      0.00
    1   18   11      0.49      0.00
    2   18   11     -0.43      0.00
    3   18   11     -0.47      0.00
    4   18   11     -0.23      0.00
    5   18   11      0.15      0.00
    6   18   11     -2.05      0.00
    7   18   11      0.63      0.00
    8   18   11     -0.85      0.00
   -9   19   11      1.52      0.00
   -8   19   11      2.99      0.00
   -7   19   11      1.41      0.00
   -6   19   11     -1.89      0.00
   -5   19   11     -1.68      0.00
   -4   19   11      0.63      0.00
   -3   19   11      1.33      0.00
   -2   19   11      2.32      0.00
   -1   19   11      1.25      0.00
    0   19   11     -3.43      0.00
    1   19   11     -0.10      0.00
    2   19   11     -0.03      0.00
    3   19   11      1.82      0.00
    4   19   11      1.20      0.00
    5   19   11     -1.34      0.00
    6   19   11      1.86      0.00
    7   19   11     -0.62      0.00
   -9   20   11      0.86      0.00
   -8   20   11      0.11      0.00
   -7   20   11      0.01      0.00
   -6   20   11      0.67      0.00
   -5   20   11      2.89      0.00
   -4   20   11     -1.60      0.00
   -3   20   11     -1.84      0.00
   -2   20   11     -1.21      0.00
   -1   20   11     -0.45      0.00
    0   20   11      0.80      0.00
    1   20   11      1.46      0.00
    2   20   11     -0.13      0.00
    3   20   11     -1.04      0.00
    4   20   11     -1.10      0.00
    5   20   11      0.39      0.00
    6   20   11     -0.36      0.00
  -10   21   11     -0.48      0.00
   -9   21   11     -2.05      0.00
   -8   21   11     -1.59      0.00
   -7   21   11      1.72      0.00
   -6   21   11      2.79      0.00
   -5   21   11      1.86      0.00
   -4   21   11      0.94      0.00
   -3   21   11     -0.38      0.00
   -2   21   11     -0.38      0.00
   -1   21   11      1.03      0.00
    0   21   11     -1.34      0.00
    1   21   11     -0.06      0.00
    2   21   11     -1.03      0.00
    3   21   11     -0.91      0.00
    4   21   11     -0.86      0.00
  -10   22   11      0.46      0.00
   -9   22   11      1.38      0.00
   -8   22   11     -1.57      0.00
   -7   22   11      0.03      0.00
   -6   22   11      0.09      0.00
   -5   22   11      1.33      0.00
   -4   22   11      0.41      0.00
   -3   22   11      2.60      0.00
   -2   22   11     -0.80      0.00
   -1   22   11     -1.34      0.00
    0   22   11     -1.24      0.00
    1   22   11     -0.28      0.00
    2   22   11      0.72      0.00
  -11   23   11      0.74      0.00
  -10   23   11      1.40      0.00
   -9   23   11     -1.01      0.00
   -8   23   11     -1.99      0.00
   -7   23   11     -0.95      0.00
   -6   23   11     -0.57      0.00
   -5   23   11     -0.88      0.00
   -4   23   11      1.66      0.00
   -3   23   11      0.46      0.00
   -2   23   11     -0.28      0.00
   -1   23   11     -0.71      0.00
    0   23   11      1.83      0.00
    1   23   11      3.03      0.00
  -11   24   11     -2.79      0.00
  -10   24   11     -1.41      0.00
   -9   24   11     -3.26      0.00
   -8   24   11      1.03      0.00
   -7   24   11      0.50      0.00
   -6   24   11     -0.78      0.00
   -5   24   11     -0.43      0.00
   -4   24   11     -1.16      0.00
   -3   24   11     -0.36      0.00
   -2   24   11      0.52      0.00
   -1   24   11      1.50      0.00
  -12   25   11     -2.10      0.00
  -11   25   11      0.57      0.00
  -10   25   11     -1.32      0.00
   -9   25   11     -2.88      0.00
   -8   25   11     -0.91      0.00
   -7   25   11     -1.33      0.00
   -6   25   11      0.99      0.00
   -5   25   11     -0.60      0.00
   -4   25   11     -1.18      0.00
  -12   26   11      1.04      0.00
  -11   26   11      0.58      0.00
  -10   26   11     -0.53      0.00
   -9   26   11     -2.53      0.00
   -8   26   11     -0.75      0.00
   -7   26   11     -0.23      0.00
   -6   26   11     -0.22      0.00
  -13   27   11      1.14      0.00
  -12   27   11     -0.89      0.00
  -11   27   11      0.18      0.00
    0    0   12     46.66      0.00
    0    1   12    -11.15      0.00
    1    1   12     -9.27      0.00
   -1    2   12     -7.13      0.00
    0    2   12    -12.24      0.00
    1    2   12      6.20      0.00
    2    2   12     17.69      0.00
   -1    3   12      5.68      0.00
    0    3   12     19.93      0.00
    1    3   12     10.84      0.00
    2    3   12     -1.33      0.00
    3    3   12     -2.02      0.00
   -2    4   12     21.53      0.00
   -1    4   12     10.92      0.00
    0    4   12     13.11      0.00
    1    4   12      4.05      0.00
    2    4   12      3.26      0.00
    3    4   12      0.20      0.00
    4    4   12      4.54      0.00
   -2    5   12     -0.20      0.00
   -1    5   12      6.98      0.00
    0    5   12     12.78      0.00
    1    5   12     17.11      0.00
    2    5   12      6.25      0.00
    3    5   12     -0.25      0.00
    4    5   12      4.55      0.00
    5    5   12      0.43      0.00
   -3    6   12     -2.13      0.00
   -2    6   12      1.76      0.00
   -1    6   12     16.62      0.00
    0    6   12     13.61      0.00
    1    6   12      9.81      0.00
    2    6   12      6.03      0.00
    3    6   12     11.13      0.00
    4    6   12      4.45      0.00
    5    6   12     -0.27      0.00
    6    6   12      4.88      0.00
   -3    7   12     -1.52      0.00
   -2    7   12      6.37      0.00
   -1    7   12      8.30      0.00
    0    7   12      3.76      0.00
    1    7   12      5.55      0.00
    2    7   12      2.00      0.00
    3    7   12     10.21      0.00
    4    7   12     -0.98      0.00
    5    7   12      1.55      0.00
    6    7   12      4.08      0.00
    7    7   12      1.34      0.00
   -4    8   12      3.24      0.00
   -3    8   12      2.21      0.00
   -2    8   12      6.86      0.00
   -1    8   12      5.81      0.00
    0    8   12      3.00      0.00
    1    8   12      4.11      0.00
    2    8   12      4.02      0.00
    3    8   12      5.92      0.00
    4    8   12      0.44      0.00
    5    8   12      3.59      0.00
    6    8   12      0.94      0.00
    7    8   12      3.26      0.00
    8    8   12     -0.87      0.00
   -4    9   12      4.00      0.00
   -3    9   12     11.08      0.00
   -2    9   12     -1.82      0.00
   -1    9   12      5.27      0.00
    0    9   12     -3.66      0.00
    1    9   12      9.63      0.00
    2    9   12      8.30      0.00
    3    9   12      0.09      0.00
    4    9   12      0.09      0.00
    5    9   12      2.67      0.00
    6    9   12      1.07      0.00
    7    9   12      3.12      0.00
    8    9   12     -2.59      0.00
    9    9   12      2.09      0.00
   -5   10   12      1.59      0.00
   -4   10   12      2.60      0.00
   -3   10   12     10.12      0.00
   -2   10   12      4.92      0.00
   -1   10   12      8.08      0.00
    0   10   12     -7.37      0.00
    1   10   12      3.75      0.00
    2   10   12      4.29      0.00
    3   10   12      1.52      0.00
    4   10   12      1.57      0.00
    5   10   12      2.06      0.00
    6   10   12     -0.42      0.00
    7   10   12     -0.54      0.00
    8   10   12      2.63      0.00
    9   10   12      1.22      0.00
   10   10   12     -1.85      0.00
   -5   11   12      0.57      0.00
   -4   11   12     -2.40      0.00
   -3   11   12      6.52      0.00
   -2   11   12      8.48      0.00
   -1   11   12      4.18      0.00
    0   11   12      1.59      0.00
    1   11   12      5.21      0.00
    2   11   12     -0.32      0.00
    3   11   12      2.43      0.00
    4   11   12     -0.02      0.00
    5   11   12     -0.29      0.00
    6   11   12      3.06      0.00
    7   11   12      0.74      0.00
    8   11   12      1.10      0.00
    9   11   12      1.83      0.00
   10   11   12     -0.58      0.00
   11   11   12     -0.68      0.00
   -6   12   12      2.85      0.00
   -5   12   12      2.58      0.00
   -4   12   12      0.16      0.00
   -3   12   12     -1.06      0.00
   -2   12   12      5.25      0.00
   -1   12   12      3.50      0.00
    0   12   12      5.96      0.00
    1   12   12      0.18      0.00
    2   12   12     -1.57      0.00
    3   12   12      0.50      0.00
    4   12   12      0.51      0.00
    5   12   12      3.73      0.00
    6   12   12      1.80      0.00
    7   12   12      0.32      0.00
    8   12   12      1.37      0.00
    9   12   12      0.74      0.00
   10   12   12      1.03      0.00
   11   12   12     -1.21      0.00
   12   12   12     -0.29      0.00
   -6   13   12      4.18      0.00
   -5   13   12      3.97      0.00
   -4   13   12     -0.70      0.00
   -3   13   12      0.70      0.00
   -2   13   12      1.10      0.00
   -1   13   12     -0.11      0.00
    0   13   12      4.50      0.00
    1   13   12     -0.96      0.00
    2   13   12      4.13      0.00
    3   13   12      0.65      0.00
    4   13   12      2.18      0.00
    5   13   12      1.78      0.00
    6   13   12      0.87      0.00
    7   13   12      2.51      0.00
    8   13   12      1.96      0.00
    9   13   12     -1.16      0.00
   10   13   12      0.70      0.00
   11   13   12      0.09      0.00
   12   13   12      0.85      0.00
   13   13   12     -0.54      0.00
   -7   14   12      1.04      0.00
   -6   14   12      1.18      0.00
   -5   14   12      2.54      0.00
   -4   14   12      4.17      0.00
   -3   14   12      0.65      0.00
   -2   14   12     -0.77      0.00
   -1   14   12     -1.04      0.00
    0   14   12      3.41      0.00
    1   14   12      3.67      0.00
    2   14   12      3.29      0.00
    3   14   12     -0.93      0.00
    4   14   12      2.11      0.00
    5   14   12      1.60      0.00
    6   14   12      1.47      0.00
    7   14   12      2.10      0.00
    8   14   12      0.92      0.00
    9   14   12      0.06      0.00
   10   14   12     -0.89      0.00
   11   14   12      1.16      0.00
   12   14   12     -0.76      0.00
   -7   15   12      4.22      0.00
   -6   15   12      0.58      0.00
   -5   15   12      2.14      0.00
   -4   15   12      0.89      0.00
   -3   15   12     -0.66      0.00
   -2   15   12      3.36      0.00
   -1   15   12      3.22      0.00
    0   15   12      4.33      0.00
    1   15   12      0.30      0.00
    2   15   12      1.03      0.00
    3   15   12      2.43      0.00
    4   15   12      2.40      0.00
    5   15   12     -0.10      0.00
    6   15   12      1.01      0.00
    7   15   12      0.25      0.00
    8   15   12      0.15      0.00
    9   15   12      0.23      0.00
   10   15   12      0.00      0.00
   11   15   12     -0.16      0.00
   -8   16   12      0.44      0.00
   -7   16   12      4.26      0.00
   -6   16   12     -2.81      0.00
   -5   16   12      0.89      0.00
   -4   16   12      0.68      0.00
   -3   16   12      0.39      0.00
   -2   16   12      3.55      0.00
   -1   16   12     -0.15      0.00
    0   16   12      1.05      0.00
    1   16   12     -0.30      0.00
    2   16   12      2.58      0.00
    3   16   12      2.62      0.00
    4   16   12      1.03      0.00
    5   16   12      0.50      0.00
    6   16   12     -0.76      0.00
    7   16   12      1.53      0.00
    8   16   12      0.78      0.00
    9   16   12      1.77      0.00
   10   16   12     -1.68      0.00
   -8   17   12     -2.36      0.00
   -7   17   12      0.95      0.00
   -6   17   12      3.39      0.00
   -5   17   12      3.72      0.00
   -4   17   12      1.23      0.00
   -3   17   12     -0.35      0.00
   -2   17   12      0.84      0.00
   -1   17   12     -0.41      0.00
    0   17   12      1.60      0.00
    1   17   12      1.05      0.00
    2   17   12      0.97      0.00
    3   17   12      0.22      0.00
    4   17   12     -0.22      0.00
    5   17   12      2.00      0.00
    6   17   12     -0.45      0.00
    7   17   12      1.10      0.00
    8   17   12      0.92      0.00
    9   17   12     -0.31      0.00
   -9   18   12      1.88      0.00
   -8   18   12      1.50      0.00
   -7   18   12      1.16      0.00
   -6   18   12      3.32      0.00
   -5   18   12      1.66      0.00
   -4   18   12      2.55      0.00
   -3   18   12      2.86      0.00
   -2   18   12      1.18      0.00
   -1   18   12      0.57      0.00
    0   18   12      1.70      0.00
    1   18   12      0.33      0.00
    2   18   12      0.72      0.00
    3   18   12      0.11      0.00
    4   18   12      0.67      0.00
    5   18   12      1.61      0.00
    6   18   12      0.29      0.00
    7   18   12      1.37      0.00
    8   18   12      0.19      0.00
   -9   19   12      1.42      0.00
   -8   19   12      1.12      0.00
   -7   19   12     -0.10      0.00
   -6   19   12      0.78      0.00
   -5   19   12      2.89      0.00
   -4   19   12      1.73      0.00
   -3   19   12      2.62      0.00
   -2   19   12      0.25      0.00
   -1   19   12      0.72      0.00
    0   19   12     -1.21      0.00
    1   19   12      2.14      0.00
    2   19   12      1.44      0.00
    3   19   12     -1.17      0.00
    4   19   12     -2.49      0.00
    5   19   12     -0.02      0.00
    6   19   12      0.47      0.00
    7   19   12      0.89      0.00
  -10   20   12     -1.92      0.00
   -9   20   12      1.92      0.00
   -8   20   12      1.76      0.00
   -7   20   12      1.71      0.00
   -6   20   12      1.62      0.00
   -5   20   12      0.60      0.00
   -4   20   12      0.04      0.00
   -3   20   12      0.15      0.00
   -2   20   12      0.18      0.00
   -1   20   12      1.80      0.00
    0   20   12      1.58      0.00
    1   20   12      2.10      0.00
    2   20   12     -0.24      0.00
    3   20   12     -1.55      0.00
    4   20   12      0.22      0.00
    5   20   12      0.44      0.00
  -10   21   12     -0.41      0.00
   -9   21   12      0.86      0.00
   -8   21   12      1.29      0.00
   -7   21   12      3.63      0.00
   -6   21   12      1.17      0.00
   -5   21   12     -0.42      0.00
   -4   21   12     -0.30      0.00
   -3   21   12     -0.63      0.00
   -2   21   12      1.06      0.00
   -1   21   12      1.77      0.00
    0   21   12      0.38      0.00
    1   21   12     -1.11      0.00
    2   21   12     -0.50      0.00
    3   21   12      0.92      0.00
    4   21   12      1.15      0.00
  -11   22   12     -0.21      0.00
  -10   22   12      2.91      0.00
   -9   22   12     -0.93      0.00
   -8   22   12      1.11      0.00
   -7   22   12      0.81      0.00
   -6   22   12     -1.83      0.00
   -5   22   12      1.48      0.00
   -4   22   12     -0.99      0.00
   -3   22   12     -0.94      0.00
   -2   22   12     -1.32      0.00
   -1   22   12     -0.05      0.00
    0   22   12      1.77      0.00
    1   22   12      0.88      0.00
    2   22   12     -0.17      0.00
  -11   23   12      0.51      0.00
  -10   23   12      2.14      0.00
   -9   23   12     -0.75      0.00
   -8   23   12      0.39      0.00
   -7   23   12      0.07      0.00
   -6   23   12      0.00      0.00
   -5   23   12     -0.27      0.00
   -4   23   12     -2.38      0.00
   -3   23   12     -2.94      0.00
   -2   23   12      0.86      0.00
   -1   23   12      0.68      0.00
    0   23   12      1.82      0.00
  -12   24   12     -1.50      0.00
  -11   24   12      0.12      0.00
  -10   24   12     -0.25      0.00
   -9   24   12     -0.20      0.00
   -8   24   12      1.53      0.00
   -7   24   12      0.79      0.00
   -6   24   12      0.13      0.00
   -5   24   12     -0.01      0.00
   -4   24   12     -0.40      0.00
   -3   24   12     -0.56      0.00
   -2   24   12      0.24      0.00
  -12   25   12      2.09      0.00
  -11   25   12      0.75      0.00
  -10   25   12      0.29      0.00
   -9   25   12      1.06      0.00
   -8   25   12      0.31      0.00
   -7   25   12      1.08      0.00
   -6   25   12     -0.29      0.00
   -5   25   12      0.24      0.00
   -4   25   12      0.84      0.00
  -13   26   12      0.36      0.00
  -12   26   12     -0.72      0.00
  -11   26   12     -0.09      0.00
  -10   26   12     -1.41      0.00
   -9   26   12      0.42      0.00
   -8   26   12      0.04      0.00
   -7   26   12      0.86      0.00
    0    1   13     16.45      0.00
    0    2   13     -9.70      0.00
    1    2   13    -12.10      0.00
   -1    3   13    -14.70      0.00
    0    3   13    -14.27      0.00
    1    3   13    -14.03      0.00
    2    3   13     12.14      0.00
   -1    4   13    -15.29      0.00
    0    4   13     -7.90      0.00
    1    4   13     -4.72      0.00
    2    4   13     -6.80      0.00
    3    4   13     -6.08      0.00
   -2    5   13      1.60      0.00
   -1    5   13     -5.39      0.00
    0    5   13     -4.16      0.00
    1    5   13     10.91      0.00
    2    5   13     -3.13      0.00
    3    5   13      1.62      0.00
    4    5   13     -1.91      0.00
   -2    6   13     -8.57      0.00
   -1    6   13     10.34      0.00
    0    6   13      6.58      0.00
    1    6   13      0.29      0.00
    2    6   13      4.40      0.00
    3    6   13     -5.75      0.00
    4    6   13     -4.56      0.00
    5    6   13      3.72      0.00
   -3    7   13     -4.91      0.00
   -2    7   13     -3.35      0.00
   -1    7   13     -1.31      0.00
    0    7   13      1.55      0.00
    1    7   13      0.03      0.00
    2    7   13     -3.75      0.00
    3    7   13      1.35      0.00
    4    7   13      4.98      0.00
    5    7   13     -0.64      0.00
    6    7   13     -0.82      0.00
   -3    8   13      2.14      0.00
   -2    8   13      4.10      0.00
   -1    8   13      1.31      0.00
    0    8   13     -1.07      0.00
    1    8   13     -2.00      0.00
    2    8   13      1.44      0.00
    3    8   13      7.66      0.00
    4    8   13      2.11      0.00
    5    8   13     -2.94      0.00
    6    8   13     -2.21      0.00
    7    8   13      0.94      0.00
   -4    9   13     -1.74      0.00
   -3    9   13     -6.82      0.00
   -2    9   13     -1.03      0.00
   -1    9   13     -3.31      0.00
    0    9   13      4.99      0.00
    1    9   13      6.07      0.00
    2    9   13      5.21      0.00
    3    9   13     -2.35      0.00
    4    9   13     -1.06      0.00
    5    9   13     -1.23      0.00
    6    9   13      1.87      0.00
    7    9   13      0.33      0.00
    8    9   13      2.13      0.00
   -4   10   13     -4.08      0.00
   -3   10   13     -0.53      0.00
   -2   10   13      0.87      0.00
   -1   10   13      3.88      0.00
    0   10   13      1.98      0.00
    1   10   13     -1.29      0.00
    2   10   13     -1.56      0.00
    3   10   13     -1.19      0.00
    4   10   13     -0.70      0.00
    5   10   13     -1.43      0.00
    6   10   13      0.15      0.00
    7   10   13     -0.81      0.00
    8   10   13      0.61      0.00
    9   10   13      0.12      0.00
   -5   11   13      4.40      0.00
   -4   11   13      5.57      0.00
   -3   11   13      6.88      0.00
   -2   11   13     -0.47      0.00
   -1   11   13     -3.47      0.00
    0   11   13     -8.05      0.00
    1   11   13      5.28      0.00
    2   11   13      1.31      0.00
    3   11   13     -1.70      0.00
    4   11   13     -5.01      0.00
    5   11   13     -3.89      0.00
    6   11   13      0.52      0.00
    7   11   13      0.78      0.00
    8   11   13      0.17      0.00
    9   11   13     -0.26      0.00
   10   11   13     -1.51      0.00
   -5   12   13     -1.37      0.00
   -4   12   13      2.51      0.00
   -3   12   13     -2.18      0.00
   -2   12   13      0.10      0.00
   -1   12   13      4.78      0.00
    0   12   13     -2.50      0.00
    1   12   13      2.57      0.00
    2   12   13     -2.75      0.00
    3   12   13     -3.02      0.00
    4   12   13      0.55      0.00
    5   12   13      1.48      0.00
    6   12   13      0.58      0.00
    7   12   13      1.97      0.00
    8   12   13     -0.76      0.00
    9   12   13     -1.31      0.00
   10   12   13     -1.63      0.00
   11   12   13     -0.62      0.00
   -6   13   13     -1.18      0.00
   -5   13   13     -3.87      0.00
   -4   13   13     -1.18      0.00
   -3   13   13     -2.30      0.00
   -2   13   13      3.02      0.00
   -1   13   13      3.34      0.00
    0   13   13     -3.26      0.00
    1   13   13     -0.57      0.00
    2   13   13      0.37      0.00
    3   13   13      3.80      0.00
    4   13   13      3.21      0.00
    5   13   13      0.83      0.00
    6   13   13      1.09      0.00
    7   13   13     -1.70      0.00
    8   13   13     -0.11      0.00
    9   13   13      1.95      0.00
   10   13   13      0.14      0.00
   11   13   13     -0.32      0.00
   12   13   13      0.60      0.00
   -6   14   13     -1.29      0.00
   -5   14   13     -1.14      0.00
   -4   14   13      0.23      0.00
   -3   14   13     -0.24      0.00
   -2   14   13     -0.61      0.00
   -1   14   13     -3.42      0.00
    0   14   13      1.75      0.00
    1   14   13      0.91      0.00
    2   14   13      0.10      0.00
    3   14   13     -0.79      0.00
    4   14   13      0.12      0.00
    5   14   13      0.88      0.00
    6   14   13      0.92      0.00
    7   14   13     -1.02      0.00
    8   14   13     -1.29      0.00
    9   14   13     -1.04      0.00
   10   14   13      0.27      0.00
   11   14   13      2.08      0.00
   12   14   13      1.14      0.00
   -7   15   13      0.85      0.00
   -6   15   13      2.20      0.00
   -5   15   13     -0.67      0.00
   -4   15   13     -4.64      0.00
   -3   15   13     -1.97      0.00
   -2   15   13      0.89      0.00
   -1   15   13      0.63      0.00
    0   15   13      4.08      0.00
    1   15   13     -2.75      0.00
    2   15   13     -1.68      0.00
    3   15   13      0.98      0.00
    4   15   13     -0.54      0.00
    5   15   13     -0.37      0.00
    6   15   13      0.75      0.00
    7   15   13     -0.51      0.00
    8   15   13     -3.00      0.00
    9   15   13      0.09      0.00
   10   15   13      0.51      0.00
   11   15   13      0.26      0.00
   -7   16   13     -0.46      0.00
   -6   16   13      0.08      0.00
   -5   16   13     -4.86      0.00
   -4   16   13     -0.73      0.00
   -3   16   13      4.20      0.00
   -2   16   13     -0.99      0.00
   -1   16   13     -2.64      0.00
    0   16   13     -0.23      0.00
    1   16   13     -2.59      0.00
    2   16   13     -0.55      0.00
    3   16   13      0.59      0.00
    4   16   13     -0.40      0.00
    5   16   13     -0.37      0.00
    6   16   13     -0.67      0.00
    7   16   13      1.03      0.00
    8   16   13     -0.25      0.00
    9   16   13     -0.06      0.00
   10   16   13     -1.90      0.00
   -8   17   13     -0.90      0.00
   -7   17   13     -2.01      0.00
   -6   17   13      0.39      0.00
   -5   17   13      0.46      0.00
   -4   17   13      3.18      0.00
   -3   17   13     -0.42      0.00
   -2   17   13     -3.58      0.00
   -1   17   13     -1.29      0.00
    0   17   13     -1.40      0.00
    1   17   13      0.28      0.00
    2   17   13     -0.35      0.00
    3   17   13      0.54      0.00
    4   17   13     -2.77      0.00
    5   17   13      1.16      0.00
    6   17   13     -0.42      0.00
    7   17   13      0.91      0.00
    8   17   13     -0.16      0.00
    9   17   13     -2.19      0.00
   -8   18   13     -0.76      0.00
   -7   18   13      1.37      0.00
   -6   18   13     -1.24      0.00
   -5   18   13      1.59      0.00
   -4   18   13      0.17      0.00
   -3   18   13      0.71      0.00
   -2   18   13      1.06      0.00
   -1   18   13      0.77      0.00
    0   18   13     -2.50      0.00
    1   18   13     -0.98      0.00
    2   18   13      0.00      0.00
    3   18   13      1.86      0.00
    4   18   13      1.30      0.00
    5   18   13      1.59      0.00
    6   18   13      0.45      0.00
    7   18   13     -1.40      0.00
    8   18   13     -0.65      0.00
   -9   19   13     -1.92      0.00
   -8   19   13      0.21      0.00
   -7   19   13      1.86      0.00
   -6   19   13      0.79      0.00
   -5   19   13      0.56      0.00
   -4   19   13     -1.11      0.00
   -3   19   13     -0.12      0.00
   -2   19   13     -0.20      0.00
   -1   19   13     -0.85      0.00
    0   19   13     -0.98      0.00
    1   19   13     -0.23      0.00
    2   19   13      0.49      0.00
    3   19   13      1.68      0.00
    4   19   13      0.28      0.00
    5   19   13     -2.54      0.00
    6   19   13     -0.03      0.00
   -9   20   13     -1.94      0.00
   -8   20   13     -1.88      0.00
   -7   20   13     -2.04      0.00
   -6   20   13      0.96      0.00
   -5   20   13     -2.22      0.00
   -4   20   13      0.42      0.00
   -3   20   13      0.65      0.00
   -2   20   13      0.53      0.00
   -1   20   13      0.72      0.00
    0   20   13      1.42      0.00
    1   20   13      0.18      0.00
    2   20   13     -0.72      0.00
    3   20   13     -0.31      0.00
    4   20   13     -0.87      0.00
    5   20   13      0.14      0.00
  -10   21   13     -0.53      0.00
   -9   21   13     -0.54      0.00
   -8   21   13     -0.85      0.00
   -7   21   13     -1.09      0.00
   -6   21   13      1.68      0.00
   -5   21   13     -0.87      0.00
   -4   21   13     -0.64      0.00
   -3   21   13      1.64      0.00
   -2   21   13      0.03      0.00
   -1   21   13      1.34      0.00
    0   21   13      0.21      0.00
    1   21   13      0.07      0.00
    2   21   13     -3.17      0.00
    3   21   13     -0.96      0.00
  -10   22   13     -0.88      0.00
   -9   22   13      2.04      0.00
   -8   22   13     -1.76      0.00
   -7   22   13     -1.08      0.00
   -6   22   13     -0.59      0.00
   -5   22   13      1.60      0.00
   -4   22   13      2.42      0.00
   -3   22   13      2.00      0.00
   -2   22   13     -1.22      0.00
   -1   22   13     -0.12      0.00
    0   22   13      0.65      0.00
    1   22   13     -1.04      0.00
    2   22   13     -1.97      0.00
  -11   23   13     -0.22      0.00
  -10   23   13      1.62      0.00
   -9   23   13     -0.19      0.00
   -8   23   13     -1.51      0.00
   -7   23   13     -1.38      0.00
   -6   23   13      0.92      0.00
   -5   23   13      1.22      0.00
   -4   23   13     -0.35      0.00
   -3   23   13     -0.16      0.00
   -2   23   13     -1.37      0.00
   -1   23   13      1.49      0.00
    0   23   13     -1.52      0.00
  -11   24   13     -1.08      0.00
  -10   24   13     -1.47      0.00
   -9   24   13     -0.52      0.00
   -8   24   13      3.62      0.00
   -7   24   13      0.75      0.00
   -6   24   13      1.34      0.00
   -5   24   13     -1.59      0.00
   -4   24   13     -1.30      0.00
   -3   24   13     -1.23      0.00
   -2   24   13      0.82      0.00
  -12   25   13      0.29      0.00
  -11   25   13      2.04      0.00
  -10   25   13     -0.04      0.00
   -9   25   13      1.08      0.00
   -8   25   13      1.21      0.00
   -7   25   13      2.05      0.00
   -6   25   13      0.74      0.00
   -5   25   13     -0.57      0.00
  -12   26   13      0.82      0.00
  -11   26   13      1.11      0.00
  -10   26   13     -1.17      0.00
   -9   26   13      2.02      0.00
   -8   26   13      0.36      0.00
    0    0   14     45.53      0.00
    0    1   14     16.02      0.00
    1    1   14      4.74      0.00
   -1    2   14      1.04      0.00
    0    2   14     -4.91      0.00
    1    2   14     -4.30      0.00
    2    2   14      2.25      0.00
   -1    3   14     -3.13      0.00
    0    3   14    -10.62      0.00
    1    3   14     -3.36      0.00
    2    3   14     13.39      0.00
    3    3   14     -2.85      0.00
   -2    4   14      1.22      0.00
   -1    4   14     -2.49      0.00
    0    4   14    -15.17      0.00
    1    4   14     -7.03      0.00
    2    4   14     -3.12      0.00
    3    4   14      6.97      0.00
    4    4   14      7.68      0.00
   -2    5   14     14.40      0.00
   -1    5   14     -7.97      0.00
    0    5   14     -9.78      0.00
    1    5   14      5.78      0.00
    2    5   14      1.41      0.00
    3    5   14      1.69      0.00
    4    5   14      4.02      0.00
    5    5   14     -1.22      0.00
   -3    6   14     -6.83      0.00
   -2    6   14      0.10      0.00
   -1    6   14      4.77      0.00
    0    6   14     10.80      0.00
    1    6   14      1.05      0.00
    2    6   14     -1.40      0.00
    3    6   14     -4.02      0.00
    4    6   14     -1.00      0.00
    5    6   14      8.94      0.00
    6    6   14     11.30      0.00
   -3    7   14      6.50      0.00
   -2    7   14      2.97      0.00
   -1    7   14      2.10      0.00
    0    7   14      1.43      0.00
    1    7   14     -4.60      0.00
    2    7   14      2.13      0.00
    3    7   14      5.87      0.00
    4    7   14     -0.18      0.00
    5    7   14      2.55      0.00
    6    7   14     -2.28      0.00
    7    7   14      0.88      0.00
   -4    8   14      8.67      0.00
   -3    8   14      0.17      0.00
   -2    8   14     -1.06      0.00
   -1    8   14     -5.36      0.00
    0    8   14      7.44      0.00
    1    8   14      3.86      0.00
    2    8   14     -4.80      0.00
    3    8   14     -4.13      0.00
    4    8   14      0.04      0.00
    5    8   14     -3.44      0.00
    6    8   14     -0.82      0.00
    7    8   14      3.81      0.00
    8    8   14      4.86      0.00
   -4    9   14      4.09      0.00
   -3    9   14     -4.86      0.00
   -2    9   14      5.13      0.00
   -1    9   14      2.60      0.00
    0    9   14      0.46      0.00
    1    9   14     -4.97      0.00
    2    9   14     -6.00      0.00
    3    9   14     -3.72      0.00
    4    9   14      6.56      0.00
    5    9   14      0.14      0.00
    6    9   14     -1.15      0.00
    7    9   14     -2.52      0.00
    8    9   14     -1.79      0.00
    9    9   14      3.64      0.00
   -5   10   14      0.58      0.00
   -4   10   14     -2.74      0.00
   -3   10   14      7.08      0.00
   -2   10   14     -3.91      0.00
   -1   10   14     -4.83      0.00
    0   10   14     -8.00      0.00
    1   10   14     -2.56      0.00
    2   10   14      0.93      0.00
    3   10   14      5.96      0.00
    4   10   14      3.64      0.00
    5   10   14     -1.10      0.00
    6   10   14     -0.79      0.00
    7   10   14     -2.13      0.00
    8   10   14     -1.27      0.00
    9   10   14      5.88      0.00
   10   10   14     -1.39      0.00
   -5   11   14      7.45      0.00
   -4   11   14     -0.19      0.00
   -3   11   14     -1.08      0.00
   -2   11   14     -7.58      0.00
   -1   11   14     -2.14      0.00
    0   11   14      2.82      0.00
    1   11   14      5.20      0.00
    2   11   14      1.33      0.00
    3   11   14     -1.87      0.00
    4   11   14     -6.50      0.00
    5   11   14      1.16      0.00
    6   11   14      6.00      0.00
    7   11   14      0.20      0.00
    8   11   14     -2.40      0.00
    9   11   14     -2.90      0.00
   10   11   14     -2.61      0.00
   11   11   14      2.34      0.00
   -6   12   14     11.73      0.00
   -5   12   14      1.75      0.00
   -4   12   14      0.12      0.00
   -3   12   14     -2.00      0.00
   -2   12   14      1.02      0.00
   -1   12   14      4.78      0.00
    0   12   14      5.36      0.00
    1   12   14     -4.17      0.00
    2   12   14      0.46      0.00
    3   12   14      0.79      0.00
    4   12   14      0.51      0.00
    5   12   14      1.79      0.00
    6   12   14     -0.20      0.00
    7   12   14     -1.82      0.00
    8   12   14      0.39      0.00
    9   12   14     -2.67      0.00
   10   12   14     -0.47      0.00
   11   12   14      0.28      0.00
   12   12   14     -1.71      0.00
   -6   13   14     -1.23      0.00
   -5   13   14     -3.61      0.00
   -4   13   14      6.86      0.00
   -3   13   14      4.01      0.00
   -2   13   14      1.11      0.00
   -1   13   14     -5.64      0.00
    0   13   14     -0.34      0.00
    1   13   14      1.47      0.00
    2   13   14      9.26      0.00
    3   13   14      0.51      0.00
    4   13   14     -2.68      0.00
    5   13   14     -3.98      0.00
    6   13   14     -3.01      0.00
    7   13   14      1.45      0.00
    8   13   14      2.80      0.00
    9   13   14     -0.88      0.00
   10   13   14     -0.68      0.00
   11   13   14     -0.45      0.00
   12   13   14     -0.53      0.00
   -7   14   14      0.86      0.00
   -6   14   14     -0.23      0.00
   -5   14   14      0.73      0.00
   -4   14   14      2.62      0.00
   -3   14   14     -2.65      0.00
   -2   14   14      1.20      0.00
   -1   14   14      0.86      0.00
    0   14   14      3.85      0.00
    1   14   14      2.57      0.00
    2   14   14      0.45      0.00
    3   14   14     -2.14      0.00
    4   14   14     -0.70      0.00
    5   14   14     -1.12      0.00
    6   14   14      1.05      0.00
    7   14   14      1.62      0.00
    8   14   14     -0.07      0.00
    9   14   14     -1.46      0.00
   10   14   14      0.94      0.00
   11   14   14     -0.78      0.00
   -7   15   14      3.10      0.00
   -6   15   14     -0.95      0.00
   -5   15   14     -1.62      0.00
   -4   15   14     -6.27      0.00
   -3   15   14     -0.23      0.00
   -2   15   14      8.65      0.00
   -1   15   14      2.96      0.00
    0   15   14     -1.62      0.00
    1   15   14     -0.85      0.00
    2   15   14     -4.84      0.00
    3   15   14      1.76      0.00
    4   15   14      3.24      0.00
    5   15   14      0.60      0.00
    6   15   14     -0.56      0.00
    7   15   14     -0.53      0.00
    8   15   14      0.67      0.00
    9   15   14      3.26      0.00
   10   15   14      1.21      0.00
   11   15   14     -1.20      0.00
   -8   16   14      3.96      0.00
   -7   16   14     -0.97      0.00
   -6   16   14      0.19      0.00
   -5   16   14      1.17      0.00
   -4   16   14      0.33      0.00
   -3   16   14     -0.48      0.00
   -2   16   14      0.20      0.00
   -1   16   14     -0.48      0.00
    0   16   14      2.77      0.00
    1   16   14      1.55      0.00
    2   16   14     -2.57      0.00
    3   16   14      3.23      0.00
    4   16   14     -0.48      0.00
    5   16   14     -0.23      0.00
    6   16   14      0.70      0.00
    7   16   14      0.21      0.00
    8   16   14     -0.30      0.00
    9   16   14      0.59      0.00
   10   16   14      0.43      0.00
   -8   17   14      0.13      0.00
   -7   17   14      1.63      0.00
   -6   17   14      6.29      0.00
   -5   17   14      0.82      0.00
   -4   17   14     -3.46      0.00
   -3   17   14     -1.26      0.00
   -2   17   14     -4.43      0.00
   -1   17   14      1.73      0.00
    0   17   14      3.96      0.00
    1   17   14     -0.70      0.00
    2   17   14     -1.79      0.00
    3   17   14     -1.03      0.00
    4   17   14     -0.03      0.00
    5   17   14     -0.45      0.00
    6   17   14      1.56      0.00
    7   17   14     -0.64      0.00
    8   17   14     -0.59      0.00
    9   17   14      2.99      0.00
   -9   18   14      4.69      0.00
   -8   18   14     -0.74      0.00
   -7   18   14      0.60      0.00
   -6   18   14     -1.38      0.00
   -5   18   14     -3.74      0.00
   -4   18   14     -1.03      0.00
   -3   18   14     -0.68      0.00
   -2   18   14     -1.78      0.00
   -1   18   14     -0.21      0.00
    0   18   14     -3.08      0.00
    1   18   14      0.16      0.00
    2   18   14      0.26      0.00
    3   18   14      1.33      0.00
    4   18   14      1.28      0.00
    5   18   14     -0.46      0.00
    6   18   14     -0.13      0.00
    7   18   14     -0.21      0.00
   -9   19   14      5.28      0.00
   -8   19   14     -1.92      0.00
   -7   19   14     -2.41      0.00
   -6   19   14     -3.30      0.00
   -5   19   14     -0.62      0.00
   -4   19   14      3.32      0.00
   -3   19   14      1.69      0.00
   -2   19   14     -2.22      0.00
   -1   19   14     -0.04      0.00
    0   19   14     -2.17      0.00
    1   19   14      2.33      0.00
    2   19   14      2.45      0.00
    3   19   14      0.96      0.00
    4   19   14     -0.05      0.00
    5   19   14     -0.10      0.00
    6   19   14      1.27      0.00
  -10   20   14      0.22      0.00
   -9   20   14     -1.41      0.00
   -8   20   14      0.48      0.00
   -7   20   14      1.72      0.00
   -6   20   14     -0.12      0.00
   -5   20   14     -0.14      0.00
   -4   20   14     -1.28      0.00
   -3   20   14     -0.33      0.00
   -2   20   14      0.89      0.00
   -1   20   14      2.57      0.00
    0   20   14     -0.33      0.00
    1   20   14     -0.55      0.00
    2   20   14     -2.02      0.00
    3   20   14      0.14      0.00
    4   20   14      0.07      0.00
  -10   21   14     -1.26      0.00
   -9   21   14     -1.58      0.00
   -8   21   14      3.45      0.00
   -7   21   14      0.58      0.00
   -6   21   14     -0.44      0.00
   -5   21   14      0.38      0.00
   -4   21   14     -0.08      0.00
   -3   21   14      1.95      0.00
   -2   21   14      2.13      0.00
   -1   21   14      0.39      0.00
    0   21   14     -0.59      0.00
    1   21   14     -0.45      0.00
    2   21   14     -1.15      0.00
    3   21   14     -2.47      0.00
  -11   22   14      3.96      0.00
  -10   22   14     -0.75      0.00
   -9   22   14     -0.65      0.00
   -8   22   14      0.04      0.00
   -7   22   14     -0.60      0.00
   -6   22   14      1.29      0.00
   -5   22   14      0.46      0.00
   -4   22   14      2.26      0.00
   -3   22   14      1.03      0.00
   -2   22   14     -1.58      0.00
   -1   22   14     -1.79      0.00
    0   22   14      1.58      0.00
    1   22   14      0.81      0.00
  -11   23   14      0.50      0.00
  -10   23   14     -0.58      0.00
   -9   23   14     -2.87      0.00
   -8   23   14      0.98      0.00
   -7   23   14     -0.27      0.00
   -6   23   14      1.22      0.00
   -5   23   14     -1.37      0.00
   -4   23   14     -0.06      0.00
   -3   23   14      0.18      0.00
   -2   23   14     -0.93      0.00
   -1   23   14      0.65      0.00
  -12   24   14     -1.84      0.00
  -11   24   14     -0.33      0.00
  -10   24   14     -1.61      0.00
   -9   24   14      0.11      0.00
   -8   24   14      0.82      0.00
   -7   24   14      0.16      0.00
   -6   24   14     -2.70      0.00
   -5   24   14     -0.79      0.00
   -4   24   14      0.78      0.00
   -3   24   14      0.51      0.00
  -12   25   14     -0.81      0.00
  -11   25   14     -0.35      0.00
  -10   25   14     -0.08      0.00
   -9   25   14     -0.24      0.00
   -8   25   14     -1.24      0.00
   -7   25   14     -1.04      0.00
   -6   25   14      0.24      0.00
  -13   26   14      0.10      0.00
  -12   26   14      1.80      0.00
  -11   26   14     -0.24      0.00
  -10   26   14      0.55      0.00
   -9   26   14      0.75      0.00
    0    1   15     12.94      0.00
    0    2   15     21.93      0.00
    1    2   15      9.18      0.00
   -1    3   15      8.19      0.00
    0    3   15      7.66      0.00
    1    3   15     -6.34      0.00
    2    3   15      1.10      0.00
   -1    4   15     -3.37      0.00
    0    4   15     -9.97      0.00
    1    4   15     -0.15      0.00
    2    4   15     10.94      0.00
    3    4   15      4.41      0.00
   -2    5   15     -0.12      0.00
   -1    5   15     -1.47      0.00
    0    5   15     -9.52      0.00
    1    5   15      3.78      0.00
    2    5   15     -1.70      0.00
    3    5   15     -1.26      0.00
    4    5   15      0.65      0.00
   -2    6   15     11.86      0.00
   -1    6   15      4.50      0.00
    0    6   15     -8.90      0.00
    1    6   15     -2.70      0.00
    2    6   15     -7.62      0.00
    3    6   15      1.75      0.00
    4    6   15     -4.19      0.00
    5    6   15      1.97      0.00
   -3    7   15      4.06      0.00
   -2    7   15     -2.65      0.00
   -1    7   15     -3.42      0.00
    0    7   15     -1.52      0.00
    1    7   15      3.45      0.00
    2    7   15      0.20      0.00
    3    7   15     -0.83      0.00
    4    7   15     -7.26      0.00
    5    7   15      1.93      0.00
    6    7   15      2.04      0.00
   -3    8   15     -1.57      0.00
   -2    8   15     -6.87      0.00
   -1    8   15      3.37      0.00
    0    8   15     10.44      0.00
    1    8   15     -2.92      0.00
    2    8   15     -3.01      0.00
    3    8   15     -6.69      0.00
    4    8   15     -4.55      0.00
    5    8   15      6.22      0.00
    6    8   15      5.49      0.00
    7    8   15     -0.69      0.00
   -4    9   15     -0.02      0.00
   -3    9   15      2.54      0.00
   -2    9   15      0.00      0.00
   -1    9   15     -1.89      0.00
    0    9   15     -3.21      0.00
    1    9   15     -4.24      0.00
    2    9   15      4.91      0.00
    3    9   15      4.36      0.00
    4    9   15      0.97      0.00
    5    9   15     -4.01      0.00
    6    9   15     -3.54      0.00
    7    9   15     -0.49      0.00
    8    9   15      1.86      0.00
   -4   10   15     -2.56      0.00
   -3   10   15     -0.14      0.00
   -2   10   15     -1.82      0.00
   -1   10   15      2.45      0.00
    0   10   15      1.00      0.00
    1   10   15      4.67      0.00
    2   10   15      5.80      0.00
    3   10   15     -4.31      0.00
    4   10   15      0.73      0.00
    5   10   15     -0.79      0.00
    6   10   15     -1.39      0.00
    7   10   15      3.76      0.00
    8   10   15      2.87      0.00
    9   10   15     -3.45      0.00
   -5   11   15      2.57      0.00
   -4   11   15     -7.91      0.00
   -3   11   15     -4.63      0.00
   -2   11   15      5.13      0.00
   -1   11   15      5.17      0.00
    0   11   15      3.07      0.00
    1   11   15     -5.12      0.00
    2   11   15     -6.96      0.00
    3   11   15      2.33      0.00
    4   11   15      7.85      0.00
    5   11   15      2.05      0.00
    6   11   15      1.85      0.00
    7   11   15     -0.46      0.00
    8   11   15     -3.49      0.00
    9   11   15      1.06      0.00
   10   11   15      1.82      0.00
   -5   12   15      0.53      0.00
   -4   12   15     -5.73      0.00
   -3   12   15      5.55      0.00
   -2   12   15      8.17      0.00
   -1   12   15     -6.64      0.00
    0   12   15      1.69      0.00
    1   12   15     -2.10      0.00
    2   12   15     -3.80      0.00
    3   12   15      4.15      0.00
    4   12   15      2.03      0.00
    5   12   15     -0.73      0.00
    6   12   15      1.80      0.00
    7   12   15     -1.87      0.00
    8   12   15      0.99      0.00
    9   12   15      2.07      0.00
   10   12   15     -1.39      0.00
   11   12   15      0.63      0.00
   -6   13   15      2.67      0.00
   -5   13   15      5.99      0.00
   -4   13   15      0.89      0.00
   -3   13   15     -3.18      0.00
   -2   13   15     -6.06      0.00
   -1   13   15     -3.83      0.00
    0   13   15      8.30      0.00
    1   13   15      3.99      0.00
    2   13   15      2.26      0.00
    3   13   15     -4.24      0.00
    4   13   15     -7.16      0.00
    5   13   15      1.37      0.00
    6   13   15      3.63      0.00
    7   13   15      1.12      0.00
    8   13   15      0.28      0.00
    9   13   15     -3.41      0.00
   10   13   15     -1.87      0.00
   11   13   15      0.73      0.00
   -6   14   15      5.03      0.00
   -5   14   15     -3.81      0.00
   -4   14   15      1.50      0.00
   -3   14   15     -0.22      0.00
   -2   14   15     -2.43      0.00
   -1   14   15      3.08      0.00
    0   14   15      4.43      0.00
    1   14   15     -3.65      0.00
    2   14   15      2.14      0.00
    3   14   15     -2.20      0.00
    4   14   15     -0.25      0.00
    5   14   15      2.13      0.00
    6   14   15     -1.71      0.00
    7   14   15     -0.61      0.00
    8   14   15      1.43      0.00
    9   14   15     -1.07      0.00
   10   14   15      0.56      0.00
   -7   15   15     -1.10      0.00
   -6   15   15     -3.51      0.00
   -5   15   15     -1.49      0.00
   -4   15   15      8.64      0.00
   -3   15   15      2.48      0.00
   -2   15   15      3.50      0.00
   -1   15   15     -3.07      0.00
    0   15   15     -6.15      0.00
    1   15   15     -1.49      0.00
    2   15   15      4.91      0.00
    3   15   15      1.30      0.00
    4   15   15      0.45      0.00
    5   15   15     -2.04      0.00
    6   15   15     -2.93      0.00
    7   15   15      1.10      0.00
    8   15   15      0.35      0.00
    9   15   15     -2.26      0.00
   10   15   15     -2.53      0.00
   -7   16   15      0.41      0.00
   -6   16   15     -2.48      0.00
   -5   16   15      1.25      0.00
   -4   16   15      2.25      0.00
   -3   16   15     -4.19      0.00
   -2   16   15      1.83      0.00
   -1   16   15     -1.45      0.00
    0   16   15     -0.39      0.00
    1   16   15      1.78      0.00
    2   16   15     -2.38      0.00
    3   16   15     -1.15      0.00
    4   16   15      0.73      0.00
    5   16   15     -0.12      0.00
    6   16   15     -0.23      0.00
    7   16   15      1.81      0.00
    8   16   15     -1.71      0.00
    9   16   15     -5.04      0.00
   -8   17   15      3.12      0.00
   -7   17   15      4.32      0.00
   -6   17   15      0.65      0.00
   -5   17   15      2.08      0.00
   -4   17   15     -7.46      0.00
   -3   17   15     -1.01      0.00
   -2   17   15      5.46      0.00
   -1   17   15      3.12      0.00
    0   17   15     -0.25      0.00
    1   17   15     -0.96      0.00
    2   17   15     -2.12      0.00
    3   17   15      0.68      0.00
    4   17   15      1.82      0.00
    5   17   15      0.74      0.00
    6   17   15      0.78      0.00
    7   17   15     -0.58      0.00
    8   17   15     -0.42      0.00
   -8   18   15      2.44      0.00
   -7   18   15     -1.17      0.00
   -6   18   15      1.99      0.00
   -5   18   15      1.70      0.00
   -4   18   15     -0.78      0.00
   -3   18   15      1.98      0.00
   -2   18   15     -2.88      0.00
   -1   18   15     -0.98      0.00
    0   18   15      0.71      0.00
    1   18   15      3.18      0.00
    2   18   15     -0.72      0.00
    3   18   15     -1.57      0.00
    4   18   15     -4.58      0.00
    5   18   15     -0.79      0.00
    6   18   15      0.02      0.00
    7   18   15      1.15      0.00
   -9   19   15     -3.17      0.00
   -8   19   15     -4.16      0.00
   -7   19   15     -2.85      0.00
   -6   19   15     -0.17      0.00
   -5   19   15      1.75      0.00
   -4   19   15     -0.26      0.00
   -3   19   15     -0.72      0.00
   -2   19   15     -3.01      0.00
   -1   19   15      2.75      0.00
    0   19   15      0.64      0.00
    1   19   15      1.00      0.00
    2   19   15     -0.21      0.00
    3   19   15     -1.15      0.00
    4   19   15     -0.77      0.00
    5   19   15     -4.60      0.00
   -9   20   15      1.21      0.00
   -8   20   15      1.09      0.00
   -7   20   15      0.48      0.00
   -6   20   15     -1.95      0.00
   -5   20   15     -1.50      0.00
   -4   20   15      1.29      0.00
   -3   20   15     -0.20      0.00
   -2   20   15      0.49      0.00
   -1   20   15      1.26      0.00
    0   20   15     -2.29      0.00
    1   20   15     -1.02      0.00
    2   20   15      0.03      0.00
    3   20   15      1.24      0.00
  -10   21   15      1.85      0.00
   -9   21   15      1.24      0.00
   -8   21   15      0.66      0.00
   -7   21   15      0.53      0.00
   -6   21   15     -3.27      0.00
   -5   21   15     -1.09      0.00
   -4   21   15      1.62      0.00
   -3   21   15      0.88      0.00
   -2   21   15     -0.27      0.00
   -1   21   15     -1.44      0.00
    0   21   15     -1.18      0.00
    1   21   15     -0.65      0.00
    2   21   15      0.60      0.00
  -10   22   15     -0.60      0.00
   -9   22   15     -2.95      0.00
   -8   22   15      0.83      0.00
   -7   22   15      1.24      0.00
   -6   22   15     -0.34      0.00
   -5   22   15     -0.36      0.00
   -4   22   15     -3.41      0.00
   -3   22   15     -0.38      0.00
   -2   22   15      0.00      0.00
   -1   22   15      0.25      0.00
    0   22   15     -0.35      0.00
  -11   23   15     -0.81      0.00
  -10   23   15     -1.19      0.00
   -9   23   15     -0.68      0.00
   -8   23   15      1.36      0.00
   -7   23   15      0.39      0.00
   -6   23   15      1.77      0.00
   -5   23   15     -0.22      0.00
   -4   23   15     -0.15      0.00
   -3   23   15      0.34      0.00
   -2   23   15      0.05      0.00
   -1   23   15     -2.59      0.00
  -11   24   15      0.43      0.00
  -10   24   15      0.83      0.00
   -9   24   15     -0.81      0.00
   -8   24   15     -0.61      0.00
   -7   24   15     -1.02      0.00
   -6   24   15     -0.88      0.00
   -5   24   15      1.17      0.00
   -4   24   15      0.28      0.00
  -12   25   15      0.76      0.00
  -11   25   15      2.75      0.00
  -10   25   15      0.19      0.00
   -9   25   15     -0.47      0.00
   -8   25   15     -0.62      0.00
   -7   25   15     -1.79      0.00
  -12   26   15      0.06      0.00
    0    0   16    -23.95      0.00
    0    1   16     -7.72      0.00
    1    1   16     12.08      0.00
   -1    2   16     14.48      0.00
    0    2   16     19.72      0.00
    1    2   16     -0.76      0.00
    2    2   16     -6.83      0.00
   -1    3   16     -2.59      0.00
    0    3   16     -0.64      0.00
    1    3   16     -0.94      0.00
    2    3   16      0.82      0.00
    3    3   16      2.03      0.00
   -2    4   16    -24.45      0.00
   -1    4   16     -2.02      0.00
    0    4   16      7.49      0.00
    1    4   16      3.95      0.00
    2    4   16      1.42      0.00
    3    4   16      1.28      0.00
    4    4   16    -11.43      0.00
   -2    5   16     -2.17      0.00
   -1    5   16      1.70      0.00
    0    5   16    -13.64      0.00
    1    5   16     -8.57      0.00
    2    5   16     -2.11      0.00
    3    5   16     -2.45      0.00
    4    5   16     -4.59      0.00
    5    5   16     -0.38      0.00
   -3    6   16      2.63      0.00
   -2    6   16      0.72      0.00
   -1    6   16     -9.67      0.00
    0    6   16    -11.80      0.00
    1    6   16     -1.65      0.00
    2    6   16      4.41      0.00
    3    6   16     -0.78      0.00
    4    6   16     -3.99      0.00
    5    6   16     -6.57      0.00
    6    6   16     -5.50      0.00
   -3    7   16      0.62      0.00
   -2    7   16     -1.73      0.00
   -1    7   16     -2.45      0.00
    0    7   16     -4.06      0.00
    1    7   16     -0.28      0.00
    2    7   16     -7.09      0.00
    3    7   16     -2.42      0.00
    4    7   16      1.03      0.00
    5    7   16      1.11      0.00
    6    7   16      0.82      0.00
    7    7   16     -2.53      0.00
   -4    8   16    -12.58      0.00
   -3    8   16     -0.93      0.00
   -2    8   16      2.91      0.00
   -1    8   16     -0.79      0.00
    0    8   16     -0.70      0.00
    1    8   16     -2.96      0.00
    2    8   16     -5.47      0.00
    3    8   16      4.39      0.00
    4    8   16      2.27      0.00
    5    8   16      3.66      0.00
    6    8   16      1.37      0.00
    7    8   16     -5.52      0.00
    8    8   16     -2.05      0.00
   -4    9   16     -4.20      0.00
   -3    9   16      0.96      0.00
   -2    9   16     -6.35      0.00
   -1    9   16     -1.98      0.00
    0    9   16      1.11      0.00
    1    9   16      3.15      0.00
    2    9   16     -0.16      0.00
    3    9   16     -5.90      0.00
    4    9   16     -0.71      0.00
    5    9   16     -0.14      0.00
    6    9   16     -0.69      0.00
    7    9   16      0.80      0.00
    8    9   16      4.17      0.00
    9    9   16      1.16      0.00
   -5   10   16     -0.66      0.00
   -4   10   16     -4.21      0.00
   -3   10   16     -1.76      0.00
   -2   10   16     -5.76      0.00
   -1   10   16      5.35      0.00
    0   10   16      0.54      0.00
    1   10   16      0.54      0.00
    2   10   16     -3.48      0.00
    3   10   16     -5.23      0.00
    4   10   16     -0.99      0.00
    5   10   16      3.09      0.00
    6   10   16     -1.24      0.00
    7   10   16     -0.11      0.00
    8   10   16      1.35      0.00
    9   10   16     -1.52      0.00
   10   10   16     -0.93      0.00
   -5   11   16     -6.58      0.00
   -4   11   16      2.50      0.00
   -3   11   16      4.30      0.00
   -2   11   16     -0.20      0.00
   -1   11   16     -0.13      0.00
    0   11   16    -14.32      0.00
    1   11   16     -5.15      0.00
    2   11   16     -0.13      0.00
    3   11   16      4.32      0.00
    4   11   16      3.23      0.00
    5   11   16     -2.90      0.00
    6   11   16     -5.09      0.00
    7   11   16     -0.23      0.00
    8   11   16      0.19      0.00
    9   11   16      4.18      0.00
   10   11   16      1.28      0.00
   11   11   16     -1.49      0.00
   -6   12   16     -4.66      0.00
   -5   12   16      0.85      0.00
   -4   12   16      2.64      0.00
   -3   12   16     -6.03      0.00
   -2   12   16     -3.10      0.00
   -1   12   16     -4.43      0.00
    0   12   16     -1.76      0.00
    1   12   16      0.82      0.00
    2   12   16      1.20      0.00
    3   12   16      1.84      0.00
    4   12   16      0.02      0.00
    5   12   16     -3.66      0.00
    6   12   16     -0.96      0.00
    7   12   16      1.47      0.00
    8   12   16     -0.32      0.00
    9   12   16      0.36      0.00
   10   12   16     -0.34      0.00
   11   12   16     -1.01      0.00
   12   12   16     -0.22      0.00
   -6   13   16      0.67      0.00
   -5   13   16      1.89      0.00
   -4   13   16     -1.31      0.00
   -3   13   16     -4.78      0.00
   -2   13   16      2.01      0.00
   -1   13   16      0.45      0.00
    0   13   16      6.81      0.00
    1   13   16     -2.36      0.00
    2   13   16     -4.86      0.00
    3   13   16     -3.20      0.00
    4   13   16      0.38      0.00
    5   13   16      1.47      0.00
    6   13   16      2.46      0.00
    7   13   16      0.14      0.00
    8   13   16     -2.38      0.00
    9   13   16     -0.88      0.00
   10   13   16      1.55      0.00
   11   13   16      1.11      0.00
   -7   14   16     -3.40      0.00
   -6   14   16      1.26      0.00
   -5   14   16     -1.81      0.00
   -4   14   16     -0.80      0.00
   -3   14   16      2.87      0.00
   -2   14   16      2.54      0.00
   -1   14   16     -2.55      0.00
    0   14   16      4.16      0.00
    1   14   16     -3.18      0.00
    2   14   16     -1.58      0.00
    3   14   16     -0.03      0.00
    4   14   16     -1.08      0.00
    5   14   16      0.85      0.00
    6   14   16     -0.11      0.00
    7   14   16      0.24      0.00
    8   14   16      0.40      0.00
    9   14   16     -1.29      0.00
   10   14   16     -0.90      0.00
   11   14   16     -0.35      0.00
   -7   15   16     -6.04      0.00
   -6   15   16     -0.07      0.00
   -5   15   16      4.65      0.00
   -4   15   16      2.81      0.00
   -3   15   16      1.93      0.00
   -2   15   16     -4.87      0.00
   -1   15   16     -4.47      0.00
    0   15   16      1.64      0.00
    1   15   16      0.84      0.00
    2   15   16      1.99      0.00
    3   15   16     -2.62      0.00
    4   15   16     -3.73      0.00
    5   15   16      2.21      0.00
    6   15   16      1.53      0.00
    7   15   16      0.79      0.00
    8   15   16      1.18      0.00
    9   15   16     -5.03      0.00
   -8   16   16     -2.36      0.00
   -7   16   16      1.04      0.00
   -6   16   16     -0.77      0.00
   -5   16   16     -2.13      0.00
   -4   16   16      1.90      0.00
   -3   16   16     -2.07      0.00
   -2   16   16     -4.11      0.00
   -1   16   16      0.79      0.00
    0   16   16     -1.31      0.00
    1   16   16     -3.11      0.00
    2   16   16     -2.29      0.00
    3   16   16     -1.76      0.00
    4   16   16     -1.22      0.00
    5   16   16      1.18      0.00
    6   16   16     -1.73      0.00
    7   16   16     -1.06      0.00
    8   16   16      0.58      0.00
   -8   17   16      4.16      0.00
   -7   17   16      0.93      0.00
   -6   17   16     -5.03      0.00
   -5   17   16     -3.07      0.00
   -4   17   16      0.63      0.00
   -3   17   16     -1.36      0.00
   -2   17   16      2.08      0.00
   -1   17   16     -1.32      0.00
    0   17   16     -3.92      0.00
    1   17   16      0.45      0.00
    2   17   16     -0.75      0.00
    3   17   16      0.57      0.00
    4   17   16     -1.09      0.00
    5   17   16     -1.59      0.00
    6   17   16     -1.98      0.00
    7   17   16      0.41      0.00
   -9   18   16      1.16      0.00
   -8   18   16      0.90      0.00
   -7   18   16      0.47      0.00
   -6   18   16     -0.64      0.00
   -5   18   16      1.05      0.00
   -4   18   16     -1.58      0.00
   -3   18   16     -0.76      0.00
   -2   18   16     -0.41      0.00
   -1   18   16      0.27      0.00
    0   18   16     -0.02      0.00
    1   18   16      1.56      0.00
    2   18   16     -0.17      0.00
    3   18   16     -0.88      0.00
    4   18   16     -1.08      0.00
    5   18   16      1.49      0.00
    6   18   16      0.87      0.00
   -9   19   16     -0.62      0.00
   -8   19   16      0.23      0.00
   -7   19   16      1.07      0.00
   -6   19   16      2.04      0.00
   -5   19   16      0.91      0.00
   -4   19   16     -3.57      0.00
   -3   19   16     -0.70      0.00
   -2   19   16     -1.32      0.00
   -1   19   16      1.99      0.00
    0   19   16     -1.63      0.00
    1   19   16     -0.62      0.00
    2   19   16     -1.17      0.00
    3   19   16     -1.21      0.00
    4   19   16     -0.08      0.00
  -10   20   16     -0.64      0.00
   -9   20   16      3.91      0.00
   -8   20   16      1.07      0.00
   -7   20   16     -0.65      0.00
   -6   20   16      1.54      0.00
   -5   20   16      0.22      0.00
   -4   20   16     -0.99      0.00
   -3   20   16      0.79      0.00
   -2   20   16     -1.46      0.00
   -1   20   16     -1.02      0.00
    0   20   16     -0.78      0.00
    1   20   16     -0.18      0.00
    2   20   16      0.70      0.00
    3   20   16      0.35      0.00
  -10   21   16      0.43      0.00
   -9   21   16      0.77      0.00
   -8   21   16     -0.86      0.00
   -7   21   16     -1.16      0.00
   -6   21   16      1.83      0.00
   -5   21   16      0.84      0.00
   -4   21   16     -0.80      0.00
   -3   21   16     -2.24      0.00
   -2   21   16     -1.45      0.00
   -1   21   16      0.28      0.00
    0   21   16      0.04      0.00
    1   21   16      0.60      0.00
  -11   22   16     -0.36      0.00
  -10   22   16     -0.69      0.00
   -9   22   16     -0.83      0.00
   -8   22   16      2.47      0.00
   -7   22   16     -0.66      0.00
   -6   22   16     -1.03      0.00
   -5   22   16     -1.75      0.00
   -4   22   16     -0.86      0.00
   -3   22   16     -0.85      0.00
   -2   22   16      2.03      0.00
   -1   22   16      0.25      0.00
    0   22   16     -1.19      0.00
  -11   23   16      0.91      0.00
  -10   23   16      0.88      0.00
   -9   23   16      1.03      0.00
   -8   23   16      0.70      0.00
   -7   23   16      0.32      0.00
   -6   23   16     -2.64      0.00
   -5   23   16     -0.50      0.00
   -4   23   16     -0.53      0.00
   -3   23   16     -0.06      0.00
   -2   23   16      1.60      0.00
  -12   24   16      2.03      0.00
  -11   24   16      1.40      0.00
  -10   24   16      0.03      0.00
   -9   24   16      0.70      0.00
   -8   24   16     -1.41      0.00
   -7   24   16      0.47      0.00
   -6   24   16     -0.86      0.00
   -5   24   16     -1.06      0.00
   -4   24   16     -1.21      0.00
  -12   25   16      0.17      0.00
  -11   25   16      0.53      0.00
  -10   25   16      1.90      0.00
   -9   25   16      0.85      0.00
   -8   25   16      1.04      0.00
    0    1   17     -4.26      0.00
    0    2   17    -12.03      0.00
    1    2   17     -5.58      0.00
   -1    3   17     -3.69      0.00
    0    3   17      6.32      0.00
    1    3   17      7.81      0.00
    2    3   17     -1.74      0.00
   -1    4   17      7.60      0.00
    0    4   17      5.58      0.00
    1    4   17     -1.64      0.00
    2    4   17     -5.20      0.00
    3    4   17     -1.51      0.00
   -2    5   17     -1.09      0.00
   -1    5   17      0.28      0.00
    0    5   17      5.32      0.00
    1    5   17     -4.91      0.00
    2    5   17      3.16      0.00
    3    5   17      2.91      0.00
    4    5   17     -0.37      0.00
   -2    6   17     -6.53      0.00
   -1    6   17     -5.29      0.00
    0    6   17     -4.70      0.00
    1    6   17      3.44      0.00
    2    6   17     -1.24      0.00
    3    6   17      1.68      0.00
    4    6   17      1.62      0.00
    5    6   17     -3.33      0.00
   -3    7   17     -1.77      0.00
   -2    7   17      1.63      0.00
   -1    7   17      2.91      0.00
    0    7   17     -6.22      0.00
    1    7   17      0.30      0.00
    2    7   17      2.08      0.00
    3    7   17      3.07      0.00
    4    7   17      1.02      0.00
    5    7   17      1.13      0.00
    6    7   17     -1.81      0.00
   -3    8   17      2.47      0.00
   -2    8   17     -0.68      0.00
   -1    8   17     -0.61      0.00
    0    8   17     -2.50      0.00
    1    8   17     -0.25      0.00
    2    8   17     -1.13      0.00
    3    8   17     -2.49      0.00
    4    8   17      0.22      0.00
    5    8   17      0.07      0.00
    6    8   17      0.28      0.00
    7    8   17     -1.06      0.00
   -4    9   17      0.64      0.00
   -3    9   17      2.38      0.00
   -2    9   17      1.33      0.00
   -1    9   17      0.07      0.00
    0    9   17     -0.57      0.00
    1    9   17      1.34      0.00
    2    9   17     -5.82      0.00
    3    9   17     -2.58      0.00
    4    9   17      2.58      0.00
    5    9   17     -0.21      0.00
    6    9   17      1.14      0.00
    7    9   17     -2.10      0.00
    8    9   17     -1.85      0.00
   -4   10   17      1.75      0.00
   -3   10   17      3.34      0.00
   -2   10   17     -1.11      0.00
   -1   10   17     -0.74      0.00
    0   10   17     -0.53      0.00
    1   10   17     -1.17      0.00
    2   10   17     -3.00      0.00
    3   10   17      0.40      0.00
    4   10   17      1.21      0.00
    5   10   17      2.53      0.00
    6   10   17      2.69      0.00
    7   10   17     -0.09      0.00
    8   10   17     -0.65      0.00
    9   10   17      0.97      0.00
   -5   11   17     -3.54      0.00
   -4   11   17      1.65      0.00
   -3   11   17     -2.70      0.00
   -2   11   17     -5.34      0.00
   -1   11   17     -1.79      0.00
    0   11   17      4.63      0.00
    1   11   17      0.80      0.00
    2   11   17      2.28      0.00
    3   11   17     -0.26      0.00
    4   11   17      1.42      0.00
    5   11   17      1.46      0.00
    6   11   17     -2.20      0.00
    7   11   17     -0.19      0.00
    8   11   17      1.09      0.00
    9   11   17     -0.79      0.00
   10   11   17     -0.85      0.00
   -5   12   17     -0.15      0.00
   -4   12   17      1.44      0.00
   -3   12   17     -2.72      0.00
   -2   12   17     -2.40      0.00
   -1   12   17      1.45      0.00
    0   12   17      2.71      0.00
    1   12   17      2.87      0.00
    2   12   17     -1.21      0.00
    3   12   17     -1.53      0.00
    4   12   17     -0.66      0.00
    5   12   17     -0.09      0.00
    6   12   17     -0.98      0.00
    7   12   17      1.32      0.00
    8   12   17      1.35      0.00
    9   12   17     -0.50      0.00
   10   12   17     -0.43      0.00
   11   12   17     -0.82      0.00
   -6   13   17     -1.20      0.00
   -5   13   17     -0.43      0.00
   -4   13   17      1.25      0.00
   -3   13   17      0.22      0.00
   -2   13   17      3.16      0.00
   -1   13   17      2.14      0.00
    0   13   17      0.02      0.00
    1   13   17     -1.21      0.00
    2   13   17     -1.53      0.00
    3   13   17     -0.20      0.00
    4   13   17      1.48      0.00
    5   13   17      0.36      0.00
    6   13   17     -1.01      0.00
    7   13   17      0.08      0.00
    8   13   17      0.76      0.00
    9   13   17     -1.26      0.00
   10   13   17     -2.55      0.00
   11   13   17      0.38      0.00
   -6   14   17     -0.32      0.00
   -5   14   17      0.70      0.00
   -4   14   17      2.28      0.00
   -3   14   17      0.08      0.00
   -2   14   17     -0.93      0.00
   -1   14   17     -1.60      0.00
    0   14   17     -0.31      0.00
    1   14   17     -1.88      0.00
    2   14   17     -0.81      0.00
    3   14   17      1.88      0.00
    4   14   17      0.89      0.00
    5   14   17     -1.88      0.00
    6   14   17     -0.21      0.00
    7   14   17     -0.35      0.00
    8   14   17     -0.84      0.00
    9   14   17      0.32      0.00
   10   14   17      0.54      0.00
   -7   15   17     -0.72      0.00
   -6   15   17      0.92      0.00
   -5   15   17      3.69      0.00
   -4   15   17      0.76      0.00
   -3   15   17     -2.72      0.00
   -2   15   17     -1.46      0.00
   -1   15   17     -3.00      0.00
    0   15   17      1.36      0.00
    1   15   17      0.02      0.00
    2   15   17      0.00      0.00
    3   15   17      0.46      0.00
    4   15   17     -0.93      0.00
    5   15   17      1.46      0.00
    6   15   17      0.81      0.00
    7   15   17      0.42      0.00
    8   15   17      0.24      0.00
    9   15   17      3.82      0.00
   -7   16   17     -1.73      0.00
   -6   16   17      3.36      0.00
   -5   16   17      0.98      0.00
   -4   16   17     -0.35      0.00
   -3   16   17      0.40      0.00
   -2   16   17     -0.39      0.00
   -1   16   17      2.18      0.00
    0   16   17     -1.11      0.00
    1   16   17     -1.28      0.00
    2   16   17     -1.65      0.00
    3   16   17      0.33      0.00
    4   16   17      1.05      0.00
    5   16   17      1.22      0.00
    6   16   17      1.67      0.00
    7   16   17     -1.47      0.00
   -8   17   17     -2.69      0.00
   -7   17   17      0.19      0.00
   -6   17   17     -1.96      0.00
   -5   17   17      1.38      0.00
   -4   17   17      1.35      0.00
   -3   17   17      0.81      0.00
   -2   17   17     -1.12      0.00
   -1   17   17     -0.02      0.00
    0   17   17     -3.08      0.00
    1   17   17      0.15      0.00
    2   17   17      0.09      0.00
    3   17   17      0.76      0.00
    4   17   17     -1.85      0.00
    5   17   17     -0.46      0.00
    6   17   17     -2.64      0.00
   -8   18   17     -2.27      0.00
   -7   18   17     -1.28      0.00
   -6   18   17     -0.84      0.00
   -5   18   17      1.13      0.00
   -4   18   17     -0.83      0.00
   -3   18   17      0.95      0.00
   -2   18   17     -5.39      0.00
   -1   18   17      0.37      0.00
    0   18   17      0.88      0.00
    1   18   17      0.87      0.00
    2   18   17     -1.58      0.00
    3   18   17     -3.09      0.00
    4   18   17     -1.39      0.00
    5   18   17      0.31      0.00
   -9   19   17      0.60      0.00
   -8   19   17      1.59      0.00
   -7   19   17      1.53      0.00
   -6   19   17      0.87      0.00
   -5   19   17     -2.52      0.00
   -4   19   17     -1.71      0.00
   -3   19   17      0.39      0.00
   -2   19   17     -0.76      0.00
   -1   19   17      0.41      0.00
    0   19   17     -1.83      0.00
    1   19   17     -1.54      0.00
    2   19   17      0.12      0.00
    3   19   17     -0.37      0.00
    4   19   17      0.91      0.00
   -9   20   17     -0.77      0.00
   -8   20   17      2.92      0.00
   -7   20   17     -1.07      0.00
   -6   20   17      0.32      0.00
   -5   20   17     -0.98      0.00
   -4   20   17      0.78      0.00
   -3   20   17      0.21      0.00
   -2   20   17     -0.99      0.00
   -1   20   17     -0.81      0.00
    0   20   17     -1.29      0.00
    1   20   17      1.10      0.00
    2   20   17     -0.52      0.00
  -10   21   17     -1.45      0.00
   -9   21   17     -0.98      0.00
   -8   21   17      1.23      0.00
   -7   21   17     -0.53      0.00
   -6   21   17      0.45      0.00
   -5   21   17     -0.04      0.00
   -4   21   17      1.07      0.00
   -3   21   17      0.50      0.00
   -2   21   17     -0.05      0.00
   -1   21   17     -0.19      0.00
    0   21   17      0.90      0.00
    1   21   17     -0.07      0.00
  -10   22   17     -1.87      0.00
   -9   22   17     -1.84      0.00
   -8   22   17      0.34      0.00
   -7   22   17      1.60      0.00
   -6   22   17      1.16      0.00
   -5   22   17     -0.47      0.00
   -4   22   17      0.77      0.00
   -3   22   17      0.67      0.00
   -2   22   17      3.35      0.00
   -1   22   17     -0.50      0.00
  -11   23   17     -0.47      0.00
  -10   23   17     -0.08      0.00
   -9   23   17      0.10      0.00
   -8   23   17      0.35      0.00
   -7   23   17     -0.30      0.00
   -6   23   17     -1.19      0.00
   -5   23   17     -0.48      0.00
   -4   23   17      0.79      0.00
   -3   23   17      2.60      0.00
  -11   24   17     -1.49      0.00
  -10   24   17     -0.66      0.00
   -9   24   17      2.23      0.00
   -8   24   17      0.62      0.00
   -7   24   17     -1.36      0.00
   -6   24   17      0.11      0.00
   -5   24   17      1.92      0.00
  -12   25   17      1.27      0.00
  -11   25   17     -2.83      0.00
  -10   25   17      0.52      0.00
   -9   25   17      0.69      0.00
    0    0   18      1.23      0.00
    0    1   18     -5.83      0.00
    1    1   18     -0.25      0.00
   -1    2   18     -4.72      0.00
    0    2   18     -0.18      0.00
    1    2   18      2.29      0.00
    2    2   18     -1.29      0.00
   -1    3   18      3.00      0.00
    0    3   18      5.14      0.00
    1    3   18      7.29      0.00
    2    3   18      5.27      0.00
    3    3   18      2.72      0.00
   -2    4   18      2.90      0.00
   -1    4   18      8.75      0.00
    0    4   18      4.02      0.00
    1    4   18      8.85      0.00
    2    4   18      2.45      0.00
    3    4   18      0.97      0.00
    4    4   18     -1.88      0.00
   -2    5   18      4.54      0.00
   -1    5   18      8.22      0.00
    0    5   18      5.96      0.00
    1    5   18      1.28      0.00
    2    5   18      1.81      0.00
    3    5   18      1.87      0.00
    4    5   18      4.56      0.00
    5    5   18      5.70      0.00
   -3    6   18     -1.36      0.00
   -2    6   18      1.22      0.00
   -1    6   18      0.64      0.00
    0    6   18      2.98      0.00
    1    6   18      1.08      0.00
    2    6   18      3.72      0.00
    3    6   18      3.54      0.00
    4    6   18      1.69      0.00
    5    6   18     -3.87      0.00
    6    6   18      0.01      0.00
   -3    7   18      0.56      0.00
   -2    7   18      2.74      0.00
   -1    7   18      1.62      0.00
    0    7   18      2.61      0.00
    1    7   18      3.88      0.00
    2    7   18     -0.75      0.00
    3    7   18     -1.30      0.00
    4    7   18      2.76      0.00
    5    7   18      2.54      0.00
    6    7   18      3.68      0.00
    7    7   18      2.19      0.00
   -4    8   18     -1.01      0.00
   -3    8   18      0.69      0.00
   -2    8   18      3.60      0.00
   -1    8   18      4.22      0.00
    0    8   18      3.94      0.00
    1    8   18     -1.35      0.00
    2    8   18      1.49      0.00
    3    8   18      4.95      0.00
    4    8   18      2.49      0.00
    5    8   18      1.99      0.00
    6    8   18      2.75      0.00
    7    8   18     -1.79      0.00
    8    8   18      0.05      0.00
   -4    9   18      4.52      0.00
   -3    9   18      4.11      0.00
   -2    9   18      0.13      0.00
   -1    9   18     -2.13      0.00
    0    9   18      3.81      0.00
    1    9   18      2.83      0.00
    2    9   18      6.79      0.00
    3    9   18     -1.03      0.00
    4    9   18      0.97      0.00
    5    9   18     -0.57      0.00
    6    9   18      1.28      0.00
    7    9   18      1.03      0.00
    8    9   18     -0.10      0.00
    9    9   18     -2.40      0.00
   -5   10   18      5.99      0.00
   -4   10   18      1.50      0.00
   -3   10   18     -1.27      0.00
   -2   10   18      0.70      0.00
   -1   10   18      2.17      0.00
    0   10   18      3.32      0.00
    1   10   18      3.00      0.00
    2   10   18      3.85      0.00
    3   10   18     -2.12      0.00
    4   10   18      3.39      0.00
    5   10   18      2.40      0.00
    6   10   18      1.43      0.00
    7   10   18      1.36      0.00
    8   10   18      0.23      0.00
    9   10   18     -0.64      0.00
   10   10   18      1.12      0.00
   -5   11   18     -3.67      0.00
   -4   11   18      2.78      0.00
   -3   11   18      4.40      0.00
   -2   11   18      6.89      0.00
   -1   11   18      2.86      0.00
    0   11   18     -6.21      0.00
    1   11   18     -0.91      0.00
    2   11   18      5.47      0.00
    3   11   18      2.57      0.00
    4   11   18      3.29      0.00
    5   11   18      1.03      0.00
    6   11   18     -1.72      0.00
    7   11   18     -0.32      0.00
    8   11   18      1.61      0.00
    9   11   18      0.01      0.00
   10   11   18      1.38      0.00
   11   11   18     -0.66      0.00
   -6   12   18      0.80      0.00
   -5   12   18      0.82      0.00
   -4   12   18      2.70      0.00
   -3   12   18      1.13      0.00
   -2   12   18      4.05      0.00
   -1   12   18     -1.33      0.00
    0   12   18      0.68      0.00
    1   12   18     -0.47      0.00
    2   12   18      0.40      0.00
    3   12   18     -0.96      0.00
    4   12   18     -0.51      0.00
    5   12   18     -0.62      0.00
    6   12   18     -0.65      0.00
    7   12   18      0.28      0.00
    8   12   18     -0.43      0.00
    9   12   18      1.08      0.00
   10   12   18      0.34      0.00
   11   12   18     -1.01      0.00
   12   12   18      0.62      0.00
   -6   13   18      3.92      0.00
   -5   13   18      1.52      0.00
   -4   13   18      0.05      0.00
   -3   13   18     -2.41      0.00
   -2   13   18      4.07      0.00
   -1   13   18     -0.69      0.00
    0   13   18      3.45      0.00
    1   13   18     -2.25      0.00
    2   13   18     -2.86      0.00
    3   13   18     -0.75      0.00
    4   13   18      0.86      0.00
    5   13   18      1.27      0.00
    6   13   18     -0.09      0.00
    7   13   18     -1.10      0.00
    8   13   18     -1.18      0.00
    9   13   18     -0.72      0.00
   10   13   18      0.62      0.00
   -7   14   18      1.03      0.00
   -6   14   18      1.82      0.00
   -5   14   18      1.08      0.00
   -4   14   18      1.68      0.00
   -3   14   18      2.84      0.00
   -2   14   18      0.43      0.00
   -1   14   18     -2.00      0.00
    0   14   18     -1.82      0.00
    1   14   18     -0.20      0.00
    2   14   18      1.44      0.00
    3   14   18      1.54      0.00
    4   14   18     -0.51      0.00
    5   14   18     -0.73      0.00
    6   14   18      0.61      0.00
    7   14   18      0.28      0.00
    8   14   18      0.52      0.00
    9   14   18     -1.88      0.00
   -7   15   18     -0.02      0.00
   -6   15   18      2.09      0.00
   -5   15   18      3.15      0.00
   -4   15   18      3.51      0.00
   -3   15   18     -2.18      0.00
   -2   15   18     -2.74      0.00
   -1   15   18      0.00      0.00
    0   15   18     -1.38      0.00
    1   15   18      1.88      0.00
    2   15   18      3.00      0.00
    3   15   18      0.42      0.00
    4   15   18     -1.28      0.00
    5   15   18      0.75      0.00
    6   15   18      0.46      0.00
    7   15   18      0.49      0.00
    8   15   18     -0.51      0.00
   -8   16   18      0.05      0.00
   -7   16   18      1.66      0.00
   -6   16   18      2.63      0.00
   -5   16   18      0.44      0.00
   -4   16   18     -1.48      0.00
   -3   16   18     -0.18      0.00
   -2   16   18      1.08      0.00
   -1   16   18      3.31      0.00
    0   16   18     -0.32      0.00
    1   16   18      1.10      0.00
    2   16   18      1.78      0.00
    3   16   18      2.87      0.00
    4   16   18      0.02      0.00
    5   16   18      0.92      0.00
    6   16   18      0.83      0.00
    7   16   18      0.25      0.00
   -8   17   18     -3.04      0.00
   -7   17   18      0.83      0.00
   -6   17   18     -2.02      0.00
   -5   17   18     -0.51      0.00
   -4   17   18      1.74      0.00
   -3   17   18      2.58      0.00
   -2   17   18     -1.20      0.00
   -1   17   18      2.09      0.00
    0   17   18     -2.42      0.00
    1   17   18      2.05      0.00
    2   17   18      0.87      0.00
    3   17   18     -0.09      0.00
    4   17   18      0.74      0.00
    5   17   18      1.56      0.00
    6   17   18      0.18      0.00
   -9   18   18     -2.92      0.00
   -8   18   18      0.18      0.00
   -7   18   18      0.93      0.00
   -6   18   18      0.72      0.00
   -5   18   18      0.64      0.00
   -4   18   18     -0.07      0.00
   -3   18   18      1.16      0.00
   -2   18   18     -1.75      0.00
   -1   18   18      1.64      0.00
    0   18   18     -0.40      0.00
    1   18   18      0.41      0.00
    2   18   18     -0.50      0.00
    3   18   18      0.19      0.00
    4   18   18     -0.52      0.00
    5   18   18     -5.51      0.00
   -9   19   18      0.20      0.00
   -8   19   18      0.66      0.00
   -7   19   18      1.53      0.00
   -6   19   18     -0.03      0.00
   -5   19   18     -0.71      0.00
   -4   19   18     -2.24      0.00
   -3   19   18      3.67      0.00
   -2   19   18      0.75      0.00
   -1   19   18      1.45      0.00
    0   19   18     -0.63      0.00
    1   19   18     -1.20      0.00
    2   19   18     -1.10      0.00
    3   19   18      0.67      0.00
  -10   20   18      1.66      0.00
   -9   20   18     -0.84      0.00
   -8   20   18     -0.42      0.00
   -7   20   18     -1.57      0.00
   -6   20   18      0.00      0.00
   -5   20   18      0.03      0.00
   -4   20   18      0.15      0.00
   -3   20   18      1.98      0.00
   -2   20   18     -0.40      0.00
   -1   20   18     -0.71      0.00
    0   20   18      0.44      0.00
    1   20   18     -0.98      0.00
    2   20   18     -0.41      0.00
  -10   21   18      2.07      0.00
   -9   21   18      0.96      0.00
   -8   21   18     -0.71      0.00
   -7   21   18     -1.43      0.00
   -6   21   18      0.71      0.00
   -5   21   18     -0.25      0.00
   -4   21   18      0.17      0.00
   -3   21   18     -0.16      0.00
   -2   21   18     -0.30      0.00
   -1   21   18      0.83      0.00
    0   21   18      2.74      0.00
    1   21   18     -3.48      0.00
  -11   22   18     -2.32      0.00
  -10   22   18      1.38      0.00
   -9   22   18      0.25      0.00
   -8   22   18     -0.28      0.00
   -7   22   18      0.72      0.00
   -6   22   18      0.59      0.00
   -5   22   18     -0.08      0.00
   -4   22   18     -0.21      0.00
   -3   22   18     -1.40      0.00
   -2   22   18     -0.17      0.00
   -1   22   18     -0.62      0.00
  -11   23   18     -1.85      0.00
  -10   23   18      2.05      0.00
   -9   23   18      0.27      0.00
   -8   23   18     -0.70      0.00
   -7   23   18      0.40      0.00
   -6   23   18     -0.01      0.00
   -5   23   18      0.55      0.00
   -4   23   18      0.93      0.00
  -12   24   18      0.53      0.00
  -11   24   18      2.07      0.00
  -10   24   18     -0.91      0.00
   -9   24   18      1.66      0.00
   -8   24   18     -0.58      0.00
   -7   24   18      1.30      0.00
    0    1   19     -4.80      0.00
    0    2   19    -11.54      0.00
    1    2   19     -1.32      0.00
   -1    3   19     -0.57      0.00
    0    3   19     -2.01      0.00
    1    3   19      3.47      0.00
    2    3   19     -6.06      0.00
   -1    4   19      1.71      0.00
    0    4   19      8.16      0.00
    1    4   19     -0.79      0.00
    2    4   19     -9.86      0.00
    3    4   19      1.59      0.00
   -2    5   19     -5.66      0.00
   -1    5   19     -0.81      0.00
    0    5   19     -0.34      0.00
    1    5   19     -0.79      0.00
    2    5   19      5.37      0.00
    3    5   19      1.63      0.00
    4    5   19     -6.50      0.00
   -2    6   19     -9.49      0.00
   -1    6   19     -3.79      0.00
    0    6   19      0.64      0.00
    1    6   19      6.03      0.00
    2    6   19      3.94      0.00
    3    6   19     -1.22      0.00
    4    6   19     -0.69      0.00
    5    6   19      0.77      0.00
   -3    7   19      1.13      0.00
   -2    7   19      6.09      0.00
   -1    7   19      5.39      0.00
    0    7   19     -7.53      0.00
    1    7   19     -2.93      0.00
    2    7   19     -3.74      0.00
    3    7   19      1.71      0.00
    4    7   19      6.79      0.00
    5    7   19      1.06      0.00
    6    7   19     -8.06      0.00
   -3    8   19     -0.40      0.00
   -2    8   19      5.56      0.00
   -1    8   19     -3.27      0.00
    0    8   19     -2.24      0.00
    1    8   19      1.45      0.00
    2    8   19      0.99      0.00
    3    8   19      6.13      0.00
    4    8   19      5.25      0.00
    5    8   19     -4.28      0.00
    6    8   19     -2.47      0.00
    7    8   19     -1.26      0.00
   -4    9   19     -6.61      0.00
   -3    9   19     -1.76      0.00
   -2    9   19     -2.98      0.00
   -1    9   19      0.92      0.00
    0    9   19      5.16      0.00
    1    9   19      2.73      0.00
    2    9   19     11.54      0.00
    3    9   19     -1.75      0.00
    4    9   19     -2.96      0.00
    5    9   19      1.44      0.00
    6    9   19      1.22      0.00
    7    9   19     -2.81      0.00
    8    9   19     -4.31      0.00
   -4   10   19      0.97      0.00
   -3   10   19      1.62      0.00
   -2   10   19     -0.28      0.00
   -1   10   19      2.87      0.00
    0   10   19      5.07      0.00
    1   10   19     -3.14      0.00
    2   10   19     -0.74      0.00
    3   10   19      1.98      0.00
    4   10   19     -1.98      0.00
    5   10   19     -5.44      0.00
    6   10   19     -0.73      0.00
    7   10   19     -1.59      0.00
    8   10   19     -0.21      0.00
    9   10   19      0.13      0.00
   -5   11   19     -0.57      0.00
   -4   11   19      7.75      0.00
   -3   11   19      5.59      0.00
   -2   11   19     10.76      0.00
   -1   11   19     -3.47      0.00
    0   11   19     -0.47      0.00
    1   11   19     -0.37      0.00
    2   11   19      7.20      0.00
    3   11   19      1.14      0.00
    4   11   19     -5.96      0.00
    5   11   19     -1.57      0.00
    6   11   19     -1.08      0.00
    7   11   19      1.78      0.00
    8   11   19      2.56      0.00
    9   11   19     -3.84      0.00
   10   11   19     -1.44      0.00
   -5   12   19      1.36      0.00
   -4   12   19      5.79      0.00
   -3   12   19     -1.35      0.00
   -2   12   19     -0.69      0.00
   -1   12   19      0.41      0.00
    0   12   19      1.63      0.00
    1   12   19      0.31      0.00
    2   12   19      1.78      0.00
    3   12   19     -1.58      0.00
    4   12   19      1.91      0.00
    5   12   19      4.65      0.00
    6   12   19      0.14      0.00
    7   12   19      0.89      0.00
    8   12   19     -1.59      0.00
    9   12   19     -2.85      0.00
   10   12   19      4.89      0.00
   11   12   19     -1.29      0.00
   -6   13   19     -5.42      0.00
   -5   13   19     -0.54      0.00
   -4   13   19     -2.35      0.00
   -3   13   19      2.64      0.00
   -2   13   19      6.60      0.00
   -1   13   19      1.37      0.00
    0   13   19     -6.08      0.00
    1   13   19     -2.67      0.00
    2   13   19     -0.36      0.00
    3   13   19      3.43      0.00
    4   13   19      3.38      0.00
    5   13   19     -1.30      0.00
    6   13   19     -1.13      0.00
    7   13   19     -0.73      0.00
    8   13   19     -1.07      0.00
    9   13   19      0.31      0.00
   10   13   19     -0.51      0.00
   -6   14   19     -2.00      0.00
   -5   14   19      0.61      0.00
   -4   14   19     -0.82      0.00
   -3   14   19     -0.32      0.00
   -2   14   19      0.55      0.00
   -1   14   19     -2.93      0.00
    0   14   19      2.23      0.00
    1   14   19      1.74      0.00
    2   14   19     -0.20      0.00
    3   14   19      1.36      0.00
    4   14   19      0.35      0.00
    5   14   19     -0.60      0.00
    6   14   19      1.23      0.00
    7   14   19      1.02      0.00
    8   14   19     -0.48      0.00
    9   14   19      0.47      0.00
   -7   15   19     -0.79      0.00
   -6   15   19      1.84      0.00
   -5   15   19     -6.19      0.00
   -4   15   19     -5.20      0.00
   -3   15   19     -1.55      0.00
   -2   15   19      0.45      0.00
   -1   15   19      1.38      0.00
    0   15   19      2.86      0.00
    1   15   19     -0.71      0.00
    2   15   19     -3.59      0.00
    3   15   19     -1.32      0.00
    4   15   19     -0.62      0.00
    5   15   19      2.29      0.00
    6   15   19     -0.12      0.00
    7   15   19     -2.54      0.00
    8   15   19     -1.92      0.00
   -7   16   19     -2.66      0.00
   -6   16   19      0.29      0.00
   -5   16   19     -2.43      0.00
   -4   16   19      1.68      0.00
   -3   16   19      3.17      0.00
   -2   16   19     -1.45      0.00
   -1   16   19     -1.08      0.00
    0   16   19     -0.52      0.00
    1   16   19     -0.30      0.00
    2   16   19      1.29      0.00
    3   16   19      0.91      0.00
    4   16   19     -1.44      0.00
    5   16   19      0.89      0.00
    6   16   19     -0.60      0.00
    7   16   19     -2.80      0.00
   -8   17   19     -4.60      0.00
   -7   17   19     -0.61      0.00
   -6   17   19      0.50      0.00
   -5   17   19      0.38      0.00
   -4   17   19      1.60      0.00
   -3   17   19      0.90      0.00
   -2   17   19     -4.01      0.00
   -1   17   19      0.37      0.00
    0   17   19     -1.33      0.00
    1   17   19      2.03      0.00
    2   17   19      3.84      0.00
    3   17   19     -1.35      0.00
    4   17   19     -1.01      0.00
    5   17   19     -2.28      0.00
   -8   18   19      1.79      0.00
   -7   18   19      1.21      0.00
   -6   18   19     -1.12      0.00
   -5   18   19     -1.16      0.00
   -4   18   19     -0.08      0.00
   -3   18   19      0.00      0.00
   -2   18   19      1.84      0.00
   -1   18   19      3.50      0.00
    0   18   19     -2.32      0.00
    1   18   19     -0.23      0.00
    2   18   19     -1.65      0.00
    3   18   19     -1.07      0.00
    4   18   19      1.22      0.00
   -9   19   19      1.13      0.00
   -8   19   19      2.59      0.00
   -7   19   19      1.77      0.00
   -6   19   19     -0.39      0.00
   -5   19   19     -0.23      0.00
   -4   19   19      0.06      0.00
   -3   19   19      2.69      0.00
   -2   19   19      4.39      0.00
   -1   19   19      0.77      0.00
    0   19   19     -2.77      0.00
    1   19   19     -1.05      0.00
    2   19   19     -0.09      0.00
    3   19   19     -1.34      0.00
   -9   20   19     -2.31      0.00
   -8   20   19     -1.80      0.00
   -7   20   19      0.00      0.00
   -6   20   19      2.39      0.00
   -5   20   19      2.61      0.00
   -4   20   19     -0.21      0.00
   -3   20   19     -1.05      0.00
   -2   20   19     -1.09      0.00
   -1   20   19      1.14      0.00
    0   20   19      2.17      0.00
    1   20   19      0.97      0.00
    2   20   19     -2.18      0.00
  -10   21   19     -0.71      0.00
   -9   21   19     -2.66      0.00
   -8   21   19     -1.94      0.00
   -7   21   19      2.18      0.00
   -6   21   19      1.03      0.00
   -5   21   19      0.28      0.00
   -4   21   19     -0.63      0.00
   -3   21   19     -0.42      0.00
   -2   21   19      0.41      0.00
   -1   21   19      2.47      0.00
    0   21   19      2.83      0.00
  -10   22   19      1.65      0.00
   -9   22   19      0.40      0.00
   -8   22   19     -0.20      0.00
   -7   22   19     -1.53      0.00
   -6   22   19      0.84      0.00
   -5   22   19      0.23      0.00
   -4   22   19      2.37      0.00
   -3   22   19     -2.02      0.00
   -2   22   19      3.17      0.00
  -11   23   19      0.93      0.00
  -10   23   19      3.22      0.00
   -9   23   19      1.15      0.00
   -8   23   19     -2.18      0.00
   -7   23   19      2.26      0.00
   -5   23   19      0.15      0.00
  -11   24   19     -1.22      0.00
  -10   24   19     -0.19      0.00
   -9   24   19      0.65      0.00
   -8   24   19      1.06      0.00
    0    0   20     23.60      0.00
    0    1   20      3.75      0.00
    1    1   20     -5.72      0.00
   -1    2   20     -5.60      0.00
    0    2   20     -7.81      0.00
    1    2   20      3.38      0.00
    2    2   20     12.84      0.00
   -1    3   20      3.10      0.00
    0    3   20     -7.44      0.00
    1    3   20      2.71      0.00
    2    3   20     -3.06      0.00
    3    3   20     -2.61      0.00
   -2    4   20     14.66      0.00
   -1    4   20      4.21      0.00
    0    4   20    -10.35      0.00
    1    4   20     -3.18      0.00
    2    4   20      0.32      0.00
    3    4   20      8.73      0.00
    4    4   20      6.39      0.00
   -2    5   20     -3.30      0.00
   -1    5   20     -3.63      0.00
    0    5   20      6.56      0.00
    1    5   20      6.66      0.00
    2    5   20     -4.46      0.00
    3    5   20      0.49      0.00
    4    5   20     -1.61      0.00
    5    5   20      4.29      0.00
   -3    6   20     -1.83      0.00
   -2    6   20      2.53      0.00
   -1    6   20      6.63      0.00
    0    6   20      9.78      0.00
    1    6   20     -0.38      0.00
    2    6   20     -4.67      0.00
    3    6   20     -0.55      0.00
    4    6   20     -1.60      0.00
    5    6   20      6.72      0.00
    6    6   20      4.24      0.00
   -3    7   20      8.36      0.00
   -2    7   20     -4.13      0.00
   -1    7   20     -0.24      0.00
    0    7   20     -2.99      0.00
    1    7   20      0.74      0.00
    2    7   20      8.29      0.00
    3    7   20      2.77      0.00
    4    7   20     -3.23      0.00
    5    7   20     -2.24      0.00
    6    7   20     -2.34      0.00
    7    7   20      2.25      0.00
   -4    8   20      7.75      0.00
   -3    8   20      0.16      0.00
   -2    8   20     -3.29      0.00
   -1    8   20     -0.23      0.00
    0    8   20     -2.69      0.00
    1    8   20      6.20      0.00
    2    8   20      6.63      0.00
    3    8   20     -2.48      0.00
    4    8   20      0.04      0.00
    5    8   20     -2.88      0.00
    6    8   20     -1.30      0.00
    7    8   20      6.44      0.00
    8    8   20      0.18      0.00
   -4    9   20     -1.50      0.00
   -3    9   20     -2.60      0.00
   -2    9   20      9.10      0.00
   -1    9   20      6.08      0.00
    0    9   20     -0.17      0.00
    1    9   20     -5.41      0.00
    2    9   20     -5.83      0.00
    3    9   20     10.98      0.00
    4    9   20      8.48      0.00
    5    9   20      2.25      0.00
    6    9   20      0.17      0.00
    7    9   20     -0.67      0.00
    8    9   20     -2.44      0.00
    9    9   20      0.47      0.00
   -5   10   20      4.14      0.00
   -4   10   20     -0.89      0.00
   -3   10   20      1.80      0.00
   -2   10   20      6.44      0.00
   -1   10   20     -6.26      0.00
    0   10   20      4.87      0.00
    1   10   20      2.36      0.00
    2   10   20     -1.39      0.00
    3   10   20      3.64      0.00
    4   10   20      3.36      0.00
    5   10   20     -2.90      0.00
    6   10   20     -0.44      0.00
    7   10   20     -2.48      0.00
    8   10   20     -1.80      0.00
    9   10   20      1.15      0.00
   10   10   20     -1.25      0.00
   -5   11   20      7.51      0.00
   -4   11   20     -1.90      0.00
   -3   11   20     -3.54      0.00
   -2   11   20     -5.64      0.00
   -1   11   20      1.87      0.00
    0   11   20     11.69      0.00
    1   11   20      4.86      0.00
    2   11   20     -2.04      0.00
    3   11   20     -5.12      0.00
    4   11   20     -5.45      0.00
    5   11   20      4.29      0.00
    6   11   20      5.26      0.00
    7   11   20     -1.00      0.00
    8   11   20      0.67      0.00
    9   11   20     -1.02      0.00
   10   11   20     -2.15      0.00
   11   11   20     -1.02      0.00
   -6   12   20      2.93      0.00
   -5   12   20     -3.60      0.00
   -4   12   20     -2.43      0.00
   -3   12   20      9.83      0.00
   -2   12   20     -2.04      0.00
   -1   12   20      4.59      0.00
    0   12   20      3.87      0.00
    1   12   20     -2.53      0.00
    2   12   20     -0.11      0.00
    3   12   20      1.14      0.00
    4   12   20     -1.16      0.00
    5   12   20      3.81      0.00
    6   12   20      0.65      0.00
    7   12   20     -0.75      0.00
    8   12   20     -0.22      0.00
    9   12   20     -0.11      0.00
   10   12   20      1.23      0.00
   11   12   20      1.32      0.00
   -6   13   20     -3.04      0.00
   -5   13   20     -1.97      0.00
   -4   13   20      8.34      0.00
   -3   13   20      3.10      0.00
   -2   13   20     -1.72      0.00
   -1   13   20     -1.92      0.00
    0   13   20     -2.84      0.00
    1   13   20      0.92      0.00
    2   13   20      8.12      0.00
    3   13   20      1.77      0.00
    4   13   20     -1.79      0.00
    5   13   20     -1.68      0.00
    6   13   20     -1.07      0.00
    7   13   20      3.29      0.00
    8   13   20      1.69      0.00
    9   13   20     -0.28      0.00
   10   13   20     -2.94      0.00
   -7   14   20      2.90      0.00
   -6   14   20     -1.62      0.00
   -5   14   20      2.00      0.00
   -4   14   20      2.35      0.00
   -3   14   20     -3.01      0.00
   -2   14   20     -0.33      0.00
   -1   14   20      1.68      0.00
    0   14   20      1.48      0.00
    1   14   20      3.42      0.00
    2   14   20      0.73      0.00
    3   14   20      0.71      0.00
    4   14   20      0.40      0.00
    5   14   20     -0.36      0.00
    6   14   20      0.60      0.00
    7   14   20      1.40      0.00
    8   14   20      0.13      0.00
    9   14   20     -0.81      0.00
   -7   15   20      4.75      0.00
   -6   15   20     -0.47      0.00
   -5   15   20     -2.42      0.00
   -4   15   20     -1.56      0.00
   -3   15   20      0.38      0.00
   -2   15   20      7.61      0.00
   -1   15   20      3.95      0.00
    0   15   20     -1.76      0.00
    1   15   20     -0.80      0.00
    2   15   20     -2.51      0.00
    3   15   20      3.09      0.00
    4   15   20      2.32      0.00
    5   15   20     -0.86      0.00
    6   15   20     -1.17      0.00
    7   15   20     -1.29      0.00
    8   15   20     -0.25      0.00
   -8   16   20      1.59      0.00
   -7   16   20     -1.51      0.00
   -6   16   20      0.35      0.00
   -5   16   20      3.46      0.00
   -4   16   20      0.25      0.00
   -3   16   20     -0.18      0.00
   -2   16   20      1.90      0.00
   -1   16   20     -1.01      0.00
    0   16   20      1.64      0.00
    1   16   20      1.25      0.00
    2   16   20     -1.27      0.00
    3   16   20     -0.55      0.00
    4   16   20     -1.29      0.00
    5   16   20      0.07      0.00
    6   16   20      0.44      0.00
   -8   17   20     -0.81      0.00
   -7   17   20     -2.79      0.00
   -6   17   20      5.78      0.00
   -5   17   20      2.65      0.00
   -4   17   20     -2.02      0.00
   -3   17   20     -0.34      0.00
   -2   17   20     -2.32      0.00
   -1   17   20      1.93      0.00
    0   17   20      4.18      0.00
    1   17   20      1.44      0.00
    2   17   20     -1.82      0.00
    3   17   20     -2.33      0.00
    4   17   20     -0.86      0.00
    5   17   20      2.72      0.00
   -9   18   20      1.66      0.00
   -8   18   20     -1.09      0.00
   -7   18   20     -0.62      0.00
   -6   18   20     -0.51      0.00
   -5   18   20     -1.70      0.00
   -4   18   20      0.83      0.00
   -3   18   20      4.42      0.00
   -2   18   20     -2.70      0.00
   -1   18   20      0.89      0.00
    0   18   20     -0.48      0.00
    1   18   20      0.84      0.00
    2   18   20      2.16      0.00
    3   18   20     -0.29      0.00
    4   18   20      2.16      0.00
   -9   19   20      1.67      0.00
   -8   19   20     -0.35      0.00
   -7   19   20      0.19      0.00
   -6   19   20      0.42      0.00
   -5   19   20      0.01      0.00
   -4   19   20      2.67      0.00
   -3   19   20      0.22      0.00
   -2   19   20     -1.28      0.00
   -1   19   20     -1.24      0.00
    0   19   20     -1.82      0.00
    1   19   20      2.40      0.00
    2   19   20     -0.19      0.00
  -10   20   20     -0.85      0.00
   -9   20   20     -0.44      0.00
   -8   20   20      2.53      0.00
   -7   20   20      2.55      0.00
   -6   20   20      0.75      0.00
   -5   20   20     -0.43      0.00
   -4   20   20     -1.47      0.00
   -3   20   20     -2.10      0.00
   -2   20   20      2.65      0.00
   -1   20   20      2.25      0.00
    0   20   20      0.52      0.00
    1   20   20      1.60      0.00
  -10   21   20     -2.80      0.00
   -9   21   20     -0.38      0.00
   -8   21   20      3.60      0.00
   -7   21   20      0.68      0.00
   -6   21   20     -0.17      0.00
   -5   21   20     -0.44      0.00
   -4   21   20      1.83      0.00
   -3   21   20     -0.64      0.00
   -2   21   20      3.64      0.00
   -1   21   20     -1.07      0.00
  -10   22   20      2.05      0.00
   -9   22   20      0.07      0.00
   -8   22   20     -0.12      0.00
   -7   22   20     -0.03      0.00
   -6   22   20      0.55      0.00
   -5   22   20      2.14      0.00
   -4   22   20      2.70      0.00
   -3   22   20     -0.79      0.00
  -11   23   20      2.57      0.00
  -10   23   20     -2.74      0.00
   -9   23   20      1.64      0.00
   -8   23   20     -2.15      0.00
   -7   23   20      0.57      0.00
   -6   23   20      1.39      0.00
  -12   24   20     -1.57      0.00
    0    1   21      5.24      0.00
    0    2   21     12.48      0.00
    1    2   21      2.87      0.00
   -1    3   21      3.45      0.00
    0    3   21     -2.90      0.00
    1    3   21     -7.73      0.00
    2    3   21      6.71      0.00
   -1    4   21     -7.64      0.00
    0    4   21    -10.73      0.00
    1    4   21      0.48      0.00
    2    4   21      4.66      0.00
    3    4   21      1.03      0.00
   -2    5   21      8.28      0.00
   -1    5   21     -1.52      0.00
    0    5   21     -1.44      0.00
    1    5   21      2.35      0.00
    2    5   21     -3.08      0.00
    3    5   21     -4.06      0.00
    4    5   21      5.50      0.00
   -2    6   21      5.82      0.00
   -1    6   21      4.58      0.00
    0    6   21     -1.47      0.00
    1    6   21     -3.59      0.00
    2    6   21     -5.99      0.00
    3    6   21      4.95      0.00
    4    6   21      4.48      0.00
    5    6   21     -1.59      0.00
   -3    7   21      2.52      0.00
   -2    7   21     -3.50      0.00
   -1    7   21     -3.89      0.00
    0    7   21      9.04      0.00
    1    7   21      3.08      0.00
    2    7   21     -0.85      0.00
    3    7   21     -0.75      0.00
    4    7   21     -4.52      0.00
    5    7   21      0.66      0.00
    6    7   21      2.59      0.00
   -3    8   21     -4.25      0.00
   -2    8   21     -5.10      0.00
   -1    8   21      3.20      0.00
    0    8   21      5.51      0.00
    1    8   21      0.84      0.00
    2    8   21     -1.12      0.00
    3    8   21    -11.89      0.00
    4    8   21     -0.68      0.00
    5    8   21      5.16      0.00
    6    8   21      0.85      0.00
    7    8   21      1.91      0.00
   -4    9   21      4.57      0.00
   -3    9   21      5.11      0.00
   -2    9   21     -0.47      0.00
   -1    9   21      1.26      0.00
    0    9   21     -4.21      0.00
    1    9   21     -3.59      0.00
    2    9   21      3.66      0.00
    3    9   21      0.70      0.00
    4    9   21     -0.98      0.00
    5    9   21     -3.23      0.00
    6    9   21      2.74      0.00
    7    9   21      1.00      0.00
    8    9   21      0.80      0.00
   -4   10   21      4.51      0.00
   -3   10   21      0.11      0.00
   -2   10   21     -2.54      0.00
   -1   10   21     -0.42      0.00
    0   10   21      0.15      0.00
    1   10   21      2.66      0.00
    2   10   21      3.31      0.00
    3   10   21     -2.34      0.00
    4   10   21      0.18      0.00
    5   10   21     -0.06      0.00
    6   10   21      0.45      0.00
    7   10   21      1.96      0.00
    8   10   21      1.92      0.00
    9   10   21     -1.33      0.00
   -5   11   21     -1.26      0.00
   -4   11   21     -4.63      0.00
   -3   11   21     -3.11      0.00
   -2   11   21      4.83      0.00
   -1   11   21      4.57      0.00
    0   11   21      0.44      0.00
    1   11   21     -1.94      0.00
    2   11   21     -7.26      0.00
    3   11   21     -0.07      0.00
    4   11   21      0.50      0.00
    5   11   21      0.55      0.00
    6   11   21      0.43      0.00
    7   11   21     -0.14      0.00
    8   11   21      0.03      0.00
    9   11   21     -0.10      0.00
   10   11   21      3.20      0.00
   -5   12   21      1.42      0.00
   -4   12   21     -0.92      0.00
   -3   12   21      2.81      0.00
   -2   12   21      1.92      0.00
   -1   12   21     -2.12      0.00
    0   12   21      0.72      0.00
    1   12   21     -2.12      0.00
    2   12   21     -3.31      0.00
    3   12   21      0.84      0.00
    4   12   21     -1.70      0.00
    5   12   21     -0.19      0.00
    6   12   21      0.20      0.00
    7   12   21     -0.28      0.00
    8   12   21     -1.54      0.00
    9   12   21      0.02      0.00
   10   12   21      0.86      0.00
   -6   13   21      1.73      0.00
   -5   13   21      3.86      0.00
   -4   13   21     -0.65      0.00
   -3   13   21     -3.61      0.00
   -2   13   21     -7.11      0.00
   -1   13   21     -2.57      0.00
    0   13   21      4.18      0.00
    1   13   21      2.18      0.00
    2   13   21      1.47      0.00
    3   13   21     -0.32      0.00
    4   13   21     -2.59      0.00
    5   13   21      2.00      0.00
    6   13   21      2.61      0.00
    7   13   21      1.33      0.00
    8   13   21     -0.16      0.00
    9   13   21     -1.81      0.00
   -6   14   21      1.81      0.00
   -5   14   21     -2.85      0.00
   -4   14   21      0.30      0.00
   -3   14   21     -1.30      0.00
   -2   14   21     -2.77      0.00
   -1   14   21      2.89      0.00
    0   14   21     -1.30      0.00
    1   14   21      1.16      0.00
    2   14   21     -1.49      0.00
    3   14   21      0.93      0.00
    4   14   21     -0.24      0.00
    5   14   21      0.60      0.00
    6   14   21     -1.60      0.00
    7   14   21     -0.19      0.00
    8   14   21      0.45      0.00
   -7   15   21      2.77      0.00
   -6   15   21      2.90      0.00
   -5   15   21     -1.24      0.00
   -4   15   21      2.49      0.00
   -3   15   21      2.24      0.00
   -2   15   21      2.37      0.00
   -1   15   21      0.19      0.00
    0   15   21     -5.03      0.00
    1   15   21      0.76      0.00
    2   15   21      2.41      0.00
    3   15   21      1.54      0.00
    4   15   21      1.35      0.00
    5   15   21      0.46      0.00
    6   15   21     -2.42      0.00
    7   15   21     -0.91      0.00
   -7   16   21      2.59      0.00
   -6   16   21     -0.52      0.00
   -5   16   21      2.51      0.00
   -4   16   21     -1.48      0.00
   -3   16   21     -2.00      0.00
   -2   16   21     -1.85      0.00
   -1   16   21      1.11      0.00
    0   16   21     -1.04      0.00
    1   16   21      1.18      0.00
    2   16   21     -0.92      0.00
    3   16   21     -0.58      0.00
    4   16   21      1.45      0.00
    5   16   21      0.14      0.00
    6   16   21     -0.43      0.00
   -8   17   21      2.70      0.00
   -7   17   21      2.45      0.00
   -6   17   21      0.97      0.00
   -5   17   21      2.06      0.00
   -4   17   21     -4.37      0.00
   -3   17   21      1.54      0.00
   -2   17   21      1.36      0.00
   -1   17   21      1.03      0.00
    0   17   21     -1.32      0.00
    1   17   21     -2.18      0.00
    2   17   21     -2.49      0.00
    3   17   21      0.42      0.00
    4   17   21      0.68      0.00
    5   17   21     -0.85      0.00
   -8   18   21      0.69      0.00
   -7   18   21     -0.16      0.00
   -6   18   21      0.93      0.00
   -5   18   21      3.90      0.00
   -4   18   21      0.12      0.00
   -3   18   21      2.19      0.00
   -2   18   21     -0.91      0.00
   -1   18   21     -1.25      0.00
    0   18   21     -1.06      0.00
    1   18   21     -0.07      0.00
    2   18   21      1.01      0.00
    3   18   21      2.87      0.00
    4   18   21      2.93      0.00
   -9   19   21     -0.96      0.00
   -8   19   21     -0.20      0.00
   -7   19   21     -1.04      0.00
   -6   19   21      1.31      0.00
   -5   19   21      0.70      0.00
   -4   19   21      0.61      0.00
   -3   19   21     -0.44      0.00
   -2   19   21     -1.98      0.00
   -1   19   21      0.18      0.00
    0   19   21      0.82      0.00
    1   19   21     -0.65      0.00
    2   19   21      0.32      0.00
   -9   20   21      0.67      0.00
   -8   20   21     -1.10      0.00
   -7   20   21     -0.24      0.00
   -6   20   21      0.28      0.00
   -5   20   21      3.91      0.00
   -4   20   21      3.06      0.00
   -3   20   21     -0.67      0.00
   -2   20   21      0.66      0.00
   -1   20   21      0.14      0.00
    0   20   21      2.94      0.00
  -10   21   21     -0.12      0.00
   -9   21   21     -0.24      0.00
   -8   21   21      0.06      0.00
   -7   21   21      2.18      0.00
   -6   21   21     -0.89      0.00
   -5   21   21      0.08      0.00
   -4   21   21     -0.20      0.00
   -3   21   21      1.54      0.00
   -2   21   21      2.91      0.00
  -10   22   21      0.02      0.00
   -9   22   21     -1.33      0.00
   -8   22   21      1.39      0.00
   -7   22   21     -1.27      0.00
   -6   22   21      0.26      0.00
   -5   22   21      1.29      0.00
   -4   22   21      1.38      0.00
  -11   23   21      0.24      0.00
  -10   23   21     -0.39      0.00
   -9   23   21     -2.54      0.00
   -8   23   21     -0.45      0.00
    0    0   22     -6.71      0.00
    0    1   22     -0.04      0.00
    1    1   22     -0.93      0.00
   -1    2   22      2.08      0.00
    0    2   22      1.51      0.00
    1    2   22     -1.27      0.00
    2    2   22     -6.00      0.00
   -1    3   22     -1.32      0.00
    0    3   22      0.44      0.00
    1    3   22     -2.69      0.00
    2    3   22     -1.35      0.00
    3    3   22      1.66      0.00
   -2    4   22     -6.94      0.00
   -1    4   22     -1.72      0.00
    0    4   22     -0.39      0.00
    1    4   22     -2.27      0.00
    2    4   22     -1.62      0.00
    3    4   22      1.95      0.00
    4    4   22     -4.45      0.00
   -2    5   22     -0.57      0.00
   -1    5   22     -1.68      0.00
    0    5   22      1.92      0.00
    1    5   22     -2.23      0.00
    2    5   22     -2.38      0.00
    3    5   22     -2.36      0.00
    4    5   22     -3.14      0.00
    5    5   22      1.08      0.00
   -3    6   22      0.82      0.00
   -2    6   22     -1.42      0.00
   -1    6   22     -2.76      0.00
    0    6   22     -5.29      0.00
    1    6   22     -5.35      0.00
    2    6   22      2.22      0.00
    3    6   22     -2.39      0.00
    4    6   22     -0.24      0.00
    5    6   22      0.00      0.00
    6    6   22     -0.83      0.00
   -3    7   22      0.37      0.00
   -2    7   22     -2.52      0.00
   -1    7   22     -4.53      0.00
    0    7   22     -0.11      0.00
    1    7   22     -1.50      0.00
    2    7   22      0.67      0.00
    3    7   22     -4.09      0.00
    4    7   22      1.43      0.00
    5    7   22      1.04      0.00
    6    7   22      0.05      0.00
    7    7   22     -0.82      0.00
   -4    8   22     -3.46      0.00
   -3    8   22     -0.57      0.00
   -2    8   22      1.86      0.00
   -1    8   22     -1.82      0.00
    0    8   22      1.58      0.00
    1    8   22     -1.91      0.00
    2    8   22     -0.65      0.00
    3    8   22     -2.21      0.00
    4    8   22     -1.86      0.00
    5    8   22     -1.41      0.00
    6    8   22     -1.02      0.00
    7    8   22     -1.58      0.00
    8    8   22     -4.31      0.00
   -4    9   22     -3.59      0.00
   -3    9   22     -1.06      0.00
   -2    9   22     -0.80      0.00
   -1    9   22     -1.58      0.00
    0    9   22     -1.85      0.00
    1    9   22     -2.19      0.00
    2    9   22     -0.70      0.00
    3    9   22     -2.44      0.00
    4    9   22     -1.74      0.00
    5    9   22     -3.28      0.00
    6    9   22      0.30      0.00
    7    9   22     -1.11      0.00
    8    9   22     -0.09      0.00
    9    9   22      1.78      0.00
   -5   10   22      1.52      0.00
   -4   10   22     -0.09      0.00
   -3   10   22     -2.57      0.00
   -2   10   22     -0.53      0.00
   -1   10   22     -0.49      0.00
    0   10   22      1.34      0.00
    1   10   22      0.81      0.00
    2   10   22     -0.08      0.00
    3   10   22     -2.32      0.00
    4   10   22     -1.62      0.00
    5   10   22     -1.62      0.00
    6   10   22     -1.23      0.00
    7   10   22     -1.11      0.00
    8   10   22      4.24      0.00
    9   10   22     -0.25      0.00
   10   10   22     -1.65      0.00
   -5   11   22     -0.32      0.00
   -4   11   22      0.58      0.00
   -3   11   22     -1.92      0.00
   -2   11   22     -0.13      0.00
   -1   11   22     -0.55      0.00
    0   11   22      1.71      0.00
    1   11   22     -0.45      0.00
    2   11   22     -1.43      0.00
    3   11   22      1.49      0.00
    4   11   22      0.58      0.00
    5   11   22     -2.16      0.00
    6   11   22     -0.55      0.00
    7   11   22      1.32      0.00
    8   11   22     -0.56      0.00
    9   11   22     -0.66      0.00
   10   11   22      0.26      0.00
   11   11   22     -2.99      0.00
   -6   12   22      0.12      0.00
   -5   12   22      1.10      0.00
   -4   12   22     -1.83      0.00
   -3   12   22     -3.43      0.00
   -2   12   22     -1.06      0.00
   -1   12   22     -1.62      0.00
    0   12   22     -2.45      0.00
    1   12   22     -0.64      0.00
    2   12   22     -0.61      0.00
    3   12   22     -0.25      0.00
    4   12   22     -0.34      0.00
    5   12   22     -1.55      0.00
    6   12   22     -1.77      0.00
    7   12   22     -1.45      0.00
    8   12   22     -0.23      0.00
    9   12   22      0.57      0.00
   10   12   22      0.20      0.00
   -6   13   22     -1.31      0.00
   -5   13   22     -0.04      0.00
   -4   13   22     -0.84      0.00
   -3   13   22     -3.79      0.00
   -2   13   22     -0.92      0.00
   -1   13   22      0.67      0.00
    0   13   22     -1.43      0.00
    1   13   22     -0.34      0.00
    2   13   22     -1.52      0.00
    3   13   22     -0.65      0.00
    4   13   22     -1.17      0.00
    5   13   22     -1.38      0.00
    6   13   22     -0.24      0.00
    7   13   22      1.52      0.00
    8   13   22      0.08      0.00
    9   13   22     -0.99      0.00
   -7   14   22     -0.43      0.00
   -6   14   22      0.40      0.00
   -5   14   22     -2.51      0.00
   -4   14   22     -0.15      0.00
   -3   14   22      1.58      0.00
   -2   14   22     -3.07      0.00
   -1   14   22     -0.65      0.00
    0   14   22     -1.93      0.00
    1   14   22     -1.80      0.00
    2   14   22     -1.49      0.00
    3   14   22     -2.51      0.00
    4   14   22     -0.63      0.00
    5   14   22     -0.47      0.00
    6   14   22      0.37      0.00
    7   14   22     -1.02      0.00
    8   14   22      0.29      0.00
   -7   15   22     -1.47      0.00
   -6   15   22     -0.09      0.00
   -5   15   22     -0.47      0.00
   -4   15   22     -1.47      0.00
   -3   15   22     -1.53      0.00
   -2   15   22      0.14      0.00
   -1   15   22     -0.90      0.00
    0   15   22     -1.94      0.00
    1   15   22      1.70      0.00
    2   15   22      0.30      0.00
    3   15   22     -1.04      0.00
    4   15   22     -0.10      0.00
    5   15   22     -1.15      0.00
    6   15   22      1.27      0.00
    7   15   22      1.76      0.00
   -8   16   22      0.06      0.00
   -7   16   22      0.30      0.00
   -6   16   22     -1.11      0.00
   -5   16   22     -0.79      0.00
   -4   16   22     -0.64      0.00
   -3   16   22     -0.55      0.00
   -2   16   22     -1.57      0.00
   -1   16   22      1.23      0.00
    0   16   22      0.16      0.00
    1   16   22      1.55      0.00
    2   16   22      0.53      0.00
    3   16   22      0.43      0.00
    4   16   22      0.87      0.00
    5   16   22      0.41      0.00
    6   16   22     -0.92      0.00
   -8   17   22      0.18      0.00
   -7   17   22      4.80      0.00
   -6   17   22     -0.59      0.00
   -5   17   22      0.00      0.00
   -4   17   22     -2.19      0.00
   -3   17   22     -2.13      0.00
   -2   17   22     -0.40      0.00
   -1   17   22      2.33      0.00
    0   17   22     -0.39      0.00
    1   17   22      0.27      0.00
    2   17   22     -0.48      0.00
    3   17   22      0.16      0.00
    4   17   22      2.22      0.00
   -9   18   22      0.17      0.00
   -8   18   22      4.73      0.00
   -7   18   22      2.06      0.00
   -6   18   22     -3.05      0.00
   -5   18   22     -1.27      0.00
   -4   18   22     -1.44      0.00
   -3   18   22      0.98      0.00
   -2   18   22      0.59      0.00
   -1   18   22     -0.06      0.00
    0   18   22     -1.18      0.00
    1   18   22      0.00      0.00
    2   18   22      0.25      0.00
    3   18   22      0.92      0.00
   -9   19   22     -0.41      0.00
   -8   19   22      0.06      0.00
   -7   19   22     -0.67      0.00
   -6   19   22     -0.63      0.00
   -5   19   22      0.27      0.00
   -4   19   22     -2.76      0.00
   -3   19   22     -0.60      0.00
   -2   19   22     -1.24      0.00
   -1   19   22     -0.82      0.00
    0   19   22      0.27      0.00
    1   19   22     -0.84      0.00
  -10   20   22     -0.82      0.00
   -9   20   22     -1.74      0.00
   -8   20   22     -0.34      0.00
   -7   20   22      0.78      0.00
   -6   20   22     -1.80      0.00
   -5   20   22      0.66      0.00
   -4   20   22      0.85      0.00
   -3   20   22     -0.33      0.00
   -2   20   22      1.23      0.00
   -1   20   22     -1.46      0.00
  -10   21   22     -0.02      0.00
   -9   21   22     -0.40      0.00
   -8   21   22      0.01      0.00
   -7   21   22     -0.52      0.00
   -6   21   22      0.00      0.00
   -5   21   22      1.22      0.00
   -4   21   22      2.48      0.00
   -3   21   22      0.10      0.00
  -11   22   22     -5.07      0.00
  -10   22   22     -0.22      0.00
   -9   22   22     -1.77      0.00
   -8   22   22     -0.17      0.00
   -7   22   22     -0.75      0.00
   -6   22   22     -2.17      0.00
    0    1   23      2.36      0.00
    0    2   23      4.82      0.00
    1    2   23      0.65      0.00
   -1    3   23      1.34      0.00
    0    3   23     -2.68      0.00
    1    3   23      2.47      0.00
    2    3   23      4.00      0.00
   -1    4   23      0.84      0.00
    0    4   23     -4.43      0.00
    1    4   23      1.58      0.00
    2    4   23      5.77      0.00
    3    4   23     -0.30      0.00
   -2    5   23      4.87      0.00
   -1    5   23      3.70      0.00
    0    5   23      1.67      0.00
    1    5   23     -0.81      0.00
    2    5   23     -4.52      0.00
    3    5   23     -0.77      0.00
    4    5   23     -1.11      0.00
   -2    6   23      4.43      0.00
   -1    6   23      3.91      0.00
    0    6   23     -0.02      0.00
    1    6   23     -1.41      0.00
    2    6   23     -3.87      0.00
    3    6   23      4.08      0.00
    4    6   23     -2.19      0.00
    5    6   23     -1.33      0.00
   -3    7   23      0.68      0.00
   -2    7   23     -3.93      0.00
   -1    7   23     -3.52      0.00
    0    7   23      2.16      0.00
    1    7   23      0.45      0.00
    2    7   23     -0.51      0.00
    3    7   23     -0.79      0.00
    4    7   23     -2.87      0.00
    5    7   23     -0.58      0.00
    6    7   23      1.56      0.00
   -3    8   23     -0.95      0.00
   -2    8   23     -4.09      0.00
   -1    8   23     -0.84      0.00
    0    8   23      3.10      0.00
    1    8   23     -1.24      0.00
    2    8   23      0.26      0.00
    3    8   23     -1.25      0.00
    4    8   23     -1.36      0.00
    5    8   23      3.70      0.00
    6    8   23     -0.27      0.00
    7    8   23     -0.94      0.00
   -4    9   23     -0.52      0.00
   -3    9   23      3.14      0.00
   -2    9   23      0.68      0.00
   -1    9   23      1.92      0.00
    0    9   23     -3.88      0.00
    1    9   23     -1.51      0.00
    2    9   23      2.02      0.00
    3    9   23     -0.08      0.00
    4    9   23      0.28      0.00
    5    9   23     -2.08      0.00
    6    9   23     -2.63      0.00
    7    9   23      0.29      0.00
    8    9   23      0.93      0.00
   -4   10   23      1.13      0.00
   -3   10   23     -1.21      0.00
   -2   10   23     -0.02      0.00
   -1   10   23     -2.60      0.00
    0   10   23     -0.41      0.00
    1   10   23      1.25      0.00
    2   10   23      1.48      0.00
    3   10   23     -0.99      0.00
    4   10   23      2.70      0.00
    5   10   23     -0.42      0.00
    6   10   23      0.66      0.00
    7   10   23      0.77      0.00
    8   10   23      1.13      0.00
    9   10   23      1.20      0.00
   -5   11   23     -2.82      0.00
   -4   11   23     -3.25      0.00
   -3   11   23     -2.21      0.00
   -2   11   23      1.22      0.00
   -1   11   23      0.10      0.00
    0   11   23     -0.05      0.00
    1   11   23     -1.25      0.00
    2   11   23     -1.52      0.00
    3   11   23      1.25      0.00
    4   11   23      2.00      0.00
    5   11   23      0.11      0.00
    6   11   23      0.36      0.00
    7   11   23     -0.14      0.00
    8   11   23      0.26      0.00
    9   11   23      0.91      0.00
   10   11   23      1.47      0.00
   -5   12   23     -0.04      0.00
   -4   12   23     -0.05      0.00
   -3   12   23     -5.72      0.00
   -2   12   23      0.80      0.00
   -1   12   23     -0.18      0.00
    0   12   23      3.67      0.00
    1   12   23      2.10      0.00
    2   12   23      0.07      0.00
    3   12   23      0.01      0.00
    4   12   23     -1.52      0.00
    5   12   23     -1.17      0.00
    6   12   23      1.26      0.00
    7   12   23      0.20      0.00
    8   12   23     -0.55      0.00
    9   12   23     -0.73      0.00
   -6   13   23      2.61      0.00
   -5   13   23      2.66      0.00
   -4   13   23      0.34      0.00
   -3   13   23     -1.28      0.00
   -2   13   23     -1.32      0.00
   -1   13   23      3.53      0.00
    0   13   23      2.33      0.00
    1   13   23      2.01      0.00
    2   13   23     -0.38      0.00
    3   13   23     -2.61      0.00
    4   13   23     -1.16      0.00
    5   13   23     -0.31      0.00
    6   13   23     -0.07      0.00
    7   13   23     -0.01      0.00
    8   13   23      0.73      0.00
   -6   14   23     -1.74      0.00
   -5   14   23     -0.75      0.00
   -4   14   23      2.68      0.00
   -3   14   23      1.58      0.00
   -2   14   23     -0.74      0.00
   -1   14   23     -0.52      0.00
    0   14   23     -0.67      0.00
    1   14   23     -0.41      0.00
    2   14   23     -0.27      0.00
    3   14   23      1.41      0.00
    4   14   23     -0.02      0.00
    5   14   23      0.66      0.00
    6   14   23     -0.30      0.00
    7   14   23      0.07      0.00
   -7   15   23     -2.42      0.00
   -6   15   23     -2.53      0.00
   -5   15   23     -0.12      0.00
   -4   15   23      2.20      0.00
   -3   15   23     -0.15      0.00
   -2   15   23      0.08      0.00
   -1   15   23     -0.90      0.00
    0   15   23     -2.53      0.00
    1   15   23      0.13      0.00
    2   15   23      0.80      0.00
    3   15   23      0.99      0.00
    4   15   23      0.55      0.00
    5   15   23     -0.25      0.00
    6   15   23      0.34      0.00
   -7   16   23      0.44      0.00
   -6   16   23      0.50      0.00
   -5   16   23      0.45      0.00
   -4   16   23     -1.94      0.00
   -3   16   23     -0.92      0.00
   -2   16   23      0.96      0.00
   -1   16   23      1.37      0.00
    0   16   23      0.53      0.00
    1   16   23     -0.92      0.00
    2   16   23     -0.96      0.00
    3   16   23     -0.74      0.00
    4   16   23      2.87      0.00
    5   16   23     -2.68      0.00
   -8   17   23      1.48      0.00
   -7   17   23      0.07      0.00
   -6   17   23      0.04      0.00
   -5   17   23     -1.90      0.00
   -4   17   23     -1.12      0.00
   -3   17   23      0.68      0.00
   -2   17   23      0.05      0.00
   -1   17   23      0.25      0.00
    0   17   23     -2.01      0.00
    1   17   23      1.04      0.00
    2   17   23      1.71      0.00
    3   17   23      0.34      0.00
    4   17   23     -0.04      0.00
   -8   18   23      0.46      0.00
   -7   18   23     -1.64      0.00
   -6   18   23      0.10      0.00
   -5   18   23     -1.19      0.00
   -4   18   23      0.82      0.00
   -3   18   23     -0.53      0.00
   -2   18   23     -0.72      0.00
   -1   18   23     -0.91      0.00
    0   18   23     -1.15      0.00
    1   18   23     -0.38      0.00
    2   18   23     -1.10      0.00
   -9   19   23      2.28      0.00
   -8   19   23     -0.12      0.00
   -7   19   23     -0.24      0.00
   -6   19   23     -1.07      0.00
   -5   19   23     -0.17      0.00
   -4   19   23      0.71      0.00
   -3   19   23      1.09      0.00
   -2   19   23      3.63      0.00
   -1   19   23      0.94      0.00
    0   19   23     -0.11      0.00
   -9   20   23      1.94      0.00
   -8   20   23     -0.15      0.00
   -7   20   23     -0.09      0.00
   -6   20   23     -0.93      0.00
   -5   20   23     -0.31      0.00
   -4   20   23      0.99      0.00
   -3   20   23      1.64      0.00
   -2   20   23     -0.05      0.00
  -10   21   23      1.26      0.00
   -9   21   23      0.60      0.00
   -8   21   23     -0.05      0.00
   -7   21   23     -3.54      0.00
   -6   21   23      0.70      0.00
   -5   21   23      0.87      0.00
   -4   21   23      2.26      0.00
  -10   22   23      1.95      0.00
   -9   22   23      1.04      0.00
   -8   22   23     -1.17      0.00
    0    0   24     -2.00      0.00
    0    1   24     -2.35      0.00
    1    1   24      4.28      0.00
   -1    2   24      4.00      0.00
    0    2   24      7.87      0.00
    1    2   24     -1.52      0.00
    2    2   24     -7.03      0.00
   -1    3   24     -1.06      0.00
    0    3   24      3.71      0.00
    1    3   24      3.36      0.00
    2    3   24      2.71      0.00
    3    3   24      1.72      0.00
   -2    4   24     -3.06      0.00
   -1    4   24      0.94      0.00
    0    4   24      7.30      0.00
    1    4   24      5.14      0.00
    2    4   24      3.97      0.00
    3    4   24     -6.21      0.00
    4    4   24     -5.32      0.00
   -2    5   24      3.62      0.00
   -1    5   24      6.14      0.00
    0    5   24     -6.07      0.00
    1    5   24      2.08      0.00
    2    5   24      2.94      0.00
    3    5   24      2.76      0.00
    4    5   24      4.96      0.00
    5    5   24      0.41      0.00
   -3    6   24      3.89      0.00
   -2    6   24      3.29      0.00
   -1    6   24      1.29      0.00
    0    6   24     -5.49      0.00
    1    6   24      3.41      0.00
    2    6   24      3.48      0.00
    3    6   24      4.32      0.00
    4    6   24      3.30      0.00
    5    6   24     -2.33      0.00
    6    6   24     -2.18      0.00
   -3    7   24     -5.17      0.00
   -2    7   24      1.18      0.00
   -1    7   24      4.34      0.00
    0    7   24      5.03      0.00
    1    7   24     -0.18      0.00
    2    7   24     -5.72      0.00
    3    7   24      0.40      0.00
    4    7   24      3.26      0.00
    5    7   24      2.43      0.00
    6    7   24      4.14      0.00
    7    7   24     -0.09      0.00
   -4    8   24     -5.85      0.00
   -3    8   24      2.11      0.00
   -2    8   24     -0.25      0.00
   -1    8   24      1.86      0.00
    0    8   24      2.98      0.00
    1    8   24     -2.39      0.00
    2    8   24     -1.95      0.00
    3    8   24      2.14      0.00
    4    8   24     -0.16      0.00
    5    8   24      1.84      0.00
    6    8   24      1.43      0.00
    7    8   24     -2.19      0.00
    8    8   24      4.19      0.00
   -4    9   24      5.68      0.00
   -3    9   24      1.91      0.00
   -2    9   24     -3.18      0.00
   -1    9   24     -1.91      0.00
    0    9   24      3.54      0.00
    1    9   24      8.85      0.00
    2    9   24      5.08      0.00
    3    9   24     -3.57      0.00
    4    9   24     -3.94      0.00
    5    9   24      0.38      0.00
    6    9   24      1.21      0.00
    7    9   24      1.93      0.00
    8    9   24     -0.81      0.00
    9    9   24    -12.52      0.00
   -5   10   24     -0.06      0.00
   -4   10   24      4.42      0.00
   -3   10   24      0.60      0.00
   -2   10   24     -1.80      0.00
   -1   10   24      2.59      0.00
    0   10   24      2.90      0.00
    1   10   24      0.61      0.00
    2   10   24      3.42      0.00
    3   10   24     -1.86      0.00
    4   10   24     -1.38      0.00
    5   10   24      2.66      0.00
    6   10   24     -0.49      0.00
    7   10   24     -0.77      0.00
    8   10   24     -1.36      0.00
    9   10   24     -2.33      0.00
   10   10   24      0.66      0.00
   -5   11   24     -3.49      0.00
   -4   11   24      3.13      0.00
   -3   11   24      1.84      0.00
   -2   11   24      4.64      0.00
   -1   11   24      0.50      0.00
    0   11   24     -4.47      0.00
    1   11   24      0.44      0.00
    2   11   24      0.72      0.00
    3   11   24      2.31      0.00
    4   11   24     -0.99      0.00
    5   11   24     -1.12      0.00
    6   11   24     -2.90      0.00
    7   11   24      1.67      0.00
    8   11   24     -0.53      0.00
    9   11   24      0.94      0.00
   10   11   24     -0.51      0.00
   -6   12   24     -1.44      0.00
   -5   12   24      3.00      0.00
   -4   12   24      0.50      0.00
   -3   12   24     -0.62      0.00
   -2   12   24      3.54      0.00
   -1   12   24      0.70      0.00
    0   12   24     -0.42      0.00
    1   12   24      3.58      0.00
    2   12   24     -2.51      0.00
    3   12   24      0.80      0.00
    4   12   24      1.23      0.00
    5   12   24      0.45      0.00
    6   12   24     -0.32      0.00
    7   12   24      1.45      0.00
    8   12   24      0.42      0.00
    9   12   24      0.57      0.00
   -6   13   24      4.48      0.00
   -5   13   24      1.88      0.00
   -4   13   24     -3.91      0.00
   -3   13   24     -2.16      0.00
   -2   13   24      0.91      0.00
   -1   13   24      3.24      0.00
    0   13   24      1.34      0.00
    1   13   24     -0.78      0.00
    2   13   24     -3.76      0.00
    3   13   24      0.41      0.00
    4   13   24      1.64      0.00
    5   13   24      0.53      0.00
    6   13   24      0.91      0.00
    7   13   24     -0.07      0.00
    8   13   24     -0.54      0.00
   -7   14   24     -0.14      0.00
   -6   14   24      1.53      0.00
   -5   14   24      0.35      0.00
   -4   14   24     -1.76      0.00
   -3   14   24      1.45      0.00
   -2   14   24     -0.39      0.00
   -1   14   24     -1.73      0.00
    0   14   24      1.20      0.00
    1   14   24     -0.37      0.00
    2   14   24     -1.61      0.00
    3   14   24     -0.19      0.00
    4   14   24     -1.78      0.00
    5   14   24      1.18      0.00
    6   14   24      0.04      0.00
    7   14   24     -1.81      0.00
   -7   15   24     -0.37      0.00
   -6   15   24      2.05      0.00
   -5   15   24      0.51      0.00
   -4   15   24     -0.91      0.00
   -3   15   24     -0.21      0.00
   -2   15   24     -2.85      0.00
   -1   15   24      0.41      0.00
    0   15   24      0.17      0.00
    1   15   24     -0.82      0.00
    2   15   24      0.23      0.00
    3   15   24     -2.97      0.00
    4   15   24     -2.79      0.00
    5   15   24     -1.01      0.00
    6   15   24      1.96      0.00
   -8   16   24      2.61      0.00
   -7   16   24      1.18      0.00
   -6   16   24     -0.11      0.00
   -5   16   24     -3.06      0.00
   -4   16   24     -1.23      0.00
   -3   16   24      0.16      0.00
   -2   16   24     -1.48      0.00
   -1   16   24      0.76      0.00
    0   16   24     -1.94      0.00
    1   16   24      0.14      0.00
    2   16   24     -0.51      0.00
    3   16   24     -0.22      0.00
    4   16   24     -2.09      0.00
   -8   17   24      0.51      0.00
   -7   17   24     -3.18      0.00
   -6   17   24     -0.92      0.00
   -5   17   24      0.23      0.00
   -4   17   24      1.38      0.00
   -3   17   24     -1.42      0.00
   -2   17   24      0.18      0.00
   -1   17   24     -0.03      0.00
    0   17   24     -1.91      0.00
    1   17   24     -1.05      0.00
    2   17   24      1.33      0.00
    3   17   24      3.18      0.00
   -9   18   24     -1.24      0.00
   -8   18   24     -0.74      0.00
   -7   18   24      0.09      0.00
   -6   18   24      0.83      0.00
   -5   18   24     -0.75      0.00
   -4   18   24     -1.18      0.00
   -3   18   24     -1.53      0.00
   -2   18   24     -0.74      0.00
   -1   18   24     -1.12      0.00
    0   18   24      1.58      0.00
    1   18   24     -1.08      0.00
   -9   19   24     -3.01      0.00
   -8   19   24      0.03      0.00
   -7   19   24      1.77      0.00
   -6   19   24      0.84      0.00
   -5   19   24      1.75      0.00
   -4   19   24     -1.54      0.00
   -3   19   24     -0.28      0.00
   -2   19   24      1.36      0.00
   -1   19   24      0.79      0.00
  -10   20   24      1.45      0.00
   -9   20   24     -0.47      0.00
   -8   20   24     -0.79      0.00
   -7   20   24     -1.71      0.00
   -6   20   24     -0.30      0.00
   -5   20   24     -0.87      0.00
   -4   20   24     -0.85      0.00
   -3   20   24      1.26      0.00
  -10   21   24      0.09      0.00
   -9   21   24     -0.70      0.00
   -8   21   24     -2.33      0.00
   -7   21   24     -1.47      0.00
   -6   21   24      0.81      0.00
    0    1   25     -2.78      0.00
    0    2   25     -7.11      0.00
    1    2   25     -3.07      0.00
   -1    3   25     -5.07      0.00
    0    3   25      2.98      0.00
    1    3   25      0.73      0.00
    2    3   25    -10.74      0.00
   -1    4   25      4.21      0.00
    0    4   25      6.01      0.00
    1    4   25     -5.27      0.00
    2    4   25     -5.26      0.00
    3    4   25     -1.03      0.00
   -2    5   25     -8.79      0.00
   -1    5   25     -5.70      0.00
    0    5   25      1.73      0.00
    1    5   25     -2.64      0.00
    2    5   25      5.75      0.00
    3    5   25      1.09      0.00
    4    5   25     -6.03      0.00
   -2    6   25     -5.39      0.00
   -1    6   25     -3.59      0.00
    0    6   25     -0.42      0.00
    1    6   25      3.26      0.00
    2    6   25     -0.96      0.00
    3    6   25     -4.32      0.00
    4    6   25     -2.44      0.00
    5    6   25      0.02      0.00
   -3    7   25      0.09      0.00
   -2    7   25      8.64      0.00
   -1    7   25      3.21      0.00
    0    7   25     -5.99      0.00
    1    7   25     -3.53      0.00
    2    7   25      0.64      0.00
    3    7   25      0.39      0.00
    4    7   25      7.63      0.00
    5    7   25     -2.52      0.00
    6    7   25     -4.09      0.00
   -3    8   25      1.70      0.00
   -2    8   25      6.36      0.00
   -1    8   25     -2.51      0.00
    0    8   25     -3.40      0.00
    1    8   25      2.05      0.00
    2    8   25      1.06      0.00
    3    8   25      2.10      0.00
    4    8   25      2.94      0.00
    5    8   25     -2.89      0.00
    6    8   25     -0.09      0.00
    7    8   25     -1.01      0.00
   -4    9   25     -5.30      0.00
   -3    9   25     -2.96      0.00
   -2    9   25      0.54      0.00
   -1    9   25     -1.57      0.00
    0    9   25      3.94      0.00
    1    9   25      1.21      0.00
    2    9   25     -4.02      0.00
    3    9   25     -1.52      0.00
    4    9   25     -0.71      0.00
    5    9   25      1.12      0.00
    6    9   25      3.88      0.00
    7    9   25     -1.63      0.00
    8    9   25     -0.29      0.00
   -4   10   25     -3.39      0.00
   -3   10   25      2.52      0.00
   -2   10   25      0.05      0.00
   -1   10   25      0.68      0.00
    0   10   25      3.20      0.00
    1   10   25     -2.52      0.00
    2   10   25     -2.44      0.00
    3   10   25      1.10      0.00
    4   10   25     -0.93      0.00
    5   10   25      1.49      0.00
    6   10   25      0.32      0.00
    7   10   25     -3.62      0.00
    8   10   25     -0.62      0.00
    9   10   25     -0.26      0.00
   -5   11   25     -0.99      0.00
   -4   11   25      2.99      0.00
   -3   11   25      0.44      0.00
   -2   11   25     -3.98      0.00
   -1   11   25     -3.03      0.00
    0   11   25     -1.79      0.00
    1   11   25      1.88      0.00
    2   11   25      4.47      0.00
    3   11   25      0.40      0.00
    4   11   25     -4.89      0.00
    5   11   25     -1.66      0.00
    6   11   25     -0.50      0.00
    7   11   25      2.14      0.00
    8   11   25      0.32      0.00
    9   11   25     -1.71      0.00
   -5   12   25     -1.39      0.00
   -4   12   25      2.69      0.00
   -3   12   25     -0.47      0.00
   -2   12   25     -2.16      0.00
   -1   12   25      2.34      0.00
    0   12   25     -1.11      0.00
    1   12   25      1.32      0.00
    2   12   25      0.82      0.00
    3   12   25     -1.68      0.00
    4   12   25      1.01      0.00
    5   12   25     -1.06      0.00
    6   12   25     -1.35      0.00
    7   12   25      0.22      0.00
    8   12   25      1.62      0.00
   -6   13   25     -2.39      0.00
   -5   13   25     -1.83      0.00
   -4   13   25     -2.04      0.00
   -3   13   25      1.36      0.00
   -2   13   25      3.35      0.00
   -1   13   25      1.72      0.00
    0   13   25     -4.22      0.00
    1   13   25     -1.84      0.00
    2   13   25      0.13      0.00
    3   13   25      1.58      0.00
    4   13   25     -0.21      0.00
    5   13   25     -0.90      0.00
    6   13   25     -1.96      0.00
    7   13   25     -0.44      0.00
   -6   14   25     -3.04      0.00
   -5   14   25      3.73      0.00
   -4   14   25     -0.36      0.00
   -3   14   25     -1.51      0.00
   -2   14   25     -1.00      0.00
   -1   14   25      0.58      0.00
    0   14   25      0.02      0.00
    1   14   25      2.42      0.00
    2   14   25     -1.50      0.00
    3   14   25     -0.48      0.00
    4   14   25     -2.46      0.00
    5   14   25     -0.23      0.00
    6   14   25      1.25      0.00
   -7   15   25      0.45      0.00
   -6   15   25      5.34      0.00
   -5   15   25      0.73      0.00
   -4   15   25     -5.98      0.00
   -3   15   25     -1.07      0.00
   -2   15   25     -1.77      0.00
   -1   15   25      1.01      0.00
    0   15   25      2.57      0.00
    1   15   25      2.16      0.00
    2   15   25     -1.89      0.00
    3   15   25     -0.40      0.00
    4   15   25     -3.46      0.00
    5   15   25      0.86      0.00
   -7   16   25     -0.14      0.00
   -6   16   25     -0.37      0.00
   -5   16   25     -0.24      0.00
   -4   16   25     -0.68      0.00
   -3   16   25      2.26      0.00
   -2   16   25     -1.78      0.00
   -1   16   25     -2.25      0.00
    0   16   25      0.17      0.00
    1   16   25      0.90      0.00
    2   16   25      0.96      0.00
    3   16   25      0.70      0.00
   -8   17   25     -0.86      0.00
   -7   17   25     -1.63      0.00
   -6   17   25     -0.75      0.00
   -5   17   25      0.03      0.00
   -4   17   25      2.13      0.00
   -3   17   25     -0.25      0.00
   -2   17   25     -1.82      0.00
   -1   17   25     -1.22      0.00
    0   17   25     -0.82      0.00
    1   17   25      0.83      0.00
    2   17   25      5.73      0.00
   -8   18   25     -0.28      0.00
   -7   18   25      4.52      0.00
   -6   18   25     -1.55      0.00
   -5   18   25     -1.55      0.00
   -4   18   25     -0.91      0.00
   -3   18   25      1.18      0.00
   -2   18   25      0.61      0.00
   -1   18   25      0.91      0.00
    0   18   25      1.96      0.00
   -9   19   25      0.22      0.00
   -8   19   25      1.87      0.00
   -7   19   25      1.04      0.00
   -6   19   25     -1.41      0.00
   -5   19   25     -0.68      0.00
   -4   19   25     -0.52      0.00
   -3   19   25     -0.14      0.00
   -2   19   25      0.13      0.00
   -9   20   25     -0.61      0.00
   -8   20   25     -0.84      0.00
   -7   20   25      0.18      0.00
   -6   20   25      0.88      0.00
   -5   20   25     -2.07      0.00
    0    0   26      2.00      0.00
    0    1   26      0.81      0.00
    1    1   26     -0.72      0.00
   -1    2   26     -0.39      0.00
    0    2   26     -3.98      0.00
    1    2   26      3.22      0.00
    2    2   26      6.12      0.00
   -1    3   26      2.23      0.00
    0    3   26     -1.41      0.00
    1    3   26      1.84      0.00
    2    3   26     -1.11      0.00
    3    3   26     -2.09      0.00
   -2    4   26      7.32      0.00
   -1    4   26      2.91      0.00
    0    4   26     -2.79      0.00
    1    4   26     -0.99      0.00
    2    4   26     -1.73      0.00
    3    4   26      1.02      0.00
    4    4   26      5.70      0.00
   -2    5   26     -2.34      0.00
   -1    5   26     -2.80      0.00
    0    5   26      3.29      0.00
    1    5   26     -0.25      0.00
    2    5   26      0.81      0.00
    3    5   26      1.69      0.00
    4    5   26      0.22      0.00
    5    5   26      3.74      0.00
   -3    6   26     -0.50      0.00
   -2    6   26     -3.00      0.00
   -1    6   26      1.54      0.00
    0    6   26      4.20      0.00
    1    6   26      1.13      0.00
    2    6   26     -1.27      0.00
    3    6   26     -1.75      0.00
    4    6   26     -1.35      0.00
    5    6   26      2.36      0.00
    6    6   26      2.82      0.00
   -3    7   26      1.68      0.00
   -2    7   26     -0.99      0.00
   -1    7   26      0.39      0.00
    0    7   26      0.39      0.00
    1    7   26     -1.27      0.00
    2    7   26      4.64      0.00
    3    7   26      0.78      0.00
    4    7   26     -0.50      0.00
    5    7   26     -1.83      0.00
    6    7   26     -0.90      0.00
    7    7   26     -0.50      0.00
   -4    8   26      5.63      0.00
   -3    8   26      0.53      0.00
   -2    8   26     -1.02      0.00
   -1    8   26     -2.66      0.00
    0    8   26     -0.64      0.00
    1    8   26     -0.74      0.00
    2    8   26      3.98      0.00
    3    8   26      0.94      0.00
    4    8   26      0.21      0.00
    5    8   26     -1.78      0.00
    6    8   26     -0.28      0.00
    7    8   26      1.18      0.00
    8    8   26      1.01      0.00
   -4    9   26     -1.28      0.00
   -3    9   26     -2.15      0.00
   -2    9   26      5.31      0.00
   -1    9   26      0.34      0.00
    0    9   26      0.66      0.00
    1    9   26     -3.38      0.00
    2    9   26      0.54      0.00
    3    9   26      0.63      0.00
    4    9   26      3.74      0.00
    5    9   26     -0.27      0.00
    6    9   26      0.89      0.00
    7    9   26      0.98      0.00
    8    9   26      2.21      0.00
    9    9   26      2.90      0.00
   -5   10   26     -3.59      0.00
   -4   10   26      1.06      0.00
   -3   10   26      1.00      0.00
   -2   10   26      2.27      0.00
   -1   10   26     -1.06      0.00
    0   10   26     -1.99      0.00
    1   10   26     -1.15      0.00
    2   10   26     -0.93      0.00
    3   10   26      0.83      0.00
    4   10   26      1.93      0.00
    5   10   26     -1.07      0.00
    6   10   26      0.15      0.00
    7   10   26     -0.71      0.00
    8   10   26     -1.11      0.00
    9   10   26      0.92      0.00
   10   10   26     -0.71      0.00
   -5   11   26      1.45      0.00
   -4   11   26     -0.71      0.00
   -3   11   26     -1.14      0.00
   -2   11   26      0.14      0.00
   -1   11   26      0.83      0.00
    0   11   26      3.37      0.00
    1   11   26      2.05      0.00
    2   11   26     -1.24      0.00
    3   11   26     -0.74      0.00
    4   11   26     -0.81      0.00
    5   11   26     -0.80      0.00
    6   11   26      1.90      0.00
    7   11   26     -0.31      0.00
    8   11   26     -2.71      0.00
    9   11   26     -1.70      0.00
   -6   12   26      5.25      0.00
   -5   12   26     -0.35      0.00
   -4   12   26     -0.49      0.00
   -3   12   26      2.15      0.00
   -2   12   26     -1.00      0.00
   -1   12   26      1.82      0.00
    0   12   26      2.25      0.00
    1   12   26     -1.38      0.00
    2   12   26     -0.03      0.00
    3   12   26     -0.26      0.00
    4   12   26     -2.28      0.00
    5   12   26      0.49      0.00
    6   12   26      1.39      0.00
    7   12   26     -0.91      0.00
    8   12   26      0.70      0.00
   -6   13   26     -0.96      0.00
   -5   13   26     -0.82      0.00
   -4   13   26      2.75      0.00
   -3   13   26      2.08      0.00
   -2   13   26     -1.64      0.00
   -1   13   26     -0.37      0.00
    0   13   26     -1.73      0.00
    1   13   26      1.76      0.00
    2   13   26      2.07      0.00
    3   13   26      0.22      0.00
    4   13   26     -0.69      0.00
    5   13   26     -0.88      0.00
    6   13   26     -1.03      0.00
    7   13   26     -0.24      0.00
   -7   14   26     -0.16      0.00
   -6   14   26      0.11      0.00
   -5   14   26      1.56      0.00
   -4   14   26      0.13      0.00
   -3   14   26     -0.64      0.00
   -2   14   26      0.11      0.00
   -1   14   26      1.53      0.00
    0   14   26     -2.35      0.00
    1   14   26      2.25      0.00
    2   14   26      2.52      0.00
    3   14   26     -0.40      0.00
    4   14   26      2.89      0.00
    5   14   26      1.25      0.00
   -7   15   26      2.04      0.00
   -6   15   26     -1.71      0.00
   -5   15   26     -0.24      0.00
   -4   15   26     -1.90      0.00
   -3   15   26      1.20      0.00
   -2   15   26      2.19      0.00
   -1   15   26      0.27      0.00
    0   15   26     -1.80      0.00
    1   15   26     -1.69      0.00
    2   15   26      0.64      0.00
    3   15   26      1.68      0.00
    4   15   26      3.01      0.00
   -8   16   26      1.27      0.00
   -7   16   26      0.44      0.00
   -6   16   26     -0.42      0.00
   -5   16   26     -1.18      0.00
   -4   16   26      0.35      0.00
   -3   16   26      3.13      0.00
   -2   16   26      0.59      0.00
   -1   16   26     -2.39      0.00
    0   16   26      0.00      0.00
    1   16   26      0.54      0.00
    2   16   26     -0.93      0.00
   -8   17   26      2.72      0.00
   -7   17   26     -1.07      0.00
   -6   17   26      3.57      0.00
   -5   17   26      1.48      0.00
   -4   17   26     -1.36      0.00
   -3   17   26      0.06      0.00
   -2   17   26     -1.34      0.00
   -1   17   26      0.98      0.00
    0   17   26      0.42      0.00
    1   17   26     -1.01      0.00
   -9   18   26      2.00      0.00
   -8   18   26     -0.19      0.00
   -7   18   26     -0.36      0.00
   -6   18   26      0.50      0.00
   -5   18   26     -0.69      0.00
   -4   18   26      0.60      0.00
   -3   18   26      1.15      0.00
   -2   18   26      0.53      0.00
   -1   18   26     -1.15      0.00
   -9   19   26      1.52      0.00
   -8   19   26     -1.40      0.00
   -7   19   26     -0.89      0.00
   -6   19   26     -1.19      0.00
   -5   19   26      0.52      0.00
   -4   19   26     -2.63      0.00
  -10   20   26      0.14      0.00
   -9   20   26     -1.98      0.00
   -8   20   26      0.23      0.00
    0    1   27      1.84      0.00
    0    2   27     -2.08      0.00
    1    2   27      0.37      0.00
   -1    3   27      0.04      0.00
    0    3   27     -1.90      0.00
    1    3   27      0.81      0.00
    2    3   27     -1.63      0.00
   -1    4   27      3.79      0.00
    0    4   27     -0.48      0.00
    1    4   27      0.39      0.00
    2    4   27     -0.28      0.00
    3    4   27     -0.12      0.00
   -2    5   27     -4.76      0.00
   -1    5   27      0.96      0.00
    0    5   27     -1.87      0.00
    1    5   27      1.16      0.00
    2    5   27      0.80      0.00
    3    5   27     -3.09      0.00
    4    5   27     -0.41      0.00
   -2    6   27     -3.31      0.00
   -1    6   27     -0.08      0.00
    0    6   27      0.64      0.00
    1    6   27     -0.74      0.00
    2    6   27     -2.09      0.00
    3    6   27     -1.80      0.00
    4    6   27      2.06      0.00
    5    6   27     -0.43      0.00
   -3    7   27      0.77      0.00
   -2    7   27      2.08      0.00
   -1    7   27     -0.87      0.00
    0    7   27     -1.18      0.00
    1    7   27      1.56      0.00
    2    7   27      0.86      0.00
    3    7   27     -1.13      0.00
    4    7   27      0.25      0.00
    5    7   27     -0.70      0.00
    6    7   27     -0.79      0.00
   -3    8   27     -3.18      0.00
   -2    8   27      0.15      0.00
   -1    8   27     -1.18      0.00
    0    8   27      0.39      0.00
    1    8   27      0.25      0.00
    2    8   27      0.17      0.00
    3    8   27      0.26      0.00
    4    8   27     -1.28      0.00
    5    8   27      0.47      0.00
    6    8   27      0.15      0.00
    7    8   27      0.01      0.00
   -4    9   27     -2.43      0.00
   -3    9   27     -0.29      0.00
   -2    9   27     -1.26      0.00
   -1    9   27      1.40      0.00
    0    9   27      0.79      0.00
    1    9   27     -1.48      0.00
    2    9   27      0.53      0.00
    3    9   27      1.82      0.00
    4    9   27     -0.18      0.00
    5    9   27      2.03      0.00
    6    9   27      0.18      0.00
    7    9   27      0.95      0.00
    8    9   27      1.03      0.00
   -4   10   27      1.96      0.00
   -3   10   27     -2.20      0.00
   -2   10   27      2.01      0.00
   -1   10   27     -1.75      0.00
    0   10   27     -0.97      0.00
    1   10   27     -2.16      0.00
    2   10   27      0.19      0.00
    3   10   27      1.78      0.00
    4   10   27     -0.57      0.00
    5   10   27      1.06      0.00
    6   10   27      0.09      0.00
    7   10   27     -0.19      0.00
    8   10   27     -0.49      0.00
    9   10   27      1.56      0.00
   -5   11   27      1.44      0.00
   -4   11   27      2.15      0.00
   -3   11   27      0.41      0.00
   -2   11   27      0.66      0.00
   -1   11   27      1.77      0.00
    0   11   27     -0.11      0.00
    1   11   27      0.82      0.00
    2   11   27      0.91      0.00
    3   11   27     -1.03      0.00
    4   11   27      1.85      0.00
    5   11   27      0.27      0.00
    6   11   27     -0.39      0.00
    7   11   27      1.56      0.00
    8   11   27     -0.28      0.00
   -5   12   27     -0.62      0.00
   -4   12   27      0.36      0.00
   -3   12   27      1.12      0.00
   -2   12   27      0.63      0.00
   -1   12   27      0.27      0.00
    0   12   27     -0.53      0.00
    1   12   27     -1.80      0.00
    2   12   27      0.50      0.00
    3   12   27      1.37      0.00
    4   12   27     -0.50      0.00
    5   12   27     -3.74      0.00
    6   12   27      0.33      0.00
    7   12   27      0.82      0.00
   -6   13   27     -0.55      0.00
   -5   13   27     -1.48      0.00
   -4   13   27      0.44      0.00
   -3   13   27      0.58      0.00
   -2   13   27      0.61      0.00
   -1   13   27     -1.61      0.00
    0   13   27     -1.93      0.00
    1   13   27      0.33      0.00
    2   13   27     -0.50      0.00
    3   13   27     -1.21      0.00
    4   13   27     -1.21      0.00
    5   13   27      0.39      0.00
    6   13   27     -1.33      0.00
   -6   14   27      1.83      0.00
   -5   14   27     -0.54      0.00
   -4   14   27     -1.73      0.00
   -3   14   27     -0.78      0.00
   -2   14   27      0.59      0.00
   -1   14   27      0.74      0.00
    0   14   27      0.24      0.00
    1   14   27      0.65      0.00
    2   14   27     -0.80      0.00
    3   14   27     -0.12      0.00
    4   14   27     -1.87      0.00
   -7   15   27     -1.03      0.00
   -6   15   27      1.17      0.00
   -5   15   27     -2.04      0.00
   -4   15   27     -0.02      0.00
   -3   15   27      1.00      0.00
   -2   15   27     -0.70      0.00
   -1   15   27     -0.38      0.00
    0   15   27     -1.26      0.00
    1   15   27      0.97      0.00
    2   15   27      1.16      0.00
    3   15   27     -1.79      0.00
   -7   16   27     -1.03      0.00
   -6   16   27     -0.84      0.00
   -5   16   27      1.03      0.00
   -4   16   27      1.20      0.00
   -3   16   27     -1.01      0.00
   -2   16   27     -0.77      0.00
   -1   16   27     -0.53      0.00
    0   16   27     -1.57      0.00
    1   16   27     -0.20      0.00
   -8   17   27      1.20      0.00
   -7   17   27     -0.08      0.00
   -6   17   27     -1.19      0.00
   -5   17   27     -1.24      0.00
   -4   17   27      0.89      0.00
   -3   17   27     -1.86      0.00
   -2   17   27      1.94      0.00
   -1   17   27     -0.48      0.00
   -8   18   27     -0.44      0.00
   -7   18   27      2.46      0.00
   -6   18   27      0.54      0.00
   -5   18   27     -1.07      0.00
   -4   18   27     -0.40      0.00
   -3   18   27     -4.30      0.00
   -9   19   27      2.02      0.00
   -8   19   27     -1.11      0.00
   -7   19   27      0.06      0.00
   -6   19   27     -1.47      0.00
    0    0   28      7.58      0.00
    0    1   28     -1.40      0.00
    1    1   28     -1.13      0.00
   -1    2   28     -1.66      0.00
    0    2   28     -0.35      0.00
    1    2   28     -2.70      0.00
    2    2   28     -0.75      0.00
   -1    3   28      1.50      0.00
    0    3   28     -3.72      0.00
    1    3   28      2.60      0.00
    2    3   28     -0.97      0.00
    3    3   28     -1.65      0.00
   -2    4   28      2.36      0.00
   -1    4   28     -1.30      0.00
    0    4   28     -5.47      0.00
    1    4   28     -4.36      0.00
    2    4   28     -1.37      0.00
    3    4   28      2.39      0.00
    4    4   28      7.70      0.00
   -2    5   28     -2.25      0.00
   -1    5   28      0.09      0.00
    0    5   28      2.02      0.00
    1    5   28     -1.76      0.00
    2    5   28     -2.64      0.00
    3    5   28      0.36      0.00
    4    5   28     -2.77      0.00
    5    5   28     -2.26      0.00
   -3    6   28      0.14      0.00
   -2    6   28     -4.98      0.00
   -1    6   28      0.22      0.00
    0    6   28      4.93      0.00
    1    6   28     -0.58      0.00
    2    6   28     -1.72      0.00
    3    6   28     -0.68      0.00
    4    6   28     -2.20      0.00
    5    6   28      0.21      0.00
    6    6   28     -0.75      0.00
   -3    7   28      2.26      0.00
   -2    7   28     -2.39      0.00
   -1    7   28     -0.50      0.00
    0    7   28     -1.81      0.00
    1    7   28      0.22      0.00
    2    7   28      2.05      0.00
    3    7   28      0.03      0.00
    4    7   28     -1.24      0.00
    5    7   28     -1.50      0.00
    6    7   28     -0.60      0.00
    7    7   28     -0.08      0.00
   -4    8   28      1.86      0.00
   -3    8   28     -1.45      0.00
   -2    8   28     -1.44      0.00
   -1    8   28     -1.06      0.00
    0    8   28     -4.36      0.00
    1    8   28      2.46      0.00
    2    8   28      2.27      0.00
    3    8   28     -3.86      0.00
    4    8   28      0.44      0.00
    5    8   28     -0.26      0.00
    6    8   28     -1.20      0.00
    7    8   28      0.95      0.00
    8    8   28      2.67      0.00
   -4    9   28     -2.23      0.00
   -3    9   28     -2.21      0.00
   -2    9   28      1.01      0.00
   -1    9   28      1.12      0.00
    0    9   28     -3.80      0.00
    1    9   28     -3.33      0.00
    2    9   28     -2.02      0.00
    3    9   28      0.51      0.00
    4    9   28     -1.18      0.00
    5    9   28     -1.28      0.00
    6    9   28     -0.28      0.00
    7    9   28     -2.36      0.00
    8    9   28      2.53      0.00
    9    9   28      3.90      0.00
   -5   10   28     -1.58      0.00
   -4   10   28     -6.10      0.00
   -3   10   28     -1.51      0.00
   -2   10   28      0.15      0.00
   -1   10   28     -1.44      0.00
    0   10   28     -0.98      0.00
    1   10   28     -2.13      0.00
    2   10   28     -2.67      0.00
    3   10   28      2.50      0.00
    4   10   28     -0.01      0.00
    5   10   28     -1.04      0.00
    6   10   28      0.44      0.00
    7   10   28      1.34      0.00
    8   10   28      2.40      0.00
   -5   11   28      3.45      0.00
   -4   11   28     -2.33      0.00
   -3   11   28      0.77      0.00
   -2   11   28     -0.09      0.00
   -1   11   28     -1.16      0.00
    0   11   28      0.48      0.00
    1   11   28     -1.69      0.00
    2   11   28     -1.56      0.00
    3   11   28     -1.02      0.00
    4   11   28     -2.95      0.00
    5   11   28      1.66      0.00
    6   11   28      1.26      0.00
    7   11   28      0.13      0.00
   -6   12   28     -0.98      0.00
   -5   12   28     -1.44      0.00
   -4   12   28     -0.29      0.00
   -3   12   28      1.41      0.00
   -2   12   28     -1.95      0.00
   -1   12   28      0.15      0.00
    0   12   28     -0.01      0.00
    1   12   28      0.71      0.00
    2   12   28      0.03      0.00
    3   12   28      2.09      0.00
    4   12   28     -1.65      0.00
    5   12   28      0.18      0.00
    6   12   28     -0.26      0.00
   -6   13   28     -1.36      0.00
   -5   13   28      1.15      0.00
   -4   13   28      0.73      0.00
   -3   13   28      2.04      0.00
   -2   13   28     -2.41      0.00
   -1   13   28      0.02      0.00
    0   13   28     -2.86      0.00
    1   13   28      2.69      0.00
    2   13   28     -0.61      0.00
    3   13   28      1.22      0.00
    4   13   28     -2.21      0.00
    5   13   28      3.78      0.00
   -7   14   28      1.39      0.00
   -6   14   28     -3.31      0.00
   -5   14   28     -2.09      0.00
   -4   14   28     -0.06      0.00
   -3   14   28     -0.36      0.00
   -2   14   28      1.28      0.00
   -1   14   28     -0.24      0.00
    0   14   28     -0.66      0.00
    1   14   28     -1.09      0.00
    2   14   28     -0.56      0.00
    3   14   28     -0.27      0.00
   -7   15   28     -0.57      0.00
   -6   15   28     -1.62      0.00
   -5   15   28     -0.67      0.00
   -4   15   28     -0.78      0.00
   -3   15   28     -0.81      0.00
   -2   15   28      0.33      0.00
   -1   15   28     -0.21      0.00
    0   15   28      0.32      0.00
    1   15   28     -3.04      0.00
    2   15   28      1.18      0.00
   -8   16   28     -0.95      0.00
   -7   16   28      0.64      0.00
   -6   16   28      3.40      0.00
   -5   16   28     -1.68      0.00
   -4   16   28      0.30      0.00
   -3   16   28      0.76      0.00
   -2   16   28     -0.56      0.00
   -1   16   28     -1.96      0.00
    0   16   28      1.48      0.00
   -8   17   28     -4.16      0.00
   -7   17   28     -0.90      0.00
   -6   17   28      2.01      0.00
   -5   17   28      1.20      0.00
   -4   17   28     -1.03      0.00
   -3   17   28      0.16      0.00
   -2   17   28      1.48      0.00
   -9   18   28      0.85      0.00
   -8   18   28     -1.01      0.00
   -7   18   28     -0.32      0.00
   -6   18   28     -0.50      0.00
   -5   18   28      3.01      0.00
    0    1   29      2.59      0.00
    0    2   29      4.58      0.00
    1    2   29      0.62      0.00
   -1    3   29      0.58      0.00
    0    3   29     -2.81      0.00
    1    3   29      3.70      0.00
    2    3   29     15.83      0.00
   -1    4   29     -0.62      0.00
    0    4   29     -3.68      0.00
    1    4   29      1.55      0.00
    2    4   29     -0.21      0.00
    3    4   29      3.15      0.00
   -2    5   29      5.48      0.00
   -1    5   29      1.06      0.00
    0    5   29     -1.98      0.00
    1    5   29     -1.42      0.00
    2    5   29     -0.67      0.00
    3    5   29     -1.08      0.00
    4    5   29      0.92      0.00
   -2    6   29      6.56      0.00
   -1    6   29      5.64      0.00
    0    6   29      4.72      0.00
    1    6   29     -1.54      0.00
    2    6   29      0.55      0.00
    3    6   29      2.55      0.00
    4    6   29      1.20      0.00
    5    6   29     -2.00      0.00
   -3    7   29     -3.74      0.00
   -2    7   29     -2.23      0.00
   -1    7   29     -5.18      0.00
    0    7   29     -0.93      0.00
    1    7   29      1.70      0.00
    2    7   29     -1.56      0.00
    3    7   29     -0.54      0.00
    4    7   29     -0.25      0.00
    5    7   29     -0.81      0.00
    6    7   29      2.10      0.00
   -3    8   29     -1.71      0.00
   -2    8   29     -2.11      0.00
   -1    8   29      3.27      0.00
    0    8   29      4.44      0.00
    1    8   29     -1.51      0.00
    2    8   29     -1.97      0.00
    3    8   29     -1.01      0.00
    4    8   29      0.33      0.00
    5    8   29      2.55      0.00
    6    8   29     -0.46      0.00
    7    8   29     -1.56      0.00
   -4    9   29      1.66      0.00
   -3    9   29     -1.92      0.00
   -2    9   29      1.02      0.00
   -1    9   29     -5.11      0.00
    0    9   29     -1.60      0.00
    1    9   29      1.02      0.00
    2    9   29      4.72      0.00
    3    9   29      0.24      0.00
    4    9   29      0.61      0.00
    5    9   29     -2.14      0.00
    6    9   29     -3.04      0.00
    7    9   29      1.37      0.00
    8    9   29      1.35      0.00
   -4   10   29      3.94      0.00
   -3   10   29      1.26      0.00
   -2   10   29      0.01      0.00
   -1   10   29     -1.96      0.00
    0   10   29     -2.72      0.00
    1   10   29      1.93      0.00
    2   10   29      1.03      0.00
    3   10   29      1.87      0.00
    4   10   29      2.69      0.00
    5   10   29     -0.82      0.00
    6   10   29     -1.93      0.00
    7   10   29      1.56      0.00
   -5   11   29     -0.83      0.00
   -4   11   29     -1.48      0.00
   -3   11   29      4.61      0.00
   -2   11   29     -1.52      0.00
   -1   11   29      5.01      0.00
    0   11   29     -2.26      0.00
    1   11   29      1.76      0.00
    2   11   29     -1.48      0.00
    3   11   29      0.39      0.00
    4   11   29      0.45      0.00
    5   11   29      0.56      0.00
    6   11   29      0.51      0.00
   -5   12   29     -0.34      0.00
   -4   12   29     -2.24      0.00
   -3   12   29     -0.04      0.00
   -2   12   29     -1.93      0.00
   -1   12   29      1.29      0.00
    0   12   29     -0.08      0.00
    1   12   29      0.07      0.00
    2   12   29      1.37      0.00
    3   12   29      3.17      0.00
    4   12   29      2.32      0.00
    5   12   29      2.59      0.00
   -6   13   29      0.20      0.00
   -5   13   29     -2.41      0.00
   -4   13   29     -2.18      0.00
   -3   13   29      0.35      0.00
   -2   13   29     -3.45      0.00
   -1   13   29      2.04      0.00
    0   13   29      1.93      0.00
    1   13   29     -0.12      0.00
    2   13   29      2.41      0.00
    3   13   29      1.52      0.00
    4   13   29      2.67      0.00
   -6   14   29      1.95      0.00
   -5   14   29     -1.32      0.00
   -4   14   29     -1.81      0.00
   -3   14   29      3.37      0.00
   -2   14   29     -1.62      0.00
   -1   14   29      0.87      0.00
    0   14   29      2.20      0.00
    1   14   29      0.67      0.00
    2   14   29     -0.93      0.00
   -7   15   29     -3.91      0.00
   -6   15   29     -1.00      0.00
   -5   15   29      0.74      0.00
   -4   15   29     -1.09      0.00
   -3   15   29      0.73      0.00
   -2   15   29      1.94      0.00
   -1   15   29      2.22      0.00
    0   15   29     -0.75      0.00
   -7   16   29      2.98      0.00
   -6   16   29     -3.75      0.00
   -5   16   29     -1.28      0.00
   -4   16   29      0.63      0.00
   -3   16   29      0.38      0.00
   -2   16   29      1.89      0.00
   -8   17   29      2.07      0.00
   -7   17   29     -0.35      0.00
   -6   17   29     -0.51      0.00
   -5   17   29      3.49      0.00
   -4   17   29      0.69      0.00
    0    0   30      7.06      0.00
    0    1   30      2.22      0.00
    1    1   30     -1.83      0.00
   -1    2   30     -0.97      0.00
    0    2   30     -0.18      0.00
    1    2   30      4.76      0.00
    2    2   30     -3.00      0.00
   -1    3   30     -2.11      0.00
    0    3   30     -0.24      0.00
    1    3   30      1.21      0.00
    2    3   30     -1.84      0.00
    3    3   30      4.50      0.00
   -2    4   30     -5.34      0.00
   -1    4   30     -2.39      0.00
    0    4   30     -0.67      0.00
    1    4   30      5.78      0.00
    2    4   30      5.12      0.00
    3    4   30     -2.93      0.00
    4    4   30     -0.92      0.00
   -2    5   30      4.65      0.00
   -1    5   30      3.00      0.00
    0    5   30     -3.34      0.00
    1    5   30     -1.31      0.00
    2    5   30      1.65      0.00
    3    5   30      1.10      0.00
    4    5   30      0.39      0.00
    5    5   30     -1.18      0.00
   -3    6   30      4.37      0.00
   -2    6   30      2.36      0.00
   -1    6   30      1.17      0.00
    0    6   30     -1.79      0.00
    1    6   30      3.57      0.00
    2    6   30     -1.62      0.00
    3    6   30      1.14      0.00
    4    6   30     -0.49      0.00
    5    6   30     -0.68      0.00
    6    6   30     -1.98      0.00
   -3    7   30     -3.59      0.00
   -2    7   30      7.51      0.00
   -1    7   30     -4.24      0.00
    0    7   30      4.42      0.00
    1    7   30     -0.53      0.00
    2    7   30      0.04      0.00
    3    7   30      0.71      0.00
    4    7   30      1.52      0.00
    5    7   30     -1.03      0.00
    6    7   30      1.45      0.00
    7    7   30      1.23      0.00
   -4    8   30      0.32      0.00
   -3    8   30      0.98      0.00
   -2    8   30      8.61      0.00
   -1    8   30     -0.75      0.00
    0    8   30     -0.32      0.00
    1    8   30      0.64      0.00
    2    8   30     -1.02      0.00
    3    8   30     -1.41      0.00
    4    8   30      1.11      0.00
    5    8   30      0.61      0.00
    6    8   30     -0.36      0.00
    7    8   30     -3.34      0.00
    8    8   30     -0.44      0.00
   -4    9   30     -1.18      0.00
   -3    9   30     -8.71      0.00
   -2    9   30     -5.60      0.00
   -1    9   30      0.50      0.00
    0    9   30      1.52      0.00
    1    9   30     -0.94      0.00
    2    9   30      0.73      0.00
    3    9   30     -0.26      0.00
    4    9   30     -2.76      0.00
    5    9   30      0.04      0.00
    6    9   30      0.56      0.00
    7    9   30      1.83      0.00
   -5   10   30      4.37      0.00
   -4   10   30      3.41      0.00
   -3   10   30     -2.64      0.00
   -2   10   30      1.53      0.00
   -1   10   30      5.15      0.00
    0   10   30     -0.04      0.00
    1   10   30     -2.87      0.00
    2   10   30     -3.78      0.00
    3   10   30     -1.10      0.00
    4   10   30     -0.27      0.00
    5   10   30      1.56      0.00
    6   10   30      0.44      0.00
   -5   11   30     -0.02      0.00
   -4   11   30      3.36      0.00
   -3   11   30      3.64      0.00
   -2   11   30     -0.01      0.00
   -1   11   30     -0.67      0.00
    0   11   30      0.88      0.00
    1   11   30      1.62      0.00
    2   11   30     -0.21      0.00
    3   11   30     -0.58      0.00
    4   11   30     -0.69      0.00
    5   11   30     -1.51      0.00
   -6   12   30      0.12      0.00
   -5   12   30     -1.16      0.00
   -4   12   30      4.14      0.00
   -3   12   30     -4.00      0.00
   -2   12   30      1.79      0.00
   -1   12   30      0.83      0.00
    0   12   30     -6.26      0.00
    1   12   30      1.92      0.00
    2   12   30      0.25      0.00
    3   12   30     -2.01      0.00
    4   12   30      3.16      0.00
   -6   13   30     -2.43      0.00
   -5   13   30      7.34      0.00
   -4   13   30     -3.05      0.00
   -3   13   30     -0.03      0.00
   -2   13   30     -0.64      0.00
   -1   13   30      3.28      0.00
    0   13   30     -0.21      0.00
    1   13   30     -2.25      0.00
    2   13   30     -1.57      0.00
   -7   14   30      0.87      0.00
   -6   14   30      0.77      0.00
   -5   14   30     -0.27      0.00
   -4   14   30      3.94      0.00
   -3   14   30      0.73      0.00
   -2   14   30     -0.03      0.00
   -1   14   30     -1.13      0.00
    0   14   30     -0.82      0.00
    1   14   30     -0.09      0.00
   -7   15   30     -2.61      0.00
   -6   15   30      1.41      0.00
   -5   15   30      0.41      0.00
   -4   15   30     12.12      0.00
   -3   15   30     -1.92      0.00
   -2   15   30     -1.81      0.00
   -1   15   30     -2.26      0.00
   -8   16   30     -4.60      0.00
   -7   16   30      2.20      0.00
   -6   16   30     -2.29      0.00
   -5   16   30     -3.66      0.00
   -4   16   30      4.14      0.00
    0    1   31      0.12      0.00
    0    2   31      5.28      0.00
    1    2   31      4.12      0.00
   -1    3   31      1.47      0.00
    0    3   31     -1.25      0.00
    1    3   31     -2.34      0.00
    2    3   31     -5.05      0.00
   -1    4   31     -3.80      0.00
    0    4   31      3.83      0.00
    1    4   31      1.82      0.00
    2    4   31     -0.37      0.00
    3    4   31      2.09      0.00
   -2    5   31     -3.26      0.00
   -1    5   31      5.24      0.00
    0    5   31      4.13      0.00
    1    5   31     -0.62      0.00
    2    5   31      1.75      0.00
    3    5   31      2.84      0.00
    4    5   31      0.45      0.00
   -2    6   31     -2.20      0.00
   -1    6   31     -5.15      0.00
    0    6   31     -1.51      0.00
    1    6   31     -2.01      0.00
    2    6   31      1.44      0.00
    3    6   31     -1.78      0.00
    4    6   31      0.21      0.00
    5    6   31      0.63      0.00
   -3    7   31      1.65      0.00
   -2    7   31     -6.22      0.00
   -1    7   31      6.76      0.00
    0    7   31      1.19      0.00
    1    7   31     -5.66      0.00
    2    7   31     -0.55      0.00
    3    7   31      3.33      0.00
    4    7   31     -0.39      0.00
    5    7   31      1.21      0.00
    6    7   31      1.73      0.00
   -3    8   31      4.92      0.00
   -2    8   31     -2.97      0.00
   -1    8   31     -8.20      0.00
    0    8   31     -0.38      0.00
    1    8   31     -1.75      0.00
    2    8   31     -2.05      0.00
    3    8   31      1.03      0.00
    4    8   31      2.35      0.00
    5    8   31      2.34      0.00
    6    8   31     -0.89      0.00
    7    8   31     -0.37      0.00
   -4    9   31      0.28      0.00
   -3    9   31     -6.27      0.00
   -2    9   31      5.32      0.00
   -1    9   31     -5.16      0.00
    0    9   31      2.41      0.00
    1    9   31      1.62      0.00
    2    9   31      1.59      0.00
    3    9   31      2.87      0.00
    4    9   31      1.77      0.00
    5    9   31     -2.07      0.00
    6    9   31      1.92      0.00
   -4   10   31     -2.02      0.00
   -3   10   31      1.64      0.00
   -2   10   31     -0.32      0.00
   -1   10   31     -1.06      0.00
    0   10   31     -1.44      0.00
    1   10   31      1.18      0.00
    2   10   31     -5.96      0.00
    3   10   31      4.25      0.00
    4   10   31     -0.92      0.00
    5   10   31      0.23      0.00
   -5   11   31      9.67      0.00
   -4   11   31     -2.68      0.00
   -3   11   31      3.67      0.00
   -2   11   31     -6.97      0.00
   -1   11   31      0.81      0.00
    0   11   31      1.87      0.00
    1   11   31      0.44      0.00
    2   11   31     -3.15      0.00
    3   11   31     -1.19      0.00
    4   11   31     -1.91      0.00
   -5   12   31     -2.29      0.00
   -4   12   31      3.55      0.00
   -3   12   31     -0.64      0.00
   -2   12   31      0.61      0.00
   -1   12   31     -1.58      0.00
    0   12   31     -2.37      0.00
    1   12   31      0.90      0.00
    2   12   31     -0.50      0.00
   -6   13   31      3.23      0.00
   -5   13   31     -8.30      0.00
   -4   13   31      2.29      0.00
   -3   13   31      4.33      0.00
   -2   13   31     10.54      0.00
   -1   13   31     -7.17      0.00
    0   13   31     -2.52      0.00
    1   13   31     -2.79      0.00
   -6   14   31      4.41      0.00
   -5   14   31     -2.43      0.00
   -4   14   31     -3.66      0.00
   -3   14   31     -1.63      0.00
   -2   14   31      2.01      0.00
   -1   14   31     -3.91      0.00
   -7   15   31     -4.61      0.00
   -6   15   31     -5.03      0.00
   -5   15   31      6.14      0.00
   -4   15   31     -2.98      0.00
    0    0   32      5.52      0.00
    0    1   32      0.77      0.00
    1    1   32      0.36      0.00
   -1    2   32      1.65      0.00
    0    2   32      3.37      0.00
    1    2   32     -1.73      0.00
    2    2   32      3.52      0.00
   -1    3   32     -4.28      0.00
    0    3   32     -1.17      0.00
    1    3   32     -3.93      0.00
    2    3   32      1.78      0.00
    3    3   32      3.11      0.00
   -2    4   32      0.29      0.00
   -1    4   32      2.84      0.00
    0    4   32     -1.32      0.00
    1    4   32     -3.58      0.00
    2    4   32     -0.93      0.00
    3    4   32     -1.44      0.00
    4    4   32     -3.07      0.00
   -2    5   32     -0.73      0.00
   -1    5   32     -3.27      0.00
    0    5   32     -1.10      0.00
    1    5   32      2.73      0.00
    2    5   32     -2.65      0.00
    3    5   32      1.44      0.00
    4    5   32      1.28      0.00
    5    5   32      2.19      0.00
   -3    6   32     -3.60      0.00
   -2    6   32     -1.94      0.00
   -1    6   32     -3.30      0.00
    0    6   32     -0.63      0.00
    1    6   32      0.89      0.00
    2    6   32      4.31      0.00
    3    6   32      2.93      0.00
    4    6   32     -1.61      0.00
    5    6   32     -2.07      0.00
    6    6   32      0.79      0.00
   -3    7   32     10.14      0.00
   -2    7   32      4.42      0.00
   -1    7   32     -9.23      0.00
    0    7   32      4.24      0.00
    1    7   32     -3.60      0.00
    2    7   32     -3.28      0.00
    3    7   32      0.11      0.00
    4    7   32      0.70      0.00
    5    7   32      0.21      0.00
    6    7   32     -3.39      0.00
    7    7   32      1.58      0.00
   -4    8   32     -8.35      0.00
   -3    8   32     -2.74      0.00
   -2    8   32      1.21      0.00
   -1    8   32     -1.99      0.00
    0    8   32     -0.69      0.00
    1    8   32     -2.96      0.00
    2    8   32      1.36      0.00
    3    8   32     -0.49      0.00
    4    8   32      2.08      0.00
    5    8   32      0.22      0.00
    6    8   32      1.48      0.00
   -4    9   32     12.37      0.00
   -3    9   32     18.98      0.00
   -2    9   32     -4.23      0.00
   -1    9   32     -2.25      0.00
    0    9   32     -0.94      0.00
    1    9   32     -1.30      0.00
    2    9   32     -1.19      0.00
    3    9   32     -0.59      0.00
    4    9   32      1.06      0.00
    5    9   32      1.68      0.00
   -4   10   32     -0.32      0.00
   -3   10   32      5.78      0.00
   -2   10   32    -14.61      0.00
   -1   10   32      4.56      0.00
    0   10   32    -10.55      0.00
    1   10   32     -0.59      0.00
    2   10   32      2.27      0.00
    3   10   32      0.58      0.00
    4   10   32     -0.99      0.00
   -5   11   32    -19.68      0.00
   -4   11   32     -4.01      0.00
   -3   11   32    -10.21      0.00
   -2   11   32    -17.11      0.00
   -1   11   32     -3.67      0.00
    0   11   32      5.16      0.00
    1   11   32      1.82      0.00
    2   11   32     -0.84      0.00
   -6   12   32     -3.45      0.00
   -5   12   32     -7.75      0.00
   -4   12   32    -10.41      0.00
   -3   12   32     -2.79      0.00
   -2   12   32      4.57      0.00
   -1   12   32     -6.45      0.00
    0   12   32      0.38      0.00
    1   12   32     -2.31      0.00
   -5   13   32     -2.08      0.00
   -4   13   32    -18.48      0.00
   -3   13   32     -0.71      0.00
   -2   13   32      2.81      0.00
   -1   13   32      1.34      0.00
   -7   14   32     -3.21      0.00
   -6   14   32     -3.45      0.00
   -5   14   32     -0.29      0.00
   -4   14   32      0.77      0.00
    0    1   33     -1.91      0.00
    0    2   33      5.35      0.00
    1    2   33      0.77      0.00
   -1    3   33      3.77      0.00
    0    3   33      2.58      0.00
    1    3   33      0.86      0.00
    2    3   33      1.48      0.00
   -1    4   33      2.83      0.00
    0    4   33      2.09      0.00
    1    4   33      2.92      0.00
    2    4   33     -1.17      0.00
    3    4   33      0.69      0.00
   -2    5   33      8.73      0.00
   -1    5   33      4.75      0.00
    0    5   33      4.54      0.00
    1    5   33     -1.19      0.00
    2    5   33     -4.62      0.00
    3    5   33      2.88      0.00
    4    5   33      0.98      0.00
   -2    6   33     -5.98      0.00
   -1    6   33     -5.01      0.00
    0    6   33      1.28      0.00
    1    6   33      0.38      0.00
    2    6   33      6.25      0.00
    3    6   33     -1.16      0.00
    4    6   33      0.80      0.00
    5    6   33      0.50      0.00
   -3    7   33     -6.00      0.00
   -2    7   33      1.04      0.00
   -1    7   33      1.49      0.00
    0    7   33     -7.95      0.00
    1    7   33      2.22      0.00
    2    7   33      3.88      0.00
    3    7   33      1.63      0.00
    4    7   33      1.37      0.00
    5    7   33      1.49      0.00
    6    7   33     -0.98      0.00
   -3    8   33      7.07      0.00
   -2    8   33     11.92      0.00
   -1    8   33     -0.27      0.00
    0    8   33     -6.52      0.00
    1    8   33      3.56      0.00
    2    8   33      3.20      0.00
    3    8   33      3.31      0.00
    4    8   33     -0.33      0.00
    5    8   33     -0.99      0.00
   -4    9   33      5.18      0.00
   -3    9   33     -7.19      0.00
   -2    9   33      2.89      0.00
   -1    9   33     -5.33      0.00
    0    9   33     -1.09      0.00
    1    9   33     -0.75      0.00
    2    9   33      2.77      0.00
    3    9   33     -4.71      0.00
   -4   10   33    -11.94      0.00
   -3   10   33     -6.28      0.00
   -2   10   33     -6.82      0.00
   -1   10   33     26.97      0.00
    0   10   33      0.41      0.00
    1   10   33     -7.13      0.00
    2   10   33      3.01      0.00
   -5   11   33      8.28      0.00
   -4   11   33     -3.68      0.00
   -3   11   33     -8.36      0.00
   -2   11   33    -10.46      0.00
   -1   11   33     -0.40      0.00
    0   11   33     -0.05      0.00
   -5   12   33    -11.69      0.00
   -4   12   33      6.50      0.00
   -3   12   33     -0.54      0.00
   -2   12   33     -0.97      0.00
   -6   13   33      0.06      0.00
   -5   13   33      1.49      0.00
    0    1   34    -22.60      0.00
    1    1   34     -4.28      0.00
   -1    2   34    -14.42      0.00
    0    2   34    -14.52      0.00
    1    2   34     -5.89      0.00
    2    2   34      5.91      0.00
   -1    3   34      8.47      0.00
    0    3   34      1.84      0.00
    1    3   34     -3.91      0.00
    2    3   34      0.20      0.00
    3    3   34     -0.05      0.00
   -2    4   34    -10.61      0.00
   -1    4   34     12.33      0.00
    0    4   34      4.24      0.00
    1    4   34     -0.15      0.00
    2    4   34     -2.35      0.00
    3    4   34      2.82      0.00
   -2    5   34     -6.24      0.00
   -1    5   34     10.17      0.00
    0    5   34      0.76      0.00
    1    5   34      3.48      0.00
    2    5   34      3.38      0.00
    3    5   34      1.36      0.00
    4    5   34      2.46      0.00
    5    5   34      0.01      0.00
   -2    6   34      8.34      0.00
   -1    6   34      8.18      0.00
    0    6   34      3.63      0.00
    1    6   34      4.51      0.00
    2    6   34      2.95      0.00
    3    6   34     -0.73      0.00
    4    6   34     -0.97      0.00
    5    6   34      3.42      0.00
   -3    7   34     -6.29      0.00
   -2    7   34     -1.40      0.00
   -1    7   34     -2.58      0.00
    0    7   34     10.02      0.00
    1    7   34      2.01      0.00
    2    7   34     -1.85      0.00
    3    7   34      3.65      0.00
    4    7   34      0.54      0.00
   -4    8   34     12.60      0.00
   -3    8   34      3.51      0.00
   -2    8   34      1.22      0.00
   -1    8   34      9.59      0.00
    0    8   34      9.83      0.00
    1    8   34     -1.44      0.00
    2    8   34     -0.41      0.00
    3    8   34     -3.64      0.00
   -4    9   34    -10.96      0.00
   -3    9   34      7.57      0.00
   -2    9   34      1.86      0.00
   -1    9   34     -0.81      0.00
    0    9   34     -2.90      0.00
    1    9   34     13.88      0.00
   -5   10   34      2.11      0.00
   -4   10   34     -3.49      0.00
   -3   10   34     -6.88      0.00
   -2   10   34     10.00      0.00
   -1   10   34     12.51      0.00
    0   10   34     -1.35      0.00
   -5   11   34      7.83      0.00
   -4   11   34      3.08      0.00
   -3   11   34      4.98      0.00
    0    2   35    -12.42      0.00
   -1    3   35     -3.94      0.00
    0    3   35     -6.06      0.00
    1    3   35     -0.31      0.00
    2    3   35     -2.52      0.00
   -1    4   35    -10.10      0.00
    0    4   35     -9.76      0.00
    1    4   35      0.63      0.00
    2    4   35      0.62      0.00
    3    4   35     -3.76      0.00
   -2    5   35     10.33      0.00
   -1    5   35      3.04      0.00
    0    5   35    -13.85      0.00
    1    5   35     -8.97      0.00
    2    5   35     -3.63      0.00
    3    5   35      2.47      0.00
    4    5   35      3.90      0.00
   -2    6   35     -9.61      0.00
   -1    6   35    -13.83      0.00
    0    6   35      5.64      0.00
    1    6   35      3.68      0.00
    2    6   35      8.00      0.00
    3    6   35     -1.86      0.00
   -3    7   35      7.60      0.00
   -2    7   35     -1.25      0.00
   -1    7   35     -5.63      0.00
    1    7   35     10.53      0.00
    2    7   35     -5.82      0.00
   -3    8   35     -1.90      0.00
   -2    8   35    -14.97      0.00
   -1    8   35      0.06      0.00
    0    8   35     -1.15      0.00
   -4    9   35     -5.26      0.00
   -3    9   35      4.91      0.00
   -2    9   35      1.02      0.00
   -5   27    0     -0.79      0.00
   -9   28    0     -0.76      0.00
    0    1    1    -25.65      0.00
    9   19    1     -0.34      0.00
    5   22    1      0.31      0.00
   -5   27    1     -2.33      0.00
   -9   28    1      0.71      0.00
    0    0    2   -161.86      0.00
    1    1    2     38.81      0.00
   -1    2    2    198.52      0.00
    0    2    2     -4.66      0.00
    9   19    2     -0.24      0.00
   -9   28    2     -1.00      0.00
    9   19    3     -1.25      0.00
    3   23    3      1.14      0.00
   -3   26    3     -0.60      0.00
   -9   28    3     -2.02      0.00
    0    0    4   -386.22      0.00
   10   18    4     -1.09      0.00
    6   21    4      0.59      0.00
    3   23    4      2.70      0.00
   -3   26    4      4.06      0.00
  -10   28    4     -1.27      0.00
   10   18    5      0.58      0.00
    6   21    5     -0.83      0.00
    3   23    5     -0.46      0.00
    1   24    5     -0.13      0.00
   -1   25    5     -2.47      0.00
   -3   26    5     -0.28      0.00
   -6   27    5     -1.53      0.00
  -10   28    5      0.21      0.00
   11   17    6      0.33      0.00
   10   18    6     -0.16      0.00
    6   21    6      0.34      0.00
    1   24    6      0.68      0.00
   -1   25    6      0.18      0.00
   -6   27    6      0.52      0.00
  -11   28    6      0.80      0.00
  -10   28    6     -1.05      0.00
   13   15    7     -1.14      0.00
   12   16    7     -0.37      0.00
   11   17    7      1.36      0.00
    7   20    7     -0.47      0.00
   -7   27    7      0.55      0.00
  -13   28    7      0.54      0.00
  -12   28    7      2.54      0.00
  -11   28    7      0.25      0.00
   14   14    8     -0.71      0.00
   13   15    8      0.44      0.00
    7   20    8      1.30      0.00
    4   22    8      1.94      0.00
   -4   26    8      0.62      0.00
   -7   27    8      1.65      0.00
  -14   28    8     -2.98      0.00
  -13   28    8      1.58      0.00
    8   19    9     -1.38      0.00
    2   23    9     -1.52      0.00
    0   24    9      0.28      0.00
   -2   25    9      1.34      0.00
   -8   27    9     -1.74      0.00
    9   18   10     -0.86      0.00
    5   21   10     -1.80      0.00
   -5   26   10     -1.96      0.00
   -9   27   10      0.87      0.00
   10   17   11     -0.78      0.00
    3   22   11     -2.02      0.00
   -3   25   11     -3.09      0.00
  -10   27   11     -3.11      0.00
   13   14   12     -2.70      0.00
   12   15   12      1.51      0.00
   11   16   12      0.51      0.00
    6   20   12      0.45      0.00
    1   23   12      2.54      0.00
   -1   24   12      0.20      0.00
   -6   26   12      1.12      0.00
  -13   27   12     -0.98      0.00
  -12   27   12     -1.49      0.00
  -11   27   12     -0.63      0.00
    7   19   13     -0.10      0.00
    4   21   13     -0.75      0.00
   -4   25   13      1.21      0.00
   -7   26   13      1.83      0.00
   13   13   14      0.56      0.00
   12   14   14      0.62      0.00
    8   18   14      0.42      0.00
    5   20   14     -0.65      0.00
    2   22   14     -1.55      0.00
    0   23   14      0.80      0.00
   -2   24   14      2.94      0.00
   -5   25   14     -1.17      0.00
   -8   26   14      1.03      0.00
   12   13   15      0.71      0.00
   11   14   15     -0.89      0.00
   12   14   15     -1.00      0.00
   11   15   15     -1.36      0.00
   10   16   15      0.47      0.00
    6   19   15     -2.03      0.00
    4   20   15     -1.24      0.00
    3   21   15      1.23      0.00
    1   22   15     -0.14      0.00
   -3   24   15     -1.00      0.00
   -6   25   15     -0.88      0.00
  -11   26   15      0.21      0.00
  -10   26   15     -1.61      0.00
   12   13   16     -1.15      0.00
   13   13   16     -0.65      0.00
   10   15   16     -1.33      0.00
    9   16   16     -1.27      0.00
    8   17   16     -2.06      0.00
    7   18   16     -0.85      0.00
    5   19   16      0.91      0.00
    4   20   16     -0.64      0.00
    2   21   16      2.13      0.00
    1   22   16     -1.11      0.00
   -1   23   16     -0.80      0.00
   -7   25   16     -0.79      0.00
  -13   26   16     -1.53      0.00
   12   13   17      2.52      0.00
   11   14   17     -2.09      0.00
   10   15   17     -0.62      0.00
    8   16   17     -0.27      0.00
    9   16   17      2.42      0.00
    7   17   17     -0.67      0.00
    8   17   17     -1.53      0.00
    6   18   17     -0.14      0.00
    5   19   17      1.86      0.00
    3   20   17     -2.74      0.00
    2   21   17     -0.49      0.00
    0   22   17      1.08      0.00
   -2   23   17      1.35      0.00
   -8   25   17     -0.96      0.00
   11   13   18     -2.13      0.00
   12   13   18      0.65      0.00
   10   14   18     -1.85      0.00
   11   14   18     -0.97      0.00
    9   15   18     -0.71      0.00
   10   15   18      0.09      0.00
    8   16   18     -0.83      0.00
    7   17   18      3.84      0.00
    6   18   18     -1.43      0.00
    4   19   18      1.55      0.00
    3   20   18     -0.97      0.00
   -3   23   18     -2.00      0.00
   -6   24   18     -0.10      0.00
  -12   25   18     -0.09      0.00
  -11   25   18     -1.41      0.00
  -10   25   18     -0.87      0.00
   11   13   19      0.30      0.00
   10   14   19     -1.57      0.00
    9   15   19     -2.42      0.00
    8   16   19     -3.05      0.00
    6   17   19      0.30      0.00
    7   17   19     -0.16      0.00
    5   18   19     -2.37      0.00
    4   19   19      0.13      0.00
   -6   23   19      2.40      0.00
   -4   23   19      1.59      0.00
   -7   24   19      1.37      0.00
   12   12   20     -1.87      0.00
   11   13   20     -3.47      0.00
   10   14   20      0.00      0.00
    9   15   20      2.01      0.00
    7   16   20      1.19      0.00
    6   17   20      2.26      0.00
    5   18   20      0.17      0.00
    3   19   20      0.74      0.00
    0   21   20      0.76      0.00
  -11   22   20      4.72      0.00
   -5   23   20      1.31      0.00
  -11   24   20     -2.95      0.00
  -10   24   20     -1.26      0.00
   -9   24   20     -1.75      0.00
   11   12   21      1.36      0.00
   10   13   21     -0.57      0.00
    9   14   21      1.62      0.00
    8   15   21      0.69      0.00
    7   16   21     -0.08      0.00
    1   20   21     -0.58      0.00
   -1   21   21     -1.95      0.00
   -7   23   21     -1.51      0.00
   11   12   22     -2.13      0.00
   10   13   22      1.05      0.00
    9   14   22      2.15      0.00
    5   17   22     -0.61      0.00
    2   19   22      1.27      0.00
    0   20   22     -2.87      0.00
   -2   21   22      2.17      0.00
   -5   22   22     -0.26      0.00
  -11   23   22     -3.86      0.00
  -10   23   22     -1.23      0.00
   -9   23   22     -0.01      0.00
   10   12   23     -3.23      0.00
    9   13   23      0.24      0.00
    8   14   23     -1.03      0.00
    7   15   23      0.74      0.00
    3   18   23      1.46      0.00
    1   19   23     -1.36      0.00
   -1   20   23     -2.44      0.00
   -3   21   23      0.91      0.00
   -7   22   23     -0.33      0.00
   11   11   24      2.82      0.00
   10   12   24     -0.94      0.00
    5   16   24      0.59      0.00
    2   18   24      1.00      0.00
    0   19   24      3.17      0.00
   -2   20   24      1.94      0.00
   -5   21   24     -3.25      0.00
  -11   22   24     -1.94      0.00
  -10   22   24     -3.20      0.00
   10   11   25      0.01      0.00
    9   12   25     -0.51      0.00
    8   13   25      1.90      0.00
    7   14   25     -1.20      0.00
    4   16   25     -0.19      0.00
    1   18   25     -0.76      0.00
   -1   19   25     -1.53      0.00
   -4   20   25     -2.79      0.00
  -10   21   25     -2.29      0.00
   -9   21   25     -0.84      0.00
   -8   21   25      1.23      0.00
   -7   21   25     -0.16      0.00
    6   14   26     -2.72      0.00
    3   16   26     -2.68      0.00
   -3   19   26     -1.66      0.00
   -7   20   26      1.30      0.00
   -6   20   26     -2.07      0.00
    5   14   27     -0.28      0.00
    2   16   27     -1.06      0.00
    0   17   27      1.75      0.00
   -2   18   27      0.22      0.00
   -5   19   27     -0.12      0.00
    9   10   28      3.05      0.00
    8   11   28      2.27      0.00
    4   14   28      1.73      0.00
    1   16   28     -1.05      0.00
   -1   17   28     -2.68      0.00
   -4   18   28      1.21      0.00
   -9   19   28      0.82      0.00
   -8   19   28      2.91      0.00
    8   10   29     -1.11      0.00
    7   11   29     -1.65      0.00
    3   14   29     -0.28      0.00
    1   15   29     -2.94      0.00
   -1   16   29      0.14      0.00
   -3   17   29     -1.85      0.00
   -8   18   29     -1.56      0.00
   -7   18   29     -0.80      0.00
    8    9   30      0.31      0.00
    7   10   30      1.83      0.00
    6   11   30     -0.36      0.00
    3   13   30     -0.93      0.00
   -3   16   30      2.51      0.00
   -8   17   30      3.78      0.00
   -7   17   30      1.41      0.00
   -6   17   30     -3.04      0.00
    7    9   31     -0.86      0.00
    6   10   31     -1.23      0.00
    3   12   31     -7.10      0.00
    0   14   31     -1.58      0.00
   -3   15   31     -0.81      0.00
   -7   16   31     -0.46      0.00
   -6   16   31      2.89      0.00
    7    8   32      4.08      0.00
   -5   10   32     -3.34      0.00
    3   11   32      0.40      0.00
   -6   13   32      0.05      0.00
    0   13   32      2.01      0.00
   -3   14   32     -2.46      0.00
   -7   15   32      2.13      0.00
    4    9   33     -6.38      0.00
    3   10   33     -2.84      0.00
    1   11   33      6.04      0.00
   -1   12   33     -6.35      0.00
   -4   13   33      7.79      0.00
   -3   13   33     -5.73      0.00
    0    0   34    -32.18      0.00
    4    4   34     11.24      0.00
   -3    6   34    -20.65      0.00
    6    6   34      5.50      0.00
    5    7   34      0.22      0.00
    2    9   34      0.43      0.00
    1   10   34      4.35      0.00
   -2   11   34     17.34      0.00
   -1   11   34     -4.53      0.00
   -6   12   34      6.57      0.00
   -5   12   34     -3.51      0.00
    0    1   35     -8.88      0.00
    1    2   35     -6.60      0.00
    4    6   35      0.67      0.00
    0    7   35      8.84      0.00
    3    7   35     -1.14      0.00
    1    8   35     -0.88      0.00
   -1    9   35      2.98      0.00
   -4   10   35     -3.38      0.00
   -3   10   35      1.76      0.00
    0    0   36     15.72      0.00
    0    1   36      7.06      0.00
    1    1   36     -1.49      0.00
   -1    2   36     -1.86      0.00
    0    2   36      3.93      0.00
    1    2   36     -7.36      0.00
    2    2   36     -3.49      0.00
   -1    3   36    -12.49      0.00
    0    3   36     -2.53      0.00
    1    3   36      1.89      0.00
    2    3   36      0.50      0.00
    3    3   36     -2.75      0.00
   -2    4   36      1.59      0.00
   -1    4   36     -2.65      0.00
    0    4   36     -8.59      0.00
    1    4   36      2.41      0.00
    2    4   36      0.62      0.00
    3    4   36      0.77      0.00
    4    4   36     -7.27      0.00
   -2    5   36      7.53      0.00
   -1    5   36     -6.09      0.00
    0    5   36      9.04      0.00
    1    5   36      6.78      0.00
    2    5   36     -2.85      0.00
    3    5   36     -8.22      0.00
   -3    6   36     13.34      0.00
   -2    6   36     15.60      0.00
   -1    6   36     -6.49      0.00
    0    6   36      0.25      0.00
    1    6   36     -4.64      0.00
   -3    7   36      5.29      0.00
   -2    7   36     13.70      0.00
   -1    7   36     15.49      0.00
    0    7   36     -9.76      0.00
   -4    8   36     -3.40      0.00
   -3    8   36      6.73      0.00
    0    0    0      0.00      0.00
# SQUEEZE RESULTS (Version = 141217)
# Note: Data are Listed for all Voids in the P1 Unit Cell
# i.e. Centre of Gravity, Solvent Accessible Volume,
# Recovered number of Electrons in the Void and
# Details about the Squeezed Material
loop_
  _platon_squeeze_void_nr
  _platon_squeeze_void_average_x
  _platon_squeeze_void_average_y
  _platon_squeeze_void_average_z
  _platon_squeeze_void_volume
  _platon_squeeze_void_count_electrons
  _platon_squeeze_void_content
   1 -0.011 -0.007 -0.001     10148      1676 ' '
# Missing Reflections Below sin(th)/lambda = 0.25
loop_
  _platon_missing_refln_index_h
  _platon_missing_refln_index_k
  _platon_missing_refln_index_l
  _platon_missing_refln_theta
    0    1    1     2.655
    0    0    2     2.936
    1    1    2     4.831
   -1    2    2     4.831
    0    2    2     5.315
    0    0    4     5.879
_platon_squeeze_void_probe_radius                  1.20
_platon_squeeze_details
)
TITL a         P -3 1 c     R = 0.12
CELL   23.0639   23.0639   30.1054     90.00     90.00    120.00
SPGR P-31c
# Solvent Accessible Volume =     10153
# Electrons Found in S.A.V. =      1646
# Note: Atoms in Void are Labelled as Cxxx and Qxxx for all Others
C101 0.178 0.820 0.150 !       5.05 eA-3
C102 1.000 1.000 0.000 !       2.59 eA-3
C103 1.000 1.003 0.336 !       2.41 eA-3
C104 0.187 0.374 0.393 !       2.12 eA-3
C105 0.776 0.887 0.365 !       1.58 eA-3
C106 0.133 0.268 0.346 !       1.29 eA-3
C107 0.921 0.841 0.870 !       1.23 eA-3
Q108 0.500 0.639 0.565 !       1.22 eA-3
Q109 0.576 0.658 0.487 !       1.19 eA-3
C110 0.232 0.392 0.164 !       1.11 eA-3
C111 0.125 0.758 0.157 !       1.10 eA-3
C112 0.669 0.338 0.890 !       1.05 eA-3
Q113 0.439 0.438 0.000 !       1.04 eA-3
Q114 0.143 0.650 0.560 !       1.02 eA-3
C115 0.227 0.389 0.328 !       1.01 eA-3
C116 0.850 0.619 0.837 !       0.97 eA-3
Q117 0.441 0.219 0.750 !       0.95 eA-3
C118 0.095 0.055 0.367 !       0.92 eA-3
Q119 0.916 0.343 0.514 !       0.91 eA-3
Q120 0.490 0.517 0.562 !       0.88 eA-3
C121 0.851 0.910 0.853 !       0.86 eA-3
C122 0.055 0.464 0.250 !       0.85 eA-3
C123 0.024 0.150 0.366 !       0.83 eA-3
C124 0.857 0.944 0.865 !       0.83 eA-3
C125 0.156 0.094 0.344 !       0.82 eA-3
C126 0.063 0.922 0.632 !       0.82 eA-3
Q127 0.229 0.919 0.476 !       0.81 eA-3
Q128 0.516 0.477 0.533 !       0.81 eA-3
C129 0.139 0.151 0.354 !       0.79 eA-3
Q130 0.527 0.778 0.241 !       0.74 eA-3
Q131 0.710 0.070 0.008 !       0.73 eA-3
Q132 0.766 0.082 0.978 !       0.72 eA-3
C133 0.375 0.431 0.266 !       0.71 eA-3
Q134 0.594 0.522 0.030 !       0.71 eA-3
Q135 0.418 0.485 0.535 !       0.71 eA-3
Q136 0.726 0.999 0.436 !       0.71 eA-3
C137 0.040 0.961 0.249 !       0.70 eA-3
Q138 0.438 0.719 0.227 !       0.70 eA-3
Q139 0.726 0.724 0.437 !       0.69 eA-3
Q140 0.359 0.278 0.494 !       0.68 eA-3
C141 0.057 0.107 0.392 !       0.67 eA-3
Q142 0.975 0.302 0.042 !       0.67 eA-3
Q143 0.671 0.688 0.478 !       0.67 eA-3
C144 0.656 0.983 0.844 !       0.66 eA-3
C145 0.015 0.344 0.189 !       0.66 eA-3
Q146 0.485 0.623 0.437 !       0.66 eA-3
Q147 0.796 0.763 0.461 !       0.65 eA-3
C148 0.623 0.054 0.743 !       0.65 eA-3
C149 0.765 0.205 0.484 !       0.64 eA-3
C150 0.211 0.760 0.983 !       0.64 eA-3
C151 0.953 0.604 0.799 !       0.64 eA-3
Q152 0.010 0.388 0.561 !       0.63 eA-3
C153 0.493 0.750 0.032 !       0.63 eA-3
C154 0.661 0.984 0.337 !       0.63 eA-3
Q155 0.258 0.767 0.045 !       0.63 eA-3
C156 0.486 0.258 0.983 !       0.62 eA-3
C157 0.475 0.198 0.039 !       0.62 eA-3
C158 0.289 0.707 0.430 !       0.61 eA-3
C159 0.812 0.881 0.601 !       0.61 eA-3
Q160 0.286 0.711 0.253 !       0.61 eA-3
C161 0.531 0.063 0.748 !       0.61 eA-3
C162 0.311 0.611 0.079 !       0.61 eA-3
C163 0.533 0.885 0.896 !       0.59 eA-3
C164 0.094 0.165 0.688 !       0.59 eA-3
C165 0.875 0.081 0.172 !       0.59 eA-3
C166 0.813 0.813 0.164 !       0.59 eA-3
C167 0.555 0.799 0.006 !       0.59 eA-3
C168 0.694 0.665 0.188 !       0.59 eA-3
C169 0.022 0.003 0.204 !       0.59 eA-3
C170 0.978 0.997 0.796 !       0.59 eA-3
Q171 0.408 0.028 0.594 !       0.59 eA-3
C172 0.509 0.269 0.561 !       0.58 eA-3
C173 0.883 0.816 0.306 !       0.58 eA-3
Q174 0.491 0.336 0.633 !       0.57 eA-3
C175 0.983 0.050 0.400 !       0.57 eA-3
Q176 0.798 0.034 0.452 !       0.57 eA-3
C177 0.915 0.033 0.399 !       0.56 eA-3
C178 0.836 0.911 0.907 !       0.56 eA-3
C179 0.968 0.942 0.781 !       0.56 eA-3
C180 0.930 0.851 0.218 !       0.55 eA-3
C181 0.859 0.037 0.173 !       0.55 eA-3
C182 0.939 0.088 0.250 !       0.55 eA-3
Q183 0.499 0.737 0.079 !       0.55 eA-3
C184 0.972 0.978 0.807 !       0.55 eA-3
C185 0.172 0.121 0.611 !       0.55 eA-3
C186 0.766 0.185 0.446 !       0.55 eA-3
C187 0.672 0.945 0.336 !       0.54 eA-3
Q188 0.795 0.777 0.977 !       0.54 eA-3
Q189 0.336 0.308 0.041 !       0.54 eA-3
C190 0.719 0.287 0.907 !       0.54 eA-3
C191 0.971 0.031 0.312 !       0.53 eA-3
C192 1.000 1.005 0.734 !       0.53 eA-3
Q193 0.815 0.073 0.008 !       0.53 eA-3
Q194 0.562 0.129 0.736 !       0.53 eA-3
C195 0.915 0.629 0.352 !       0.53 eA-3
C196 0.194 0.380 0.954 !       0.52 eA-3
C197 0.228 0.487 0.499 !       0.52 eA-3
C198 0.820 0.788 0.335 !       0.52 eA-3
C199 0.608 0.673 0.240 !       0.52 eA-3
)
;
_shelx_fab_checksum              90132
loop_
_space_group_symop_operation_xyz
'x, y, z'
'-y, x-y, z'
'-x+y, -x, z'
'-y, -x, -z+1/2'
'-x+y, y, -z+1/2'
'x, x-y, -z+1/2'
'-x, -y, -z'
'y, -x+y, -z'
'x-y, x, -z'
'y, x, z-1/2'
'x-y, -y, z-1/2'
'-x, -x+y, z-1/2'
loop_
_atom_site_label
_atom_site_type_symbol
_atom_site_fract_x
_atom_site_fract_y
_atom_site_fract_z
_atom_site_U_iso_or_equiv
_atom_site_adp_type
_atom_site_occupancy
_atom_site_site_symmetry_order
_atom_site_calc_flag
_atom_site_refinement_flags_posn
_atom_site_refinement_flags_adp
_atom_site_refinement_flags_occupancy
_atom_site_disorder_assembly
_atom_site_disorder_group
C1 C 0.6724(3) 0.9982(4) 0.5266(2) 0.087(3) Uani 0.5 1 d DG U P A -1
H1 H 0.652880 0.950918 0.534664 0.105 Uiso 0.5 1 calc R U P A -1
C2 C 0.7455(4) 1.0324(5) 0.5454(3) 0.094(3) Uani 0.5 1 d G U P A -1
H2A H 0.743872 1.028411 0.577495 0.113 Uiso 0.5 1 calc R U P A -1
H2B H 0.768593 1.079714 0.538025 0.113 Uiso 0.5 1 calc R U P A -1
C3 C 0.7855(4) 0.9998(5) 0.5259(2) 0.105(3) Uani 0.5 1 d G U P A -1
H3A H 0.765760 0.954054 0.536493 0.126 Uiso 0.5 1 calc R U P A -1
H3B H 0.831378 1.024273 0.536444 0.126 Uiso 0.5 1 calc R U P A -1
C4 C 0.7851(4) 1.0000(5) 0.4739(3) 0.103(3) Uani 0.5 1 d G U P A -1
H4A H 0.809976 1.045797 0.463280 0.124 Uiso 0.5 1 calc R U P A -1
H4B H 0.807277 0.976450 0.462986 0.124 Uiso 0.5 1 calc R U P A -1
C5 C 0.7120(4) 0.9658(5) 0.4551(3) 0.111(5) Uani 0.5 1 d G U P A -1
H5A H 0.688965 0.918486 0.462429 0.133 Uiso 0.5 1 calc R U P A -1
H5B H 0.713686 0.969789 0.422959 0.133 Uiso 0.5 1 calc R U P A -1
C6 C 0.6720(3) 0.9984(4) 0.4745(3) 0.090(3) Uani 0.5 1 d DG U P A -1
H6 H 0.684482 1.042052 0.461507 0.108 Uiso 0.5 1 calc R U P A -1
C7 C 0.3450(4) 1.0341(5) 0.5100(3) 0.119(4) Uani 0.5 1 d DG U P A -1
H7 H 0.372389 1.066034 0.486859 0.142 Uiso 0.5 1 calc R U P A -1
C8 C 0.2983(5) 1.0530(6) 0.5354(3) 0.121(6) Uani 0.5 1 d G U P A -1
H8A H 0.322721 1.100373 0.542470 0.145 Uiso 0.5 1 calc R U P A -1
H8B H 0.284289 1.028252 0.563062 0.145 Uiso 0.5 1 calc R U P A -1
C9 C 0.2355(5) 1.0373(5) 0.5075(4) 0.122(4) Uani 0.5 1 d G U P A -1
H9A H 0.205771 1.046502 0.525110 0.146 Uiso 0.5 1 calc R U P A -1
H9B H 0.249050 1.066326 0.481632 0.146 Uiso 0.5 1 calc R U P A -1
C10 C 0.1973(5) 0.9631(5) 0.4921(4) 0.134(5) Uani 0.5 1 d G U P A -1
H10A H 0.178711 0.934256 0.517810 0.161 Uiso 0.5 1 calc R U P A -1
H10B H 0.160470 0.955926 0.472933 0.161 Uiso 0.5 1 calc R U P A -1
C11 C 0.2441(5) 0.9442(6) 0.4667(3) 0.122(5) Uani 0.5 1 d G U P A -1
H11A H 0.258042 0.968929 0.438992 0.146 Uiso 0.5 1 calc R U P A -1
H11B H 0.219610 0.896808 0.459584 0.146 Uiso 0.5 1 calc R U P A -1
C12 C 0.3069(5) 0.9599(5) 0.4946(3) 0.112(4) Uani 0.5 1 d DG U P A -1
H12 H 0.290125 0.932946 0.521691 0.134 Uiso 0.5 1 calc R U P A -1
In1 In 0.43562(2) 0.71781(2) 0.250000 0.04272(14) Uani 1 2 d S T P . .
C13 C 0.4016(2) 0.8030(2) 0.31648(14) 0.0667(10) Uani 1 1 d . U . . .
O3 O 0.34452(15) 0.78659(15) 0.30160(9) 0.0729(8) Uani 1 1 d . . . . .
O4 O 0.44198(14) 0.78640(15) 0.30174(9) 0.0733(8) Uani 1 1 d . . . . .
O5 O 0.333333 0.666667 0.250000 0.0459(11) Uani 1 6 d S T P . .
O6 O 0.54999(18) 0.77499(9) 0.250000 0.0697(10) Uani 1 2 d S T P . .
Cu1 Cu 0.42070(11) 0.96532(16) 0.51691(8) 0.1447(10) Uani 0.5 1 d . U P A -1
Cu2 Cu 0.54493(11) 0.96646(16) 0.51646(8) 0.1473(10) Uani 0.5 1 d . U P A -1
O1 O 0.4643(4) 0.9291(4) 0.4833(3) 0.106(2) Uani 0.5 1 d . U P A -1
O2 O 0.5019(4) 1.0037(4) 0.5492(3) 0.110(2) Uani 0.5 1 d . U P A -1
N1 N 0.3522(5) 0.9418(6) 0.4747(3) 0.096(3) Uani 0.5 1 d D U P A -1
N2 N 0.5941(4) 0.9469(5) 0.4737(4) 0.098(3) Uani 0.5 1 d D U P A -1
N3 N 0.3860(5) 1.0174(5) 0.5448(3) 0.097(3) Uani 0.5 1 d D U P A -1
N4 N 0.6281(4) 1.0181(5) 0.5457(3) 0.090(2) Uani 0.5 1 d D U P A -1
C14 C 0.4160(6) 0.8348(6) 0.3617(4) 0.066(3) Uani 0.5 1 d . U P A -1
C15 C 0.3755(5) 0.8547(5) 0.3816(4) 0.071(3) Uani 0.5 1 d . U P A -1
H15 H 0.335354 0.844404 0.367809 0.085 Uiso 0.5 1 calc R U P A -1
C16 C 0.3917(5) 0.8900(6) 0.4218(4) 0.080(2) Uani 0.5 1 d . U P A -1
C17 C 0.4521(5) 0.9046(6) 0.4424(4) 0.085(3) Uani 0.5 1 d . U P A -1
C18 C 0.4978(5) 0.8900(6) 0.4218(4) 0.082(3) Uani 0.5 1 d . U P A -1
C19 C 0.4777(6) 0.8547(5) 0.3819(4) 0.072(3) Uani 0.5 1 d . U P A -1
H19 H 0.506963 0.843843 0.367990 0.087 Uiso 0.5 1 calc R U P A -1
C20 C 0.3432(6) 0.9044(7) 0.4411(4) 0.097(3) Uani 0.5 1 d . U P A -1
H20 H 0.301181 0.884423 0.427824 0.116 Uiso 0.5 1 calc R U P A -1
C21 C 0.5617(6) 0.9068(6) 0.4401(4) 0.092(3) Uani 0.5 1 d . U P A -1
H21 H 0.583267 0.886560 0.426543 0.111 Uiso 0.5 1 calc R U P A -1
C22 C 0.6395(5) 1.0582(5) 0.5778(3) 0.077(2) Uani 0.5 1 d . U P A -1
H22 H 0.682253 1.079183 0.590038 0.093 Uiso 0.5 1 calc R U P A -1
C23 C 0.4178(5) 1.0562(5) 0.5786(3) 0.078(2) Uani 0.5 1 d . U P A -1
H23 H 0.395536 1.075168 0.592889 0.093 Uiso 0.5 1 calc R U P A -1
C24 C 0.5903(5) 1.0741(5) 0.5972(3) 0.077(2) Uani 0.5 1 d . U P A -1
C25 C 0.5248(5) 1.0496(5) 0.5808(3) 0.083(2) Uani 0.5 1 d . U P A -1
C26 C 0.4837(5) 1.0740(5) 0.5971(3) 0.075(2) Uani 0.5 1 d . U P A -1
C27 C 0.5075(5) 1.1191(5) 0.6318(3) 0.065(2) Uani 0.5 1 d . U P A -1
H27 H 0.480324 1.134030 0.644058 0.078 Uiso 0.5 1 calc R U P A -1
C28 C 0.5703(5) 1.1422(5) 0.6483(3) 0.056(2) Uani 0.5 1 d . U P A -1
C29 C 0.6106(5) 1.1193(5) 0.6318(3) 0.065(2) Uani 0.5 1 d . U P A -1
H29 H 0.652734 1.134714 0.644192 0.077 Uiso 0.5 1 calc R U P A -1
loop_
_atom_site_aniso_label
_atom_site_aniso_U_11
_atom_site_aniso_U_22
_atom_site_aniso_U_33
_atom_site_aniso_U_23
_atom_site_aniso_U_13
_atom_site_aniso_U_12
C1 0.085(4) 0.095(4) 0.086(4) -0.028(4) -0.003(3) 0.048(4)
C2 0.089(5) 0.105(5) 0.096(5) -0.019(4) -0.010(4) 0.054(4)
C3 0.097(5) 0.114(5) 0.110(5) -0.015(4) -0.002(4) 0.058(4)
C4 0.097(5) 0.112(5) 0.104(5) -0.018(4) -0.003(4) 0.055(4)
C5 0.101(6) 0.124(6) 0.113(6) -0.027(4) -0.001(4) 0.060(4)
C6 0.083(4) 0.093(5) 0.095(5) -0.022(4) -0.010(4) 0.045(4)
C7 0.115(6) 0.130(6) 0.117(6) -0.010(4) -0.014(4) 0.065(4)
C8 0.113(7) 0.129(7) 0.132(7) -0.018(4) -0.004(4) 0.069(5)
C9 0.120(6) 0.123(6) 0.126(6) -0.017(4) -0.004(4) 0.063(4)
C10 0.132(6) 0.134(6) 0.139(7) -0.015(4) 0.000(4) 0.069(5)
C11 0.117(6) 0.125(7) 0.125(7) -0.010(4) -0.005(4) 0.062(5)
C12 0.102(5) 0.124(6) 0.108(6) -0.024(4) 0.007(4) 0.056(4)
In1 0.05167(19) 0.05078(17) 0.0260(2) -0.00001(9) 0.000 0.02584(10)
C13 0.075(2) 0.064(2) 0.056(2) -0.0192(16) -0.0088(17) 0.0312(18)
O3 0.0802(18) 0.0829(18) 0.0591(17) -0.0343(14) -0.0220(14) 0.0435(15)
O4 0.0745(17) 0.0813(18) 0.0630(17) -0.0345(14) -0.0131(13) 0.0383(15)
O5 0.0495(17) 0.0495(17) 0.039(3) 0.000 0.000 0.0247(8)
O6 0.058(2) 0.0692(17) 0.078(3) -0.0001(17) 0.000 0.0288(10)
Cu1 0.1116(13) 0.221(2) 0.1357(17) -0.1360(17) -0.0664(12) 0.1091(15)
Cu2 0.1098(13) 0.229(2) 0.1387(17) -0.1431(18) -0.0691(12) 0.1115(15)
O1 0.096(4) 0.135(4) 0.096(4) -0.060(3) -0.024(3) 0.065(3)
O2 0.097(4) 0.136(4) 0.106(4) -0.075(3) -0.026(3) 0.064(3)
N1 0.089(4) 0.111(4) 0.092(4) -0.033(4) -0.001(3) 0.053(3)
N2 0.086(4) 0.112(5) 0.099(5) -0.032(4) -0.011(3) 0.051(4)
N3 0.093(4) 0.110(5) 0.092(5) -0.030(4) -0.006(3) 0.053(4)
N4 0.085(4) 0.104(4) 0.088(4) -0.033(3) -0.015(3) 0.052(3)
C14 0.071(5) 0.063(4) 0.054(4) -0.010(3) -0.003(3) 0.026(3)
C15 0.072(4) 0.073(4) 0.064(4) -0.015(3) -0.005(3) 0.033(3)
C16 0.079(4) 0.083(4) 0.075(4) -0.026(3) -0.010(3) 0.039(3)
C17 0.084(4) 0.094(4) 0.078(4) -0.035(4) -0.010(3) 0.044(3)
C18 0.080(4) 0.087(4) 0.078(4) -0.028(4) -0.005(3) 0.040(3)
C19 0.074(4) 0.074(4) 0.066(4) -0.017(3) 0.000(3) 0.036(3)
C20 0.090(5) 0.105(5) 0.092(5) -0.024(4) -0.006(4) 0.047(4)
C21 0.092(5) 0.100(5) 0.089(5) -0.027(4) -0.008(4) 0.051(4)
C22 0.075(4) 0.085(4) 0.076(4) -0.034(3) -0.011(3) 0.043(3)
C23 0.074(4) 0.087(4) 0.074(4) -0.033(3) -0.008(3) 0.041(3)
C24 0.077(4) 0.084(4) 0.071(4) -0.027(3) -0.012(3) 0.041(3)
C25 0.079(4) 0.094(4) 0.076(4) -0.035(3) -0.011(3) 0.044(3)
C26 0.072(4) 0.084(4) 0.069(4) -0.028(3) -0.007(3) 0.039(3)
C27 0.067(4) 0.068(4) 0.056(4) -0.019(3) -0.003(3) 0.030(3)
C28 0.059(4) 0.055(4) 0.045(4) -0.016(3) -0.003(3) 0.022(3)
C29 0.066(4) 0.066(4) 0.055(4) -0.018(3) -0.007(3) 0.028(3)
loop_
_atom_type_symbol
_atom_type_description
_atom_type_scat_dispersion_real
_atom_type_scat_dispersion_imag
_atom_type_scat_source
C C 0.0181 0.0091 'International Tables Vol C Tables 4.2.6.8 and 6.1.1.4'
H H 0.0000 0.0000 'International Tables Vol C Tables 4.2.6.8 and 6.1.1.4'
N N 0.0311 0.0180 'International Tables Vol C Tables 4.2.6.8 and 6.1.1.4'
O O 0.0492 0.0322 'International Tables Vol C Tables 4.2.6.8 and 6.1.1.4'
Cu Cu -1.9646 0.5888 'International Tables Vol C Tables 4.2.6.8 and 6.1.1.4'
In In 0.0822 5.0449 'International Tables Vol C Tables 4.2.6.8 and 6.1.1.4'
loop_
_geom_angle_atom_site_label_1
_geom_angle_atom_site_label_2
_geom_angle_atom_site_label_3
_geom_angle
_geom_angle_site_symmetry_1
_geom_angle_site_symmetry_3
N4 C1 C2 117.0(5) . .
N4 C1 C6 113.2(6) . .
C2 C1 C6 111.5 . .
C1 C2 C3 111.5 . .
C2 C3 C4 111.5 . .
C5 C4 C3 111.5 . .
C4 C5 C6 111.5 . .
C5 C6 C1 111.5 . .
C5 C6 N2 110.7(5) . .
C1 C6 N2 91.1(6) . .
C8 C7 C12 111.5 . .
C8 C7 N3 109.0(6) . .
C12 C7 N3 90.5(7) . .
C7 C8 C9 111.5 . .
C10 C9 C8 111.5 . .
C11 C10 C9 111.5 . .
C10 C11 C12 111.5 . .
N1 C12 C11 115.9(7) . .
N1 C12 C7 110.5(8) . .
C11 C12 C7 111.5 . .
O5 In1 O3 93.40(8) . 5
O5 In1 O3 93.40(8) . 3_565
O3 In1 O3 173.20(15) 5 3_565
O5 In1 O4 93.35(8) . .
O3 In1 O4 91.48(13) 5 .
O3 In1 O4 88.12(13) 3_565 .
O5 In1 O4 93.35(8) . 6_565
O3 In1 O4 88.12(13) 5 6_565
O3 In1 O4 91.48(13) 3_565 6_565
O4 In1 O4 173.30(15) . 6_565
O5 In1 O6 180.0 . .
O3 In1 O6 86.60(8) 5 .
O3 In1 O6 86.60(8) 3_565 .
O4 In1 O6 86.65(8) . .
O4 In1 O6 86.65(8) 6_565 .
O4 C13 O3 127.6(3) . .
O4 C13 C14 117.0(6) . .
O3 C13 C14 114.3(6) . .
C13 O3 In1 133.3(2) . 2_665
C13 O4 In1 133.4(2) . .
In1 O5 In1 120.0 2_665 .
In1 O5 In1 120.0 2_665 3_565
In1 O5 In1 120.0 . 3_565
N1 Cu1 O1 93.8(3) . .
N1 Cu1 O2 166.7(5) . .
O1 Cu1 O2 82.0(3) . .
N1 Cu1 N3 85.7(4) . .
O1 Cu1 N3 169.2(5) . .
O2 Cu1 N3 96.1(3) . .
N1 Cu1 Cu2 133.9(2) . .
O1 Cu1 Cu2 41.2(2) . .
O2 Cu1 Cu2 40.8(2) . .
N3 Cu1 Cu2 136.1(3) . .
O2 Cu2 N4 93.9(3) . .
O2 Cu2 O1 82.1(3) . .
N4 Cu2 O1 170.1(5) . .
O2 Cu2 N2 165.9(5) . .
N4 Cu2 N2 85.8(4) . .
O1 Cu2 N2 95.8(3) . .
O2 Cu2 Cu1 41.1(2) . .
N4 Cu2 Cu1 134.5(2) . .
O1 Cu2 Cu1 41.1(2) . .
N2 Cu2 Cu1 135.4(3) . .
C17 O1 Cu1 129.8(7) . .
C17 O1 Cu2 129.4(7) . .
Cu1 O1 Cu2 97.7(3) . .
C25 O2 Cu2 130.7(7) . .
C25 O2 Cu1 130.6(6) . .
Cu2 O2 Cu1 98.1(3) . .
C20 N1 C12 129.1(10) . .
C20 N1 Cu1 123.9(8) . .
C12 N1 Cu1 105.2(6) . .
C21 N2 C6 124.8(9) . .
C21 N2 Cu2 119.0(7) . .
C6 N2 Cu2 113.4(6) . .
C23 N3 C7 123.1(9) . .
C23 N3 Cu1 119.8(7) . .
C7 N3 Cu1 110.2(6) . .
C22 N4 C1 128.0(8) . .
C22 N4 Cu2 125.9(7) . .
C1 N4 Cu2 105.8(5) . .
C15 C14 C19 116.9(10) . .
C15 C14 C13 122.7(10) . .
C19 C14 C13 119.7(10) . .
C14 C15 C16 123.0(10) . .
C15 C16 C17 117.8(9) . .
C15 C16 C20 118.1(10) . .
C17 C16 C20 123.9(9) . .
O1 C17 C18 119.3(10) . .
O1 C17 C16 119.1(9) . .
C18 C17 C16 121.4(9) . .
C19 C18 C17 116.9(10) . .
C19 C18 C21 119.2(10) . .
C17 C18 C21 123.9(9) . .
C18 C19 C14 123.7(10) . .
N1 C20 C16 126.4(11) . .
N2 C21 C18 129.1(10) . .
N4 C22 C24 125.2(9) . .
N3 C23 C26 129.1(9) . .
C29 C24 C25 117.3(9) . .
C29 C24 C22 118.3(9) . .
C25 C24 C22 124.3(8) . .
O2 C25 C24 119.5(8) . .
O2 C25 C26 119.4(9) . .
C24 C25 C26 121.1(8) . .
C27 C26 C25 118.1(9) . .
C27 C26 C23 117.6(8) . .
C25 C26 C23 124.3(8) . .
C28 C27 C26 121.0(9) . .
C27 C28 C29 120.7(9) . .
C28 C29 C24 121.7(9) . .
loop_
_geom_bond_atom_site_label_1
_geom_bond_atom_site_label_2
_geom_bond_distance
_geom_bond_site_symmetry_2
C1 N4 1.434(7) .
C1 C2 1.567(5) .
C1 C6 1.567(5) .
C2 C3 1.567(5) .
C3 C4 1.567(5) .
C4 C5 1.567(5) .
C5 C6 1.567(5) .
C6 N2 1.583(8) .
C7 C8 1.552(7) .
C7 C12 1.553(7) .
C7 N3 1.583(8) .
C8 C9 1.553(7) .
C9 C10 1.553(7) .
C10 C11 1.553(7) .
C11 C12 1.553(7) .
C12 N1 1.436(8) .
In1 O5 2.0432(3) .
In1 O3 2.171(2) 5
In1 O3 2.171(2) 3_565
In1 O4 2.172(2) .
In1 O4 2.172(2) 6_565
In1 O6 2.284(4) .
C13 O4 1.251(5) .
C13 O3 1.257(5) .
C13 C14 1.503(12) .
Cu1 N1 1.884(10) .
Cu1 O1 1.891(7) .
Cu1 O2 1.893(7) .
Cu1 N3 1.936(10) .
Cu1 Cu2 2.852(2) .
Cu2 O2 1.883(7) .
Cu2 N4 1.894(9) .
Cu2 O1 1.896(7) .
Cu2 N2 1.913(10) .
O1 C17 1.324(11) .
O2 C25 1.320(10) .
N1 C20 1.278(14) .
N2 C21 1.321(14) .
N3 C23 1.310(12) .
N4 C22 1.272(11) .
C14 C15 1.369(17) .
C14 C19 1.398(16) .
C15 C16 1.400(14) .
C16 C17 1.406(14) .
C16 C20 1.437(15) .
C17 C18 1.402(14) .
C18 C19 1.392(14) .
C18 C21 1.434(15) .
C22 C24 1.476(13) .
C23 C26 1.472(13) .
C24 C29 1.379(12) .
C24 C25 1.411(13) .
C25 C26 1.412(13) .
C26 C27 1.379(12) .
C27 C28 1.361(14) .
C28 C29 1.372(15) .
