#------------------------------------------------------------------------------
#$Date: 2019-11-17 05:02:53 +0200 (Sun, 17 Nov 2019) $
#$Revision: 228014 $
#$URL: file:///home/coder/svn-repositories/cod/cif/7/12/17/7121717.cif $
#------------------------------------------------------------------------------
#
# This file is available in the Crystallography Open Database (COD),
# http://www.crystallography.net/
#
# All data on this site have been placed in the public domain by the
# contributors.
#
data_7121717
loop_
_publ_author_name
'Fidelli, Athena M.'
'Karadeniz, Bahar'
'Howarth, Ashlee J.'
'Huski\'c, Igor'
'Germann, Luzia S.'
'Halasz, Ivan'
'Etter, Martin'
'Moon, Su-Young'
'Dinnebier, Robert E.'
'Stilinovi\'c, Vladimir'
'Farha, Omar K.'
'Fri\<s\<ci\'c, Tomislav'
'U\<Zarevi\'c, Krunoslav'
_publ_section_title
;
 Green and rapid mechanosynthesis of high-porosity NU- and UiO-type
 metal-organic frameworks.
;
_journal_issue                   51
_journal_name_full
'Chemical communications (Cambridge, England)'
_journal_page_first              6999
_journal_page_last               7002
_journal_paper_doi               10.1039/c8cc03189d
_journal_volume                  54
_journal_year                    2018
_chemical_formula_sum            'C51.2 H86.4 O71.2 Zr12'
_chemical_formula_weight         2935.84
_chemical_name_systematic        Zr12_acetate_solvate
_space_group_crystal_system      triclinic
_space_group_IT_number           2
_space_group_name_Hall           '-P 1'
_space_group_name_H-M_alt        'P -1'
_symmetry_space_group_name_Hall  '-P 1'
_symmetry_space_group_name_H-M   'P -1'
_atom_sites_solution_hydrogens   geom
_audit_creation_method           SHELXL-2014/7
_audit_update_record
;
2018-05-14 deposited with the CCDC.
2018-05-23 downloaded from the CCDC.
;
_cell_angle_alpha                116.322(6)
_cell_angle_beta                 93.693(6)
_cell_angle_gamma                106.969(5)
_cell_formula_units_Z            1
_cell_length_a                   12.5793(8)
_cell_length_b                   15.7491(8)
_cell_length_c                   16.7679(13)
_cell_measurement_reflns_used    3387
_cell_measurement_temperature    118(2)
_cell_measurement_theta_max      61.1090
_cell_measurement_theta_min      4.0420
_cell_volume                     2774.1(4)
_computing_cell_refinement
;
CrysAlisPro, Agilent Technologies,
Version 1.171.37.35 (release 13-08-2014 CrysAlis171 .NET)
(compiled Aug 13 2014,18:06:01)
;
_computing_data_collection
;
CrysAlisPro, Agilent Technologies,
Version 1.171.37.35 (release 13-08-2014 CrysAlis171 .NET)
(compiled Aug 13 2014,18:06:01)
;
_computing_data_reduction
;
CrysAlisPro, Agilent Technologies,
Version 1.171.37.35 (release 13-08-2014 CrysAlis171 .NET)
(compiled Aug 13 2014,18:06:01)
;
_computing_structure_refinement  'SHELXL-2014/7 (Sheldrick, 2014)'
_diffrn_ambient_temperature      118(2)
_diffrn_detector_area_resol_mean 10.4323
_diffrn_measured_fraction_theta_full 0.995
_diffrn_measured_fraction_theta_max 0.995
_diffrn_measurement_device_type  'Nova (Cu) X-ray Source'
_diffrn_measurement_method       '\w scans'
_diffrn_radiation_type           CuK\a
_diffrn_radiation_wavelength     1.54184
_diffrn_reflns_av_R_equivalents  0.0647
_diffrn_reflns_av_unetI/netI     0.0865
_diffrn_reflns_Laue_measured_fraction_full 0.995
_diffrn_reflns_Laue_measured_fraction_max 0.995
_diffrn_reflns_limit_h_max       12
_diffrn_reflns_limit_h_min       -13
_diffrn_reflns_limit_k_max       17
_diffrn_reflns_limit_k_min       -17
_diffrn_reflns_limit_l_max       18
_diffrn_reflns_limit_l_min       -17
_diffrn_reflns_number            17266
_diffrn_reflns_point_group_measured_fraction_full 0.995
_diffrn_reflns_point_group_measured_fraction_max 0.995
_diffrn_reflns_theta_full        58.928
_diffrn_reflns_theta_max         58.928
_diffrn_reflns_theta_min         3.018
_diffrn_source                   'sealed X-ray tube'
_exptl_absorpt_coefficient_mu    9.685
_exptl_absorpt_correction_T_max  1.00000
_exptl_absorpt_correction_T_min  0.64549
_exptl_absorpt_correction_type   multi-scan
_exptl_absorpt_process_details
;
CrysAlisPro, Agilent Technologies,
Version 1.171.37.35 (release 13-08-2014 CrysAlis171 .NET)
(compiled Aug 13 2014,18:06:01)
Empirical absorption correction using spherical harmonics,
 implemented in SCALE3 ABSPACK scaling algorithm.
;
_exptl_crystal_colour            colourless
_exptl_crystal_density_diffrn    1.757
_exptl_crystal_description       plate
_exptl_crystal_F_000             1443
_exptl_crystal_recrystallization_method
'Re-crystallisation from solvent: Acetic acid'
_exptl_crystal_size_max          0.3
_exptl_crystal_size_mid          0.2
_exptl_crystal_size_min          0.1
_refine_diff_density_max         2.048
_refine_diff_density_min         -0.888
_refine_diff_density_rms         0.213
_refine_ls_extinction_method     none
_refine_ls_goodness_of_fit_ref   0.996
_refine_ls_hydrogen_treatment    constr
_refine_ls_matrix_type           full
_refine_ls_number_parameters     625
_refine_ls_number_reflns         7922
_refine_ls_number_restraints     17
_refine_ls_restrained_S_all      1.000
_refine_ls_R_factor_all          0.0962
_refine_ls_R_factor_gt           0.0657
_refine_ls_shift/su_max          0.000
_refine_ls_shift/su_mean         0.000
_refine_ls_structure_factor_coef Fsqd
_refine_ls_weighting_details
'w=1/[\s^2^(Fo^2^)+(0.0967P)^2^] where P=(Fo^2^+2Fc^2^)/3'
_refine_ls_weighting_scheme      calc
_refine_ls_wR_factor_gt          0.1595
_refine_ls_wR_factor_ref         0.1855
_reflns_Friedel_coverage         0.000
_reflns_number_gt                5320
_reflns_number_total             7922
_reflns_threshold_expression     'I > 2\s(I)'
_cod_data_source_file            c8cc03189d2.cif
_cod_data_source_block           zr12_acetate_sq
_cod_depositor_comments
'Adding full bibliography for 7121717--7121718.cif.'
_cod_original_cell_volume        2774.1(3)
_cod_original_formula_sum        'C51.20 H86.40 O71.20 Zr12'
_cod_database_code               7121717
_shelx_shelxl_version_number     2014/7
_shelx_space_group_comment
;
The symmetry employed for this shelxl refinement is uniquely defined
by the following loop, which should always be used as a source of
symmetry information in preference to the above space-group names.
They are only intended as comments.
;
_shelx_res_file
;

    shelx.res created by SHELXL-2014/7

TITL shelxt_a.res in P-1
CELL  1.54184  12.5793  15.7491  16.7679  116.322   93.693  106.969
ZERR     1.00   0.0008   0.0008   0.0013    0.006    0.006    0.005
LATT   1
SFAC  C    H    O    ZR
UNIT  51.2 86.4 71.2 12
MERG   2
ABIN
isor 0.01 C26
isor 0.005 C18
delu 0.001 C17 C18
delu 0.001 O23 C15
dfix 1.49 0.02 C26 C25
dfix 1.33 0.02 o33 C25
dfix 1.18 0.02 o34 C25
FMAP   2
PLAN   50
ACTA
BOND   $H
L.S.  12
WGHT    0.096700
FVAR       1.15466
ZR3   4    0.780523    0.226043    0.615194    11.00000    0.03268    0.03771 =
         0.04379    0.02620    0.01606    0.02179
ZR4   4    0.706460    0.421364    0.610421    11.00000    0.03630    0.03657 =
         0.04781    0.02825    0.01830    0.02142
ZR1   4    0.489360    0.191215    0.541296    11.00000    0.03402    0.03514 =
         0.04276    0.02600    0.01618    0.02167
ZR2   4    0.585714    0.201004    0.751975    11.00000    0.03534    0.03643 =
         0.04032    0.02435    0.01534    0.02178
ZR6   4    0.797614    0.435790    0.820468    11.00000    0.03445    0.03926 =
         0.04513    0.02501    0.01574    0.01931
ZR5   4    0.510895    0.396921    0.747041    11.00000    0.03698    0.03569 =
         0.04494    0.02635    0.01866    0.02273
O9    3    0.332760    0.338657    0.670862    11.00000    0.04358    0.04620 =
         0.04626    0.03305    0.01724    0.02578
O3    3    0.681193    0.458413    0.742168    11.00000    0.03360    0.03339 =
         0.04062    0.02221    0.01895    0.01758
O4    3    0.622857    0.378363    0.838359    11.00000    0.03752    0.03732 =
         0.02552    0.01447    0.00975    0.02026
AFIX  13
H4O   2    0.613532    0.403431    0.901416    11.00000   -1.50000
AFIX   0
O8    3    0.522560    0.363631    0.606770    11.00000    0.03606    0.03981 =
         0.04220    0.02555    0.02167    0.02239
AFIX  13
H8O   2    0.473047    0.383551    0.576408    11.00000   -1.50000
AFIX   0
O29   3    0.469850    0.226043    0.428609    11.00000    0.04336    0.04692 =
         0.04772    0.03300    0.02098    0.03235
O1    3    0.597332    0.129885    0.602770    11.00000    0.03720    0.03494 =
         0.03340    0.02452    0.01660    0.02283
AFIX  13
H1O   2    0.578015    0.056186    0.570882    11.00000   -1.50000
AFIX   0
O6    3    0.738736    0.281934    0.739970    11.00000    0.04540    0.03881 =
         0.04236    0.02290    0.02689    0.03080
O17   3    0.636440   -0.047363    0.481037    11.00000    0.04005    0.04039 =
         0.05753    0.03359    0.02441    0.02959
O14   3    0.491764   -0.065306    0.581379    11.00000    0.04070    0.03724 =
         0.05409    0.03076    0.01939    0.02637
O26   3    0.807447    0.580036    0.948427    11.00000    0.05222    0.04696 =
         0.06054    0.02768    0.02217    0.02425
O22   3    0.830636    0.399801    0.522340    11.00000    0.04167    0.05268 =
         0.05646    0.03824    0.02724    0.03330
O18   3    0.760729    0.089881    0.488040    11.00000    0.03677    0.03417 =
         0.05816    0.03147    0.02227    0.01937
O31   3    0.818848    0.399153    0.931980    11.00000    0.04097    0.05059 =
         0.04336    0.02718    0.01537    0.01862
O16   3    0.803469    0.113518    0.655014    11.00000    0.03987    0.05124 =
         0.05014    0.03616    0.01770    0.03171
O19   3    0.954628    0.287782    0.694055    11.00000    0.04497    0.04460 =
         0.04489    0.02795    0.01677    0.02674
O27   3    0.485436    0.537632    0.749443    11.00000    0.05428    0.04964 =
         0.06216    0.03470    0.02329    0.03390
O13   3    0.455413    0.051224    0.701223    11.00000    0.04257    0.03978 =
         0.05320    0.02778    0.02393    0.02782
O7    3    0.839596    0.405501    0.687486    11.00000    0.03124    0.04354 =
         0.05628    0.02930    0.01708    0.01981
AFIX  13
H7O   2    0.918431    0.441727    0.689294    11.00000   -1.50000
AFIX   0
O2    3    0.663289    0.268589    0.562923    11.00000    0.03132    0.04512 =
         0.03251    0.01718    0.01119    0.02132
O20   3    0.965030    0.418888    0.829264    11.00000    0.04861    0.05481 =
         0.04390    0.02648    0.02072    0.02708
O12   3    0.450963    0.220514    0.830120    11.00000    0.05136    0.04076 =
         0.04843    0.03231    0.02668    0.02513
O5    3    0.495674    0.247819    0.679649    11.00000    0.03780    0.04400 =
         0.05937    0.04137    0.02592    0.02493
O24   3    0.671383    0.558318    0.618750    11.00000    0.06159    0.04629 =
         0.07882    0.04787    0.03088    0.03044
O10   3    0.320698    0.209336    0.535021    11.00000    0.04253    0.04414 =
         0.05621    0.03447    0.02021    0.02756
O32   3    0.674499    0.252572    0.891153    11.00000    0.04125    0.04634 =
         0.04827    0.03116    0.01315    0.02484
O11   3    0.399989    0.343897    0.827282    11.00000    0.03690    0.03638 =
         0.05219    0.02610    0.01675    0.02196
O28   3    0.536922    0.541187    0.878132    11.00000    0.05472    0.04854 =
         0.05360    0.03563    0.02384    0.02991
O21   3    0.880367    0.275783    0.528741    11.00000    0.03630    0.04185 =
         0.06162    0.03702    0.01994    0.02213
O15   3    0.679200    0.097507    0.741647    11.00000    0.04840    0.04868 =
         0.05444    0.03246    0.02736    0.03523
O30   3    0.614311    0.371575    0.468730    11.00000    0.05123    0.04281 =
         0.06332    0.04256    0.02538    0.02983
O25   3    0.923098    0.592381    0.857554    11.00000    0.05346    0.04794 =
         0.05590    0.02612    0.02873    0.02513
O23   3    0.845252    0.581174    0.675168    11.00000    0.04831    0.04206 =
         0.08304    0.03750    0.02997    0.02317
C21   1    0.527471    0.296050    0.413109    11.00000    0.05595    0.03504 =
         0.05868    0.03237    0.02709    0.03063
C11   1    1.005864    0.356770    0.772892    11.00000    0.04086    0.05944 =
         0.04995    0.03921    0.01661    0.02109
C1    1    0.281402    0.272060    0.590518    11.00000    0.04804    0.04373 =
         0.06039    0.03664    0.02728    0.03726
C3    1    0.389961    0.273783    0.846860    11.00000    0.04325    0.03349 =
         0.03779    0.01877    0.01572    0.02070
C5    1    0.441988   -0.040279    0.646378    11.00000    0.02731    0.04266 =
         0.04327    0.02201    0.01201    0.02223
C13   1    0.885815    0.339251    0.502504    11.00000    0.03718    0.04808 =
         0.04929    0.03303    0.01862    0.01884
C23   1    0.759310    0.329588    0.946233    11.00000    0.02843    0.06914 =
         0.06117    0.04229    0.01481    0.02854
C9    1    0.718525   -0.004416    0.455774    11.00000    0.03630    0.03262 =
         0.05300    0.01989    0.00989    0.01832
C6    1    0.364588   -0.118987    0.664308    11.00000    0.05347    0.04263 =
         0.05711    0.03444    0.02972    0.02964
AFIX 137
H6A   2    0.335698   -0.182940    0.608970    11.00000   -1.50000
H6B   2    0.302101   -0.099152    0.685388    11.00000   -1.50000
H6C   2    0.406305   -0.125370    0.710069    11.00000   -1.50000
AFIX   0
C17   1    0.890652    0.634282    0.930624    11.00000    0.05681    0.06972 =
         0.05441    0.02910    0.02262    0.02726
C14   1    0.970870    0.349123    0.444561    11.00000    0.05900    0.05488 =
         0.06282    0.04443    0.03742    0.03584
AFIX 137
H14A  2    1.020079    0.313204    0.446408    11.00000   -1.50000
H14B  2    1.015668    0.419487    0.467821    11.00000   -1.50000
H14C  2    0.930895    0.320948    0.382644    11.00000   -1.50000
AFIX   0
C19   1    0.512835    0.587150    0.837344    11.00000    0.05443    0.06440 =
         0.05639    0.03638    0.02907    0.03584
C2    1    0.159310    0.259684    0.557876    11.00000    0.04571    0.05890 =
         0.06610    0.02706    0.01664    0.03929
AFIX 137
H2A   2    0.112456    0.242154    0.595221    11.00000   -1.50000
H2B   2    0.130608    0.206847    0.495468    11.00000   -1.50000
H2C   2    0.157892    0.322250    0.562362    11.00000   -1.50000
AFIX   0
C22   1    0.488440    0.286853    0.323015    11.00000    0.05417    0.05608 =
         0.05573    0.04205    0.01590    0.02529
AFIX 137
H22A  2    0.455591    0.337305    0.331453    11.00000   -1.50000
H22B  2    0.432259    0.220554    0.284002    11.00000   -1.50000
H22C  2    0.552284    0.296766    0.295451    11.00000   -1.50000
AFIX   0
C10   1    0.773215   -0.065716    0.383966    11.00000    0.04288    0.04999 =
         0.06158    0.03466    0.02656    0.02408
AFIX 137
H10A  2    0.804653   -0.029559    0.352475    11.00000   -1.50000
H10B  2    0.716580   -0.130282    0.341042    11.00000   -1.50000
H10C  2    0.832890   -0.075955    0.413109    11.00000   -1.50000
AFIX   0
C7    1    0.756615    0.075762    0.702184    11.00000    0.03992    0.05078 =
         0.05022    0.03141    0.01157    0.01822
C15   1    0.774084    0.618801    0.659587    11.00000    0.04737    0.04482 =
         0.06880    0.03644    0.03481    0.02505
C12   1    1.128008    0.373409    0.808880    11.00000    0.05354    0.08473 =
         0.04687    0.02369    0.01123    0.03894
AFIX 137
H12A  2    1.134921    0.309228    0.793943    11.00000   -1.50000
H12B  2    1.148431    0.415913    0.873998    11.00000   -1.50000
H12C  2    1.178008    0.405622    0.781486    11.00000   -1.50000
AFIX   0
C4    1    0.297110    0.253527    0.894688    11.00000    0.04295    0.06225 =
         0.08079    0.05479    0.03102    0.03184
AFIX 137
H4A   2    0.292987    0.195255    0.901370    11.00000   -1.50000
H4B   2    0.225550    0.240915    0.859471    11.00000   -1.50000
H4C   2    0.313226    0.311414    0.953906    11.00000   -1.50000
AFIX   0
C24   1    0.793496    0.337870    1.036018    11.00000    0.06278    0.06623 =
         0.05317    0.03702    0.01366    0.02637
AFIX 137
H24A  2    0.743371    0.361563    1.074051    11.00000   -1.50000
H24B  2    0.870424    0.384915    1.064484    11.00000   -1.50000
H24C  2    0.788929    0.272518    1.027922    11.00000   -1.50000
AFIX   0
C8    1    0.792741   -0.004307    0.707841    11.00000    0.05521    0.06871 =
         0.08009    0.05037    0.02929    0.04520
AFIX 137
H8A   2    0.756603   -0.067548    0.652492    11.00000   -1.50000
H8B   2    0.770702   -0.011918    0.758745    11.00000   -1.50000
H8C   2    0.874088    0.015194    0.715915    11.00000   -1.50000
AFIX   0
C16   1    0.807518    0.728250    0.687101    11.00000    0.07512    0.03913 =
         0.11604    0.04396    0.02862    0.02873
AFIX 137
H16A  2    0.769765    0.735658    0.640260    11.00000   -1.50000
H16B  2    0.888637    0.757211    0.695586    11.00000   -1.50000
H16C  2    0.785756    0.762599    0.743234    11.00000   -1.50000
AFIX   0
C20   1    0.512198    0.690867    0.887977    11.00000    0.10508    0.04404 =
         0.06511    0.03447    0.03113    0.04086
AFIX 137
H20A  2    0.449684    0.696492    0.857194    11.00000   -1.50000
H20B  2    0.582677    0.738409    0.891061    11.00000   -1.50000
H20C  2    0.503816    0.705326    0.948689    11.00000   -1.50000
AFIX   0
C18   1    0.950268    0.745978    0.999649    11.00000    0.09636    0.06902 =
         0.10160    0.01783    0.05315    0.02442
AFIX 137
H18A  2    0.897472    0.780669    1.005577    11.00000   -1.50000
H18B  2    1.013503    0.775049    0.979206    11.00000   -1.50000
H18C  2    0.977492    0.752782    1.057773    11.00000   -1.50000
AFIX   0
C25   1    1.119746    0.587035    0.723714    10.80000    0.08761    0.09330 =
         0.06391    0.05238    0.02824    0.05590
C26   1    1.232578    0.608878    0.695413    10.80000    0.06356    0.12133 =
         0.11432    0.08240    0.00988    0.02314
AFIX  33
H26A  2    1.273335    0.680820    0.725703    10.80000   -1.50000
H26B  2    1.277249    0.576771    0.712150    10.80000   -1.50000
H26C  2    1.218501    0.582855    0.630488    10.80000   -1.50000
AFIX   0
O33   3    1.058356    0.498577    0.690680    10.80000    0.05709    0.10609 =
         0.10840    0.08327    0.02626    0.02778
O34   3    1.091462    0.655973    0.775023    10.80000    0.05492    0.12480 =
         0.10914    0.08115    0.04589    0.03692
AFIX  83
H34   2    1.028438    0.632431    0.783207    10.80000   -1.50000
AFIX   0
O1W   3    0.384754    0.436361    0.547287    11.00000    0.05954    0.06069 =
         0.07927    0.05149    0.01626    0.03153
O2W   3    0.624671    0.465622    1.015157    11.00000    0.06153    0.06546 =
         0.05555    0.03646    0.01753    0.03524
HKLF    4

REM  shelxt_a.res in P-1
REM R1 =  0.0657 for    5320 Fo > 4sig(Fo)  and  0.0962 for all    7922 data
REM    625 parameters refined using     17 restraints

END

WGHT      0.0967      0.0000

REM Highest difference peak  2.048,  deepest hole -0.888,  1-sigma level  0.213
Q1    1   0.5182  0.2316  0.6139  11.00000  0.05    2.05
Q2    1   0.6193  0.2345  0.8213  11.00000  0.05    1.99
Q3    1   0.5523  0.1564  0.6793  11.00000  0.05    1.95
Q4    1   0.7377  0.4572  0.6848  11.00000  0.05    1.93
Q5    1   0.4778  0.3503  0.6726  11.00000  0.05    1.84
Q6    1   0.7642  0.3778  0.7429  11.00000  0.05    1.81
Q7    1   0.5458  0.4309  0.8193  11.00000  0.05    1.72
Q8    1   0.8041  0.2576  0.6849  11.00000  0.05    1.70
Q9    1   0.8273  0.4687  0.8879  11.00000  0.05    1.63
Q10   1   0.6706  0.3768  0.5394  11.00000  0.05    1.60
Q11   1   0.4621  0.1495  0.4674  11.00000  0.05    1.56
Q12   1   0.7483  0.1764  0.5390  11.00000  0.05    1.53
Q13   1   0.7156  0.4253  0.8444  11.00000  0.05    1.21
Q14   1   0.4333  0.3741  0.7583  11.00000  0.05    1.21
Q15   1   0.6408  0.3969  0.6564  11.00000  0.05    1.18
Q16   1   0.5776  0.4298  0.7089  11.00000  0.05    1.17
Q17   1   0.6129  0.4170  0.7647  11.00000  0.05    1.16
Q18   1   1.2073  0.5207  0.6077  11.00000  0.05    1.12
Q19   1   0.7042  0.2129  0.6533  11.00000  0.05    1.10
Q20   1   0.5591 -0.0131  0.5448  11.00000  0.05    1.10
Q21   1   0.5149  0.1818  0.7850  11.00000  0.05    1.10
Q22   1   0.5944  0.4122  0.9478  11.00000  0.05    1.06
Q23   1   0.7796  0.4475  0.5890  11.00000  0.05    1.05
Q24   1   0.6450  0.1766  0.6872  11.00000  0.05    1.04
Q25   1   0.5623  0.2085  0.5125  11.00000  0.05    1.03
Q26   1   0.4223  0.1568  0.5799  11.00000  0.05    1.03
Q27   1   0.4121  0.3837  0.5386  11.00000  0.05    1.02
Q28   1   0.6575  0.2358  0.7151  11.00000  0.05    1.01
Q29   1   0.8580  0.4784  0.8064  11.00000  0.05    0.98
Q30   1   0.8687  0.2412  0.8286  11.00000  0.05    0.89
Q31   1   0.7353  0.3520  0.7998  11.00000  0.05    0.86
Q32   1   0.5836  0.3933  0.5863  11.00000  0.05    0.85
Q33   1   0.8481  0.2512  0.5806  11.00000  0.05    0.78
Q34   1   1.0486  0.5614  0.7367  11.00000  0.05    0.76
Q35   1   0.9888  0.4599  0.6908  11.00000  0.05    0.75
Q36   1   0.5249  0.2593  0.7504  11.00000  0.05    0.74
Q37   1   0.4590  0.1727  0.7143  11.00000  0.05    0.73
Q38   1   0.6314  0.3249  0.4362  11.00000  0.05    0.73
Q39   1   0.8212  0.3184  0.6294  11.00000  0.05    0.72
Q40   1   0.6520  0.3469  0.5941  11.00000  0.05    0.72
Q41   1   0.5370  0.0055  0.6565  11.00000  0.05    0.72
Q42   1   0.7202  0.1364  0.5993  11.00000  0.05    0.72
Q43   1   0.6719  0.2235  0.6021  11.00000  0.05    0.70
Q44   1   0.7003  0.2247  0.7838  11.00000  0.05    0.69
Q45   1   0.8261  0.4619  0.6695  11.00000  0.05    0.68
Q46   1   0.4952  0.3898  0.6300  11.00000  0.05    0.68
Q47   1   0.4985  0.2348  0.4883  11.00000  0.05    0.67
Q48   1   0.9043  0.4662  0.8470  11.00000  0.05    0.66
Q49   1   0.7190  0.4820  0.8101  11.00000  0.05    0.66
Q50   1   0.7316  0.6360  0.8214  11.00000  0.05    0.65
;
_shelx_res_checksum              43147
_shelx_fab_file
;
    1    0    0     -0.48      0.00
    2    0    0      2.38      0.00
    3    0    0      2.29      0.00
    4    0    0      0.12      0.00
    5    0    0      0.08      0.00
    6    0    0     -0.47      0.00
    7    0    0      1.15      0.00
    8    0    0      0.19      0.00
    9    0    0      0.33      0.00
   10    0    0      0.40      0.00
   11    0    0     -0.17      0.00
   12    0    0      0.74      0.00
   13    0    0     -0.98      0.00
  -13    1    0     -1.39      0.00
  -12    1    0      0.08      0.00
  -11    1    0      0.28      0.00
  -10    1    0      0.66      0.00
   -9    1    0      0.37      0.00
   -8    1    0      0.09      0.00
   -7    1    0      1.59      0.00
   -6    1    0     -0.31      0.00
   -5    1    0      0.28      0.00
   -4    1    0      0.47      0.00
   -3    1    0      0.68      0.00
   -2    1    0      3.06      0.00
   -1    1    0     -1.68      0.00
    0    1    0     23.42      0.00
    1    1    0     -0.01      0.00
    2    1    0      1.56      0.00
    3    1    0      2.59      0.00
    4    1    0     -0.71      0.00
    5    1    0     -0.01      0.00
    6    1    0     -0.09      0.00
    7    1    0      0.53      0.00
    8    1    0     -0.05      0.00
    9    1    0      0.12      0.00
   10    1    0      0.91      0.00
   11    1    0     -0.71      0.00
   12    1    0      1.00      0.00
  -13    2    0     -0.91      0.00
  -12    2    0     -0.28      0.00
  -11    2    0      0.02      0.00
  -10    2    0      1.02      0.00
   -9    2    0     -0.10      0.00
   -8    2    0     -0.51      0.00
   -7    2    0      1.52      0.00
   -6    2    0      0.05      0.00
   -5    2    0      0.22      0.00
   -4    2    0      0.50      0.00
   -3    2    0     -0.51      0.00
   -2    2    0      2.49      0.00
   -1    2    0     -1.59      0.00
    0    2    0      9.27      0.00
    1    2    0     -0.90      0.00
    2    2    0      1.53      0.00
    3    2    0      1.54      0.00
    4    2    0     -1.31      0.00
    5    2    0      0.23      0.00
    6    2    0      0.34      0.00
    7    2    0     -0.13      0.00
    8    2    0     -0.32      0.00
    9    2    0      0.01      0.00
   10    2    0      1.70      0.00
   11    2    0     -0.71      0.00
   12    2    0      0.67      0.00
  -13    3    0     -0.04      0.00
  -12    3    0      0.00      0.00
  -11    3    0     -0.55      0.00
  -10    3    0      0.88      0.00
   -9    3    0     -0.87      0.00
   -8    3    0     -1.06      0.00
   -7    3    0      1.00      0.00
   -6    3    0      0.00      0.00
   -5    3    0     -0.02      0.00
   -4    3    0      0.61      0.00
   -3    3    0     -0.30      0.00
   -2    3    0      0.84      0.00
   -1    3    0      0.17      0.00
    0    3    0     -0.50      0.00
    1    3    0     -1.74      0.00
    2    3    0      1.71      0.00
    3    3    0      0.38      0.00
    4    3    0     -0.87      0.00
    5    3    0      0.33      0.00
    6    3    0      0.06      0.00
    7    3    0     -0.75      0.00
    8    3    0     -0.53      0.00
    9    3    0      0.01      0.00
   10    3    0      1.74      0.00
   11    3    0     -0.35      0.00
  -13    4    0      0.21      0.00
  -12    4    0      0.47      0.00
  -11    4    0     -0.64      0.00
  -10    4    0      0.54      0.00
   -9    4    0     -1.25      0.00
   -8    4    0     -0.87      0.00
   -7    4    0      0.64      0.00
   -6    4    0     -0.46      0.00
   -5    4    0     -0.18      0.00
   -4    4    0      0.67      0.00
   -3    4    0      0.17      0.00
   -2    4    0     -0.94      0.00
   -1    4    0      1.83      0.00
    0    4    0     -1.88      0.00
    1    4    0     -1.39      0.00
    2    4    0      1.09      0.00
    3    4    0     -0.21      0.00
    4    4    0      0.17      0.00
    5    4    0     -0.32      0.00
    6    4    0     -0.82      0.00
    7    4    0     -0.78      0.00
    8    4    0     -0.61      0.00
    9    4    0      0.14      0.00
   10    4    0      0.97      0.00
   11    4    0     -0.23      0.00
  -13    5    0     -0.49      0.00
  -12    5    0      0.41      0.00
  -11    5    0     -0.24      0.00
  -10    5    0      0.51      0.00
   -9    5    0     -0.96      0.00
   -8    5    0     -0.12      0.00
   -7    5    0      0.64      0.00
   -6    5    0     -0.75      0.00
   -5    5    0     -0.18      0.00
   -4    5    0      0.21      0.00
   -3    5    0     -0.35      0.00
   -2    5    0     -2.19      0.00
   -1    5    0      1.96      0.00
    0    5    0      0.39      0.00
    1    5    0     -0.44      0.00
    2    5    0     -0.05      0.00
    3    5    0     -0.45      0.00
    4    5    0      0.51      0.00
    5    5    0     -1.54      0.00
    6    5    0     -1.48      0.00
    7    5    0      0.16      0.00
    8    5    0     -0.55      0.00
    9    5    0      0.37      0.00
   10    5    0      0.34      0.00
  -13    6    0     -1.55      0.00
  -12    6    0     -0.17      0.00
  -11    6    0      0.01      0.00
  -10    6    0      0.65      0.00
   -9    6    0     -0.56      0.00
   -8    6    0      0.37      0.00
   -7    6    0      0.51      0.00
   -6    6    0     -0.43      0.00
   -5    6    0     -0.03      0.00
   -4    6    0     -0.70      0.00
   -3    6    0     -1.16      0.00
   -2    6    0     -2.47      0.00
   -1    6    0      1.08      0.00
    0    6    0      1.38      0.00
    1    6    0      0.27      0.00
    2    6    0     -0.47      0.00
    3    6    0     -0.56      0.00
    4    6    0     -0.21      0.00
    5    6    0     -2.49      0.00
    6    6    0     -1.49      0.00
    7    6    0      1.37      0.00
    8    6    0     -0.55      0.00
    9    6    0      0.47      0.00
   10    6    0      0.32      0.00
  -13    7    0     -2.21      0.00
  -12    7    0     -0.48      0.00
  -11    7    0     -0.07      0.00
  -10    7    0      0.62      0.00
   -9    7    0     -0.72      0.00
   -8    7    0      0.17      0.00
   -7    7    0      0.06      0.00
   -6    7    0      0.24      0.00
   -5    7    0      0.28      0.00
   -4    7    0     -1.35      0.00
   -3    7    0     -0.96      0.00
   -2    7    0     -1.57      0.00
   -1    7    0      0.38      0.00
    0    7    0      0.87      0.00
    1    7    0      0.81      0.00
    2    7    0      0.22      0.00
    3    7    0     -0.49      0.00
    4    7    0     -0.94      0.00
    5    7    0     -2.42      0.00
    6    7    0     -1.22      0.00
    7    7    0      1.74      0.00
    8    7    0     -0.77      0.00
    9    7    0      0.24      0.00
  -13    8    0     -2.38      0.00
  -12    8    0      0.06      0.00
  -11    8    0      0.03      0.00
  -10    8    0      0.40      0.00
   -9    8    0     -1.22      0.00
   -8    8    0     -0.30      0.00
   -7    8    0     -0.24      0.00
   -6    8    0      0.75      0.00
   -5    8    0      0.50      0.00
   -4    8    0     -1.14      0.00
   -3    8    0     -0.03      0.00
   -2    8    0     -0.18      0.00
   -1    8    0      0.10      0.00
    0    8    0      0.54      0.00
    1    8    0      1.35      0.00
    2    8    0      1.07      0.00
    3    8    0     -0.25      0.00
    4    8    0     -0.75      0.00
    5    8    0     -1.33      0.00
    6    8    0     -0.95      0.00
    7    8    0      1.16      0.00
    8    8    0     -0.90      0.00
  -13    9    0     -2.32      0.00
  -12    9    0      1.00      0.00
  -11    9    0      0.43      0.00
  -10    9    0      0.03      0.00
   -9    9    0     -1.32      0.00
   -8    9    0     -0.47      0.00
   -7    9    0     -0.18      0.00
   -6    9    0      0.92      0.00
   -5    9    0      0.33      0.00
   -4    9    0     -0.29      0.00
   -3    9    0      0.33      0.00
   -2    9    0      0.45      0.00
   -1    9    0     -0.16      0.00
    0    9    0      0.63      0.00
    1    9    0      1.49      0.00
    2    9    0      1.04      0.00
    3    9    0      0.17      0.00
    4    9    0     -0.04      0.00
    5    9    0     -0.03      0.00
    6    9    0     -0.45      0.00
    7    9    0      0.47      0.00
  -13   10    0     -1.95      0.00
  -12   10    0      1.38      0.00
  -11   10    0      0.52      0.00
  -10   10    0     -0.58      0.00
   -9   10    0     -0.77      0.00
   -8   10    0     -0.11      0.00
   -7   10    0     -0.29      0.00
   -6   10    0      0.81      0.00
   -5   10    0      0.01      0.00
   -4   10    0      0.41      0.00
   -3   10    0     -0.21      0.00
   -2   10    0      0.04      0.00
   -1   10    0     -0.35      0.00
    0   10    0      0.50      0.00
    1   10    0      1.14      0.00
    2   10    0      0.10      0.00
    3   10    0      0.73      0.00
    4   10    0      0.22      0.00
    5   10    0      0.52      0.00
    6   10    0      0.34      0.00
  -12   11    0      0.91      0.00
  -11   11    0     -0.13      0.00
  -10   11    0     -1.18      0.00
   -9   11    0     -0.13      0.00
   -8   11    0      0.51      0.00
   -7   11    0     -0.76      0.00
   -6   11    0      0.45      0.00
   -5   11    0      0.02      0.00
   -4   11    0      0.55      0.00
   -3   11    0     -0.86      0.00
   -2   11    0     -0.42      0.00
   -1   11    0     -0.08      0.00
    0   11    0      0.08      0.00
    1   11    0      0.91      0.00
    2   11    0     -0.94      0.00
    3   11    0      1.06      0.00
    4   11    0     -0.12      0.00
    5   11    0      0.07      0.00
  -12   12    0      0.22      0.00
  -11   12    0     -1.01      0.00
  -10   12    0     -1.17      0.00
   -9   12    0      0.04      0.00
   -8   12    0      0.78      0.00
   -7   12    0     -0.84      0.00
   -6   12    0      0.08      0.00
   -5   12    0      0.17      0.00
   -4   12    0      0.39      0.00
   -3   12    0     -0.95      0.00
   -2   12    0     -0.20      0.00
   -1   12    0      0.42      0.00
    0   12    0     -0.29      0.00
    1   12    0      1.08      0.00
    2   12    0     -1.30      0.00
    3   12    0      0.75      0.00
    4   12    0     -0.38      0.00
  -11   13    0     -1.28      0.00
  -10   13    0     -0.46      0.00
   -9   13    0     -0.14      0.00
   -8   13    0      0.27      0.00
   -7   13    0     -0.12      0.00
   -6   13    0      0.10      0.00
   -5   13    0     -0.05      0.00
   -4   13    0      0.23      0.00
   -3   13    0     -0.49      0.00
   -2   13    0      0.35      0.00
   -1   13    0      0.40      0.00
    0   13    0     -0.45      0.00
    1   13    0      1.07      0.00
    2   13    0     -0.85      0.00
    3   13    0      0.00      0.00
  -10   14    0      0.20      0.00
   -9   14    0     -0.25      0.00
   -8   14    0     -0.65      0.00
   -7   14    0      0.66      0.00
   -6   14    0      0.58      0.00
   -5   14    0     -0.43      0.00
   -4   14    0      0.05      0.00
   -3   14    0      0.12      0.00
   -2   14    0      0.61      0.00
   -1   14    0     -0.37      0.00
    0   14    0     -0.43      0.00
    1   14    0      0.49      0.00
   -8   15    0     -1.05      0.00
   -7   15    0      0.70      0.00
   -6   15    0      0.87      0.00
   -5   15    0     -0.25      0.00
   -4   15    0     -0.17      0.00
   -3   15    0      0.40      0.00
   -2   15    0      0.53      0.00
   -1   15    0     -1.15      0.00
    4  -16    1      0.51      0.00
    5  -16    1      0.36      0.00
    6  -16    1      1.49      0.00
    0  -15    1     -0.47      0.00
    1  -15    1     -1.32      0.00
    2  -15    1      0.09      0.00
    3  -15    1      0.49      0.00
    4  -15    1      0.91      0.00
    5  -15    1      0.59      0.00
    6  -15    1      1.72      0.00
    7  -15    1      0.79      0.00
    8  -15    1     -0.80      0.00
    9  -15    1      0.98      0.00
   -2  -14    1      0.73      0.00
   -1  -14    1     -0.89      0.00
    0  -14    1     -1.15      0.00
    1  -14    1     -1.08      0.00
    2  -14    1     -0.29      0.00
    3  -14    1     -0.05      0.00
    4  -14    1      0.87      0.00
    5  -14    1      0.86      0.00
    6  -14    1      1.05      0.00
    7  -14    1      0.39      0.00
    8  -14    1     -0.31      0.00
    9  -14    1      0.51      0.00
   10  -14    1      0.44      0.00
   -3  -13    1      0.33      0.00
   -2  -13    1      0.09      0.00
   -1  -13    1     -0.54      0.00
    0  -13    1     -1.34      0.00
    1  -13    1     -0.94      0.00
    2  -13    1     -0.98      0.00
    3  -13    1     -0.90      0.00
    4  -13    1      0.46      0.00
    5  -13    1      0.64      0.00
    6  -13    1      0.17      0.00
    7  -13    1     -0.53      0.00
    8  -13    1      0.50      0.00
    9  -13    1     -0.05      0.00
   10  -13    1      0.04      0.00
   11  -13    1     -0.86      0.00
   -5  -12    1      0.12      0.00
   -4  -12    1      0.25      0.00
   -3  -12    1      0.66      0.00
   -2  -12    1     -0.83      0.00
   -1  -12    1     -0.07      0.00
    0  -12    1     -0.78      0.00
    1  -12    1     -1.04      0.00
    2  -12    1     -1.36      0.00
    3  -12    1     -1.54      0.00
    4  -12    1      0.26      0.00
    5  -12    1      0.01      0.00
    6  -12    1     -0.27      0.00
    7  -12    1     -1.11      0.00
    8  -12    1      0.95      0.00
    9  -12    1     -0.39      0.00
   10  -12    1     -0.53      0.00
   11  -12    1     -0.21      0.00
   12  -12    1     -0.22      0.00
   -6  -11    1      0.79      0.00
   -5  -11    1      0.32      0.00
   -4  -11    1      0.27      0.00
   -3  -11    1      0.83      0.00
   -2  -11    1     -1.26      0.00
   -1  -11    1      0.36      0.00
    0  -11    1      0.14      0.00
    1  -11    1     -1.01      0.00
    2  -11    1     -0.79      0.00
    3  -11    1     -1.49      0.00
    4  -11    1      0.32      0.00
    5  -11    1     -0.15      0.00
    6  -11    1     -0.16      0.00
    7  -11    1     -1.05      0.00
    8  -11    1      0.69      0.00
    9  -11    1     -0.64      0.00
   10  -11    1     -0.84      0.00
   11  -11    1      0.49      0.00
   12  -11    1     -0.04      0.00
   -7  -10    1     -0.97      0.00
   -6  -10    1      0.53      0.00
   -5  -10    1      0.11      0.00
   -4  -10    1     -0.26      0.00
   -3  -10    1      0.86      0.00
   -2  -10    1     -0.77      0.00
   -1  -10    1      0.53      0.00
    0  -10    1      0.53      0.00
    1  -10    1     -0.72      0.00
    2  -10    1      0.29      0.00
    3  -10    1     -0.80      0.00
    4  -10    1      0.11      0.00
    5  -10    1      0.56      0.00
    6  -10    1      0.33      0.00
    7  -10    1     -0.74      0.00
    8  -10    1     -0.09      0.00
    9  -10    1     -0.97      0.00
   10  -10    1     -0.69      0.00
   11  -10    1      0.46      0.00
   12  -10    1      0.00      0.00
   13  -10    1     -0.38      0.00
   -8   -9    1     -0.48      0.00
   -7   -9    1     -0.70      0.00
   -6   -9    1      0.32      0.00
   -5   -9    1     -0.54      0.00
   -4   -9    1     -1.24      0.00
   -3   -9    1      0.61      0.00
   -2   -9    1      0.11      0.00
   -1   -9    1      0.39      0.00
    0   -9    1      0.18      0.00
    1   -9    1     -0.34      0.00
    2   -9    1      0.69      0.00
    3   -9    1     -0.20      0.00
    4   -9    1     -0.41      0.00
    5   -9    1      1.39      0.00
    6   -9    1      0.75      0.00
    7   -9    1     -0.35      0.00
    8   -9    1     -0.76      0.00
    9   -9    1     -1.26      0.00
   10   -9    1     -0.13      0.00
   11   -9    1     -0.04      0.00
   12   -9    1     -0.34      0.00
   13   -9    1     -0.82      0.00
   -9   -8    1     -0.74      0.00
   -8   -8    1     -0.70      0.00
   -7   -8    1      0.08      0.00
   -6   -8    1     -0.05      0.00
   -5   -8    1     -1.40      0.00
   -4   -8    1     -1.80      0.00
   -3   -8    1     -0.07      0.00
   -2   -8    1      0.33      0.00
   -1   -8    1      0.41      0.00
    0   -8    1      0.26      0.00
    1   -8    1      0.03      0.00
    2   -8    1      0.09      0.00
    3   -8    1     -0.24      0.00
    4   -8    1     -0.55      0.00
    5   -8    1      1.54      0.00
    6   -8    1      0.60      0.00
    7   -8    1      0.22      0.00
    8   -8    1     -0.82      0.00
    9   -8    1     -1.35      0.00
   10   -8    1      0.46      0.00
   11   -8    1     -0.27      0.00
   12   -8    1     -0.64      0.00
   13   -8    1     -1.10      0.00
   -9   -7    1     -0.64      0.00
   -8   -7    1     -0.69      0.00
   -7   -7    1      0.56      0.00
   -6   -7    1     -0.84      0.00
   -5   -7    1     -2.10      0.00
   -4   -7    1     -1.36      0.00
   -3   -7    1     -0.82      0.00
   -2   -7    1     -0.27      0.00
   -1   -7    1      0.78      0.00
    0   -7    1      1.53      0.00
    1   -7    1      0.58      0.00
    2   -7    1     -0.86      0.00
    3   -7    1     -0.52      0.00
    4   -7    1     -0.05      0.00
    5   -7    1      1.06      0.00
    6   -7    1     -0.19      0.00
    7   -7    1      0.64      0.00
    8   -7    1     -0.40      0.00
    9   -7    1     -1.28      0.00
   10   -7    1      0.64      0.00
   11   -7    1     -0.18      0.00
   12   -7    1     -0.37      0.00
   13   -7    1     -1.04      0.00
  -10   -6    1     -0.20      0.00
   -9   -6    1     -0.58      0.00
   -8   -6    1     -0.60      0.00
   -7   -6    1      0.28      0.00
   -6   -6    1     -1.60      0.00
   -5   -6    1     -2.13      0.00
   -4   -6    1     -0.54      0.00
   -3   -6    1     -1.07      0.00
   -2   -6    1     -0.57      0.00
   -1   -6    1      0.79      0.00
    0   -6    1      2.13      0.00
    1   -6    1      1.28      0.00
    2   -6    1     -1.84      0.00
    3   -6    1     -0.59      0.00
    4   -6    1      0.32      0.00
    5   -6    1      0.32      0.00
    6   -6    1     -0.90      0.00
    7   -6    1      0.45      0.00
    8   -6    1     -0.20      0.00
    9   -6    1     -1.10      0.00
   10   -6    1      0.51      0.00
   11   -6    1     -0.35      0.00
   12   -6    1      0.33      0.00
   13   -6    1     -0.64      0.00
  -10   -5    1      0.26      0.00
   -9   -5    1     -0.60      0.00
   -8   -5    1     -0.56      0.00
   -7   -5    1     -0.30      0.00
   -6   -5    1     -1.49      0.00
   -5   -5    1     -1.36      0.00
   -4   -5    1     -0.32      0.00
   -3   -5    1     -0.69      0.00
   -2   -5    1      0.32      0.00
   -1   -5    1     -0.13      0.00
    0   -5    1     -0.42      0.00
    1   -5    1      1.63      0.00
    2   -5    1     -2.88      0.00
    3   -5    1     -0.90      0.00
    4   -5    1     -0.13      0.00
    5   -5    1     -0.52      0.00
    6   -5    1     -0.84      0.00
    7   -5    1     -0.04      0.00
    8   -5    1     -0.56      0.00
    9   -5    1     -0.81      0.00
   10   -5    1      0.68      0.00
   11   -5    1     -0.84      0.00
   12   -5    1      0.73      0.00
   13   -5    1     -0.20      0.00
  -11   -4    1     -0.50      0.00
  -10   -4    1      1.14      0.00
   -9   -4    1     -0.66      0.00
   -8   -4    1     -0.67      0.00
   -7   -4    1     -0.64      0.00
   -6   -4    1     -0.62      0.00
   -5   -4    1     -0.50      0.00
   -4   -4    1     -0.73      0.00
   -3   -4    1      0.08      0.00
   -2   -4    1      1.36      0.00
   -1   -4    1     -0.98      0.00
    0   -4    1     -4.12      0.00
    1   -4    1      1.14      0.00
    2   -4    1     -3.23      0.00
    3   -4    1     -1.90      0.00
    4   -4    1     -0.93      0.00
    5   -4    1     -1.17      0.00
    6   -4    1     -0.16      0.00
    7   -4    1     -0.08      0.00
    8   -4    1     -1.06      0.00
    9   -4    1     -0.40      0.00
   10   -4    1      1.31      0.00
   11   -4    1     -0.90      0.00
   12   -4    1      0.33      0.00
   13   -4    1     -0.13      0.00
  -12   -3    1      0.08      0.00
  -11   -3    1     -0.78      0.00
  -10   -3    1      1.47      0.00
   -9   -3    1     -0.74      0.00
   -8   -3    1     -0.87      0.00
   -7   -3    1     -0.70      0.00
   -6   -3    1      0.10      0.00
   -5   -3    1     -0.39      0.00
   -4   -3    1     -0.92      0.00
   -3   -3    1      1.10      0.00
   -2   -3    1      0.71      0.00
   -1   -3    1     -0.66      0.00
    0   -3    1     -2.67      0.00
    1   -3    1     -0.06      0.00
    2   -3    1     -1.98      0.00
    3   -3    1     -2.71      0.00
    4   -3    1     -0.98      0.00
    5   -3    1     -1.14      0.00
    6   -3    1      0.37      0.00
    7   -3    1      0.52      0.00
    8   -3    1     -1.16      0.00
    9   -3    1      0.01      0.00
   10   -3    1      1.61      0.00
   11   -3    1     -0.19      0.00
   12   -3    1     -0.51      0.00
   13   -3    1     -0.54      0.00
  -12   -2    1      0.54      0.00
  -11   -2    1     -1.07      0.00
  -10   -2    1      0.92      0.00
   -9   -2    1     -0.64      0.00
   -8   -2    1     -0.80      0.00
   -7   -2    1     -0.51      0.00
   -6   -2    1      0.17      0.00
   -5   -2    1     -0.84      0.00
   -4   -2    1     -0.56      0.00
   -3   -2    1      2.02      0.00
   -2   -2    1     -1.58      0.00
   -1   -2    1     -0.13      0.00
    1   -2    1     -1.51      0.00
    2   -2    1      0.14      0.00
    3   -2    1     -2.14      0.00
    4   -2    1     -0.18      0.00
    5   -2    1     -0.60      0.00
    6   -2    1      0.29      0.00
    7   -2    1      1.20      0.00
    8   -2    1     -0.88      0.00
    9   -2    1      0.37      0.00
   10   -2    1      1.01      0.00
   11   -2    1      0.52      0.00
   12   -2    1     -0.94      0.00
   13   -2    1     -1.08      0.00
  -12   -1    1      0.59      0.00
  -11   -1    1     -1.03      0.00
  -10   -1    1      0.27      0.00
   -9   -1    1     -0.15      0.00
   -8   -1    1     -0.25      0.00
   -7   -1    1      0.09      0.00
   -6   -1    1     -0.04      0.00
   -5   -1    1     -0.95      0.00
   -4   -1    1     -0.22      0.00
   -3   -1    1      1.91      0.00
   -2   -1    1     -3.16      0.00
   -1   -1    1     -1.36      0.00
    0   -1    1     16.68      0.00
    1   -1    1     -2.92      0.00
    2   -1    1      1.34      0.00
    3   -1    1     -0.59      0.00
    4   -1    1      0.30      0.00
    5   -1    1     -0.25      0.00
    6   -1    1     -0.05      0.00
    7   -1    1      1.48      0.00
    8   -1    1     -0.57      0.00
    9   -1    1      0.70      0.00
   10   -1    1      0.24      0.00
   11   -1    1      0.46      0.00
   12   -1    1     -0.52      0.00
   13   -1    1     -1.19      0.00
  -13    0    1     -1.75      0.00
  -12    0    1      0.22      0.00
  -11    0    1     -0.69      0.00
  -10    0    1      0.20      0.00
   -9    0    1      0.41      0.00
   -8    0    1      0.27      0.00
   -7    0    1      0.94      0.00
   -6    0    1     -0.10      0.00
   -5    0    1     -0.43      0.00
   -4    0    1     -0.31      0.00
   -3    0    1      0.44      0.00
   -2    0    1     -2.15      0.00
   -1    0    1     -3.87      0.00
    0    0    1     19.16      0.00
    1    0    1     -4.01      0.00
    2    0    1      1.24      0.00
    3    0    1      0.46      0.00
    4    0    1     -0.41      0.00
    5    0    1     -0.30      0.00
    6    0    1     -0.05      0.00
    7    0    1      1.27      0.00
    8    0    1     -0.38      0.00
    9    0    1      1.00      0.00
   10    0    1      0.40      0.00
   11    0    1     -0.08      0.00
   12    0    1      0.33      0.00
  -13    1    1     -1.61      0.00
  -12    1    1     -0.02      0.00
  -11    1    1     -0.36      0.00
  -10    1    1      0.44      0.00
   -9    1    1      0.33      0.00
   -8    1    1      0.06      0.00
   -7    1    1      1.37      0.00
   -6    1    1     -0.14      0.00
   -5    1    1      0.03      0.00
   -4    1    1     -0.31      0.00
   -3    1    1     -0.97      0.00
   -2    1    1      0.71      0.00
   -1    1    1     -4.80      0.00
    0    1    1     13.00      0.00
    1    1    1     -4.12      0.00
    2    1    1      1.17      0.00
    3    1    1      0.47      0.00
    4    1    1     -1.55      0.00
    5    1    1     -0.17      0.00
    6    1    1      0.46      0.00
    7    1    1      0.51      0.00
    8    1    1     -0.32      0.00
    9    1    1      1.07      0.00
   10    1    1      1.34      0.00
   11    1    1     -0.30      0.00
   12    1    1      0.86      0.00
  -13    2    1     -0.53      0.00
  -12    2    1      0.19      0.00
  -11    2    1     -0.10      0.00
  -10    2    1      0.53      0.00
   -9    2    1     -0.52      0.00
   -8    2    1     -0.66      0.00
   -7    2    1      1.13      0.00
   -6    2    1     -0.34      0.00
   -5    2    1      0.04      0.00
   -4    2    1      0.28      0.00
   -3    2    1     -0.74      0.00
   -2    2    1      3.00      0.00
   -1    2    1     -2.75      0.00
    0    2    1      5.24      0.00
    1    2    1     -2.91      0.00
    2    2    1      1.72      0.00
    3    2    1      0.10      0.00
    4    2    1     -1.62      0.00
    5    2    1      0.48      0.00
    6    2    1      1.02      0.00
    7    2    1     -0.63      0.00
    8    2    1     -0.29      0.00
    9    2    1      0.86      0.00
   10    2    1      1.83      0.00
   11    2    1     -0.02      0.00
   12    2    1      0.87      0.00
  -13    3    1      0.31      0.00
  -12    3    1      0.57      0.00
  -11    3    1      0.23      0.00
  -10    3    1      0.55      0.00
   -9    3    1     -1.32      0.00
   -8    3    1     -0.99      0.00
   -7    3    1      0.76      0.00
   -6    3    1     -0.52      0.00
   -5    3    1     -0.03      0.00
   -4    3    1      1.10      0.00
   -3    3    1      0.56      0.00
   -2    3    1      3.10      0.00
   -1    3    1      0.28      0.00
    0    3    1      1.54      0.00
    1    3    1     -1.30      0.00
    2    3    1      1.82      0.00
    3    3    1     -0.12      0.00
    4    3    1     -0.54      0.00
    5    3    1      0.95      0.00
    6    3    1      1.06      0.00
    7    3    1     -1.45      0.00
    8    3    1     -0.13      0.00
    9    3    1      0.64      0.00
   10    3    1      1.37      0.00
   11    3    1      0.23      0.00
  -13    4    1      0.09      0.00
  -12    4    1      0.52      0.00
  -11    4    1      0.46      0.00
  -10    4    1      0.67      0.00
   -9    4    1     -1.25      0.00
   -8    4    1     -0.58      0.00
   -7    4    1      0.63      0.00
   -6    4    1     -0.42      0.00
   -5    4    1      0.17      0.00
   -4    4    1      1.29      0.00
   -3    4    1      1.06      0.00
   -2    4    1      1.41      0.00
   -1    4    1      1.72      0.00
    0    4    1      1.26      0.00
    1    4    1     -0.65      0.00
    2    4    1      0.70      0.00
    3    4    1     -0.25      0.00
    4    4    1      0.34      0.00
    5    4    1      0.38      0.00
    6    4    1      0.50      0.00
    7    4    1     -1.28      0.00
    8    4    1      0.12      0.00
    9    4    1      0.60      0.00
   10    4    1      0.67      0.00
   11    4    1      0.06      0.00
  -13    5    1     -0.84      0.00
  -12    5    1     -0.03      0.00
  -11    5    1      0.29      0.00
  -10    5    1      0.64      0.00
   -9    5    1     -0.52      0.00
   -8    5    1      0.05      0.00
   -7    5    1      0.40      0.00
   -6    5    1     -0.05      0.00
   -5    5    1      0.44      0.00
   -4    5    1      0.56      0.00
   -3    5    1      0.30      0.00
   -2    5    1     -0.31      0.00
   -1    5    1      1.42      0.00
    0    5    1      1.41      0.00
    1    5    1     -0.85      0.00
    2    5    1     -0.64      0.00
    3    5    1     -0.34      0.00
    4    5    1      0.19      0.00
    5    5    1     -1.03      0.00
    6    5    1     -0.41      0.00
    7    5    1     -0.33      0.00
    8    5    1      0.09      0.00
    9    5    1      0.54      0.00
   10    5    1      0.40      0.00
  -13    6    1     -1.74      0.00
  -12    6    1     -0.46      0.00
  -11    6    1     -0.09      0.00
  -10    6    1      0.42      0.00
   -9    6    1     -0.08      0.00
   -8    6    1      0.42      0.00
   -7    6    1     -0.06      0.00
   -6    6    1      0.35      0.00
   -5    6    1      0.46      0.00
   -4    6    1     -0.53      0.00
   -3    6    1     -0.37      0.00
   -2    6    1     -0.66      0.00
   -1    6    1      0.79      0.00
    0    6    1      1.03      0.00
    1    6    1     -0.55      0.00
    2    6    1     -0.79      0.00
    3    6    1     -0.43      0.00
    4    6    1     -0.18      0.00
    5    6    1     -2.03      0.00
    6    6    1     -1.40      0.00
    7    6    1      0.53      0.00
    8    6    1     -0.46      0.00
    9    6    1      0.25      0.00
  -13    7    1     -2.54      0.00
  -12    7    1     -0.09      0.00
  -11    7    1     -0.13      0.00
  -10    7    1      0.41      0.00
   -9    7    1     -0.40      0.00
   -8    7    1      0.51      0.00
   -7    7    1     -0.12      0.00
   -6    7    1      0.63      0.00
   -5    7    1      0.16      0.00
   -4    7    1     -1.14      0.00
   -3    7    1     -0.07      0.00
   -2    7    1      0.13      0.00
   -1    7    1      0.53      0.00
    0    7    1      0.60      0.00
    1    7    1      0.52      0.00
    2    7    1      0.16      0.00
    3    7    1     -0.78      0.00
    4    7    1      0.15      0.00
    5    7    1     -1.61      0.00
    6    7    1     -2.15      0.00
    7    7    1      0.88      0.00
    8    7    1     -1.09      0.00
    9    7    1     -0.07      0.00
  -13    8    1     -3.56      0.00
  -12    8    1      1.03      0.00
  -11    8    1      0.19      0.00
  -10    8    1      0.65      0.00
   -9    8    1     -0.94      0.00
   -8    8    1      0.33      0.00
   -7    8    1      0.47      0.00
   -6    8    1      0.84      0.00
   -5    8    1     -0.31      0.00
   -4    8    1     -0.97      0.00
   -3    8    1      0.62      0.00
   -2    8    1      0.68      0.00
   -1    8    1      0.31      0.00
    0    8    1      0.21      0.00
    1    8    1      1.05      0.00
    2    8    1      0.94      0.00
    3    8    1     -1.33      0.00
    4    8    1      0.77      0.00
    5    8    1     -0.28      0.00
    6    8    1     -2.27      0.00
    7    8    1      0.96      0.00
    8    8    1     -1.13      0.00
  -13    9    1     -4.38      0.00
  -12    9    1      2.12      0.00
  -11    9    1      0.31      0.00
  -10    9    1      0.44      0.00
   -9    9    1     -0.94      0.00
   -8    9    1     -0.02      0.00
   -7    9    1      0.74      0.00
   -6    9    1      0.98      0.00
   -5    9    1     -0.64      0.00
   -4    9    1     -0.48      0.00
   -3    9    1      0.81      0.00
   -2    9    1      0.27      0.00
   -1    9    1      0.03      0.00
    0    9    1     -0.20      0.00
    1    9    1      0.39      0.00
    2    9    1      0.69      0.00
    3    9    1     -1.39      0.00
    4    9    1      0.66      0.00
    5    9    1      0.55      0.00
    6    9    1     -1.68      0.00
    7    9    1      0.98      0.00
  -12   10    1      2.36      0.00
  -11   10    1     -0.10      0.00
  -10   10    1     -0.49      0.00
   -9   10    1     -0.36      0.00
   -8   10    1     -0.11      0.00
   -7   10    1      0.00      0.00
   -6   10    1      0.89      0.00
   -5   10    1     -0.53      0.00
   -4   10    1     -0.30      0.00
   -3   10    1      0.31      0.00
   -2   10    1     -0.42      0.00
   -1   10    1      0.05      0.00
    0   10    1     -0.32      0.00
    1   10    1     -0.21      0.00
    2   10    1     -0.33      0.00
    3   10    1     -0.59      0.00
    4   10    1     -0.20      0.00
    5   10    1      0.16      0.00
    6   10    1     -0.79      0.00
  -12   11    1      1.69      0.00
  -11   11    1     -0.70      0.00
  -10   11    1     -1.25      0.00
   -9   11    1      0.17      0.00
   -8   11    1      0.32      0.00
   -7   11    1     -0.89      0.00
   -6   11    1      0.62      0.00
   -5   11    1     -0.23      0.00
   -4   11    1     -0.56      0.00
   -3   11    1     -0.53      0.00
   -2   11    1     -0.60      0.00
   -1   11    1      0.38      0.00
    0   11    1     -0.09      0.00
    1   11    1      0.50      0.00
    2   11    1     -1.20      0.00
    3   11    1      0.37      0.00
    4   11    1     -0.85      0.00
    5   11    1     -0.68      0.00
  -11   12    1     -1.00      0.00
  -10   12    1     -0.94      0.00
   -9   12    1      0.17      0.00
   -8   12    1      0.74      0.00
   -7   12    1     -0.68      0.00
   -6   12    1      0.51      0.00
   -5   12    1     -0.33      0.00
   -4   12    1     -0.90      0.00
   -3   12    1     -1.11      0.00
   -2   12    1     -0.30      0.00
   -1   12    1      0.52      0.00
    0   12    1      0.04      0.00
    1   12    1      1.80      0.00
    2   12    1     -1.33      0.00
    3   12    1      0.59      0.00
  -11   13    1     -0.91      0.00
  -10   13    1      0.00      0.00
   -9   13    1     -0.26      0.00
   -8   13    1      0.49      0.00
   -7   13    1      0.32      0.00
   -6   13    1      0.72      0.00
   -5   13    1     -0.73      0.00
   -4   13    1     -1.00      0.00
   -3   13    1     -0.91      0.00
   -2   13    1      0.12      0.00
   -1   13    1      0.17      0.00
    0   13    1     -0.09      0.00
    1   13    1      2.13      0.00
    2   13    1     -0.87      0.00
   -9   14    1     -0.66      0.00
   -8   14    1     -0.18      0.00
   -7   14    1      0.84      0.00
   -6   14    1      0.82      0.00
   -5   14    1     -0.65      0.00
   -4   14    1     -0.80      0.00
   -3   14    1     -0.05      0.00
   -2   14    1      0.57      0.00
   -1   14    1     -0.34      0.00
    0   14    1     -0.14      0.00
   -7   15    1      0.50      0.00
   -6   15    1      0.40      0.00
   -5   15    1      0.16      0.00
   -4   15    1     -0.43      0.00
   -3   15    1      0.59      0.00
    2  -16    2      0.07      0.00
    3  -16    2      0.13      0.00
    4  -16    2      1.00      0.00
    5  -16    2      0.57      0.00
    6  -16    2      1.44      0.00
    7  -16    2      0.28      0.00
    0  -15    2      0.20      0.00
    1  -15    2     -0.71      0.00
    2  -15    2      0.11      0.00
    3  -15    2     -0.09      0.00
    4  -15    2      1.13      0.00
    5  -15    2      1.32      0.00
    6  -15    2      1.56      0.00
    7  -15    2      0.50      0.00
    8  -15    2     -0.54      0.00
    9  -15    2      1.70      0.00
   -2  -14    2      1.83      0.00
   -1  -14    2     -0.44      0.00
    0  -14    2     -0.03      0.00
    1  -14    2     -0.50      0.00
    2  -14    2     -0.23      0.00
    3  -14    2     -0.39      0.00
    4  -14    2      0.56      0.00
    5  -14    2      1.49      0.00
    6  -14    2      1.12      0.00
    7  -14    2      0.25      0.00
    8  -14    2     -0.27      0.00
    9  -14    2      0.60      0.00
   10  -14    2      0.82      0.00
   11  -14    2     -0.55      0.00
   -4  -13    2      0.42      0.00
   -3  -13    2      0.08      0.00
   -2  -13    2      1.10      0.00
   -1  -13    2     -0.13      0.00
    0  -13    2      0.04      0.00
    1  -13    2     -0.48      0.00
    2  -13    2     -0.78      0.00
    3  -13    2     -0.59      0.00
    4  -13    2      0.09      0.00
    5  -13    2      0.79      0.00
    6  -13    2      0.49      0.00
    7  -13    2     -0.17      0.00
    8  -13    2      0.45      0.00
    9  -13    2     -0.55      0.00
   10  -13    2      0.44      0.00
   11  -13    2     -0.26      0.00
   -5  -12    2      0.42      0.00
   -4  -12    2      1.03      0.00
   -3  -12    2      0.07      0.00
   -2  -12    2     -0.20      0.00
   -1  -12    2      0.34      0.00
    0  -12    2      0.53      0.00
    1  -12    2     -0.50      0.00
    2  -12    2     -0.75      0.00
    3  -12    2     -0.69      0.00
    4  -12    2      0.16      0.00
    5  -12    2     -0.04      0.00
    6  -12    2     -0.05      0.00
    7  -12    2     -0.55      0.00
    8  -12    2      1.01      0.00
    9  -12    2     -1.00      0.00
   10  -12    2     -0.15      0.00
   11  -12    2      0.66      0.00
   12  -12    2     -0.15      0.00
   -6  -11    2      0.55      0.00
   -5  -11    2      0.39      0.00
   -4  -11    2      1.11      0.00
   -3  -11    2      0.67      0.00
   -2  -11    2     -0.87      0.00
   -1  -11    2      0.53      0.00
    0  -11    2      0.78      0.00
    1  -11    2     -0.52      0.00
    2  -11    2      0.01      0.00
    3  -11    2     -0.69      0.00
    4  -11    2      0.25      0.00
    5  -11    2     -0.07      0.00
    6  -11    2     -0.28      0.00
    7  -11    2     -0.80      0.00
    8  -11    2      0.75      0.00
    9  -11    2     -0.80      0.00
   10  -11    2     -0.48      0.00
   11  -11    2      1.18      0.00
   12  -11    2      0.17      0.00
   -7  -10    2     -0.98      0.00
   -6  -10    2      0.76      0.00
   -5  -10    2      0.34      0.00
   -4  -10    2      0.33      0.00
   -3  -10    2      1.39      0.00
   -2  -10    2     -0.30      0.00
   -1  -10    2      0.08      0.00
    0  -10    2      0.12      0.00
    1  -10    2     -0.67      0.00
    2  -10    2      0.57      0.00
    3  -10    2     -0.72      0.00
    4  -10    2     -0.11      0.00
    5  -10    2      0.61      0.00
    6  -10    2     -0.07      0.00
    7  -10    2     -0.53      0.00
    8  -10    2     -0.21      0.00
    9  -10    2     -0.49      0.00
   10  -10    2     -0.14      0.00
   11  -10    2      0.84      0.00
   12  -10    2      0.24      0.00
   13  -10    2     -0.06      0.00
   -8   -9    2      0.34      0.00
   -7   -9    2     -0.99      0.00
   -6   -9    2      0.88      0.00
   -5   -9    2      0.27      0.00
   -4   -9    2     -0.55      0.00
   -3   -9    2      1.38      0.00
   -2   -9    2      0.66      0.00
   -1   -9    2     -0.43      0.00
    0   -9    2     -0.74      0.00
    1   -9    2     -0.83      0.00
    2   -9    2      0.35      0.00
    3   -9    2     -0.91      0.00
    4   -9    2     -0.36      0.00
    5   -9    2      1.30      0.00
    6   -9    2      0.22      0.00
    7   -9    2      0.51      0.00
    8   -9    2     -0.90      0.00
    9   -9    2     -0.43      0.00
   10   -9    2      0.68      0.00
   11   -9    2      0.24      0.00
   12   -9    2     -0.13      0.00
   13   -9    2     -0.36      0.00
   -9   -8    2     -1.03      0.00
   -8   -8    2      0.40      0.00
   -7   -8    2     -0.78      0.00
   -6   -8    2      0.42      0.00
   -5   -8    2      0.00      0.00
   -4   -8    2     -0.65      0.00
   -3   -8    2      0.56      0.00
   -2   -8    2      0.69      0.00
   -1   -8    2     -0.11      0.00
    0   -8    2     -0.08      0.00
    1   -8    2     -0.70      0.00
    2   -8    2     -0.11      0.00
    3   -8    2     -1.08      0.00
    4   -8    2      0.13      0.00
    5   -8    2      1.59      0.00
    6   -8    2      0.09      0.00
    7   -8    2      1.66      0.00
    8   -8    2     -0.66      0.00
    9   -8    2     -0.53      0.00
   10   -8    2      1.24      0.00
   11   -8    2      0.04      0.00
   12   -8    2     -0.47      0.00
   13   -8    2     -0.42      0.00
  -10   -7    2     -0.47      0.00
   -9   -7    2     -1.22      0.00
   -8   -7    2      0.39      0.00
   -7   -7    2     -0.83      0.00
   -6   -7    2     -0.35      0.00
   -5   -7    2     -0.28      0.00
   -4   -7    2     -0.22      0.00
   -3   -7    2     -0.28      0.00
   -2   -7    2     -0.19      0.00
   -1   -7    2      0.72      0.00
    0   -7    2      2.08      0.00
    1   -7    2     -0.27      0.00
    2   -7    2     -0.30      0.00
    3   -7    2     -0.80      0.00
    4   -7    2      0.86      0.00
    5   -7    2      1.39      0.00
    6   -7    2     -0.33      0.00
    7   -7    2      1.82      0.00
    8   -7    2      0.04      0.00
    9   -7    2     -0.47      0.00
   10   -7    2      1.16      0.00
   11   -7    2      0.07      0.00
   12   -7    2     -0.22      0.00
   13   -7    2     -0.31      0.00
  -10   -6    2     -0.46      0.00
   -9   -6    2     -1.36      0.00
   -8   -6    2      0.25      0.00
   -7   -6    2     -1.11      0.00
   -6   -6    2     -0.62      0.00
   -5   -6    2     -0.11      0.00
   -4   -6    2     -0.22      0.00
   -3   -6    2     -0.51      0.00
   -2   -6    2     -0.49      0.00
   -1   -6    2      0.74      0.00
    0   -6    2      2.96      0.00
    1   -6    2      0.34      0.00
    2   -6    2     -0.61      0.00
    3   -6    2     -0.22      0.00
    4   -6    2      0.89      0.00
    5   -6    2      0.64      0.00
    6   -6    2     -0.37      0.00
    7   -6    2      0.90      0.00
    8   -6    2      0.28      0.00
    9   -6    2     -0.13      0.00
   10   -6    2      1.03      0.00
   11   -6    2     -0.14      0.00
   12   -6    2      0.54      0.00
   13   -6    2     -0.23      0.00
  -11   -5    2     -0.46      0.00
  -10   -5    2      0.27      0.00
   -9   -5    2     -1.32      0.00
   -8   -5    2     -0.09      0.00
   -7   -5    2     -1.30      0.00
   -6   -5    2     -0.17      0.00
   -5   -5    2      0.34      0.00
   -4   -5    2     -0.72      0.00
   -3   -5    2     -0.18      0.00
   -2   -5    2      0.47      0.00
   -1   -5    2      0.01      0.00
    0   -5    2      0.54      0.00
    1   -5    2      1.20      0.00
    2   -5    2     -1.13      0.00
    3   -5    2     -0.01      0.00
    4   -5    2      0.31      0.00
    5   -5    2     -0.27      0.00
    6   -5    2      0.25      0.00
    7   -5    2     -0.01      0.00
    8   -5    2     -0.14      0.00
    9   -5    2      0.25      0.00
   10   -5    2      1.44      0.00
   11   -5    2     -0.39      0.00
   12   -5    2      0.98      0.00
   13   -5    2     -0.24      0.00
  -11   -4    2     -0.58      0.00
  -10   -4    2      0.96      0.00
   -9   -4    2     -1.16      0.00
   -8   -4    2     -0.67      0.00
   -7   -4    2     -1.34      0.00
   -6   -4    2      0.32      0.00
   -5   -4    2      0.16      0.00
   -4   -4    2     -0.67      0.00
   -3   -4    2      0.68      0.00
   -2   -4    2      1.31      0.00
   -1   -4    2      0.21      0.00
    0   -4    2     -2.65      0.00
    1   -4    2      2.15      0.00
    2   -4    2     -1.14      0.00
    3   -4    2     -0.38      0.00
    4   -4    2      0.21      0.00
    5   -4    2     -0.56      0.00
    6   -4    2      1.13      0.00
    7   -4    2     -0.04      0.00
    8   -4    2     -0.61      0.00
    9   -4    2      0.45      0.00
   10   -4    2      1.94      0.00
   11   -4    2     -0.17      0.00
   12   -4    2      0.47      0.00
   13   -4    2     -0.30      0.00
  -12   -3    2      0.60      0.00
  -11   -3    2     -0.87      0.00
  -10   -3    2      0.89      0.00
   -9   -3    2     -0.92      0.00
   -8   -3    2     -1.16      0.00
   -7   -3    2     -1.24      0.00
   -6   -3    2      0.38      0.00
   -5   -3    2     -0.88      0.00
   -4   -3    2      0.43      0.00
   -3   -3    2      2.11      0.00
   -2   -3    2      0.37      0.00
   -1   -3    2      1.95      0.00
    0   -3    2     -2.23      0.00
    1   -3    2      2.23      0.00
    2   -3    2     -0.40      0.00
    3   -3    2     -0.84      0.00
    4   -3    2      1.04      0.00
    5   -3    2     -0.08      0.00
    6   -3    2      1.62      0.00
    7   -3    2      0.61      0.00
    8   -3    2     -0.72      0.00
    9   -3    2      0.59      0.00
   10   -3    2      1.56      0.00
   11   -3    2      0.40      0.00
   12   -3    2     -0.65      0.00
   13   -3    2     -0.49      0.00
  -12   -2    2      0.73      0.00
  -11   -2    2     -1.17      0.00
  -10   -2    2      0.39      0.00
   -9   -2    2     -0.43      0.00
   -8   -2    2     -1.14      0.00
   -7   -2    2     -0.84      0.00
   -6   -2    2      0.25      0.00
   -5   -2    2     -1.75      0.00
   -4   -2    2      1.40      0.00
   -3   -2    2      3.18      0.00
   -2   -2    2     -1.81      0.00
   -1   -2    2      3.25      0.00
    0   -2    2      2.07      0.00
    1   -2    2      0.43      0.00
    2   -2    2      0.11      0.00
    3   -2    2     -1.02      0.00
    4   -2    2      1.77      0.00
    5   -2    2      0.29      0.00
    6   -2    2      1.45      0.00
    7   -2    2      1.24      0.00
    8   -2    2     -0.71      0.00
    9   -2    2      0.89      0.00
   10   -2    2      0.37      0.00
   11   -2    2      0.63      0.00
   12   -2    2     -1.37      0.00
   13   -2    2     -0.77      0.00
  -12   -1    2      0.44      0.00
  -11   -1    2     -1.22      0.00
  -10   -1    2      0.21      0.00
   -9   -1    2      0.28      0.00
   -8   -1    2     -0.78      0.00
   -7   -1    2     -0.15      0.00
   -6   -1    2      0.16      0.00
   -5   -1    2     -1.59      0.00
   -4   -1    2      0.92      0.00
   -3   -1    2      2.39      0.00
   -2   -1    2     -2.97      0.00
   -1   -1    2      2.16      0.00
    0   -1    2      5.85      0.00
    1   -1    2     -2.66      0.00
    2   -1    2      0.00      0.00
    3   -1    2     -0.90      0.00
    4   -1    2      1.30      0.00
    5   -1    2     -0.10      0.00
    6   -1    2      0.92      0.00
    7   -1    2      1.36      0.00
    8   -1    2     -0.95      0.00
    9   -1    2      1.16      0.00
   10   -1    2     -0.59      0.00
   11   -1    2      0.17      0.00
   12   -1    2     -1.19      0.00
  -13    0    2     -1.21      0.00
  -12    0    2      0.23      0.00
  -11    0    2     -0.96      0.00
  -10    0    2      0.33      0.00
   -9    0    2      0.69      0.00
   -8    0    2     -0.66      0.00
   -7    0    2      0.37      0.00
   -6    0    2     -0.07      0.00
   -5    0    2     -0.90      0.00
   -4    0    2     -0.57      0.00
   -3    0    2     -0.17      0.00
   -2    0    2     -1.91      0.00
   -1    0    2     -0.48      0.00
    0    0    2      5.93      0.00
    1    0    2     -4.70      0.00
    2    0    2      0.30      0.00
    3    0    2     -0.39      0.00
    4    0    2     -0.03      0.00
    5    0    2     -0.62      0.00
    6    0    2      0.64      0.00
    7    0    2      0.81      0.00
    8    0    2     -1.40      0.00
    9    0    2      1.02      0.00
   10    0    2     -0.69      0.00
   11    0    2     -0.50      0.00
   12    0    2     -0.54      0.00
  -13    1    2     -0.65      0.00
  -12    1    2      0.29      0.00
  -11    1    2     -0.41      0.00
  -10    1    2      0.37      0.00
   -9    1    2      0.32      0.00
   -8    1    2     -0.84      0.00
   -7    1    2      0.46      0.00
   -6    1    2     -0.47      0.00
   -5    1    2     -0.55      0.00
   -4    1    2     -1.38      0.00
   -3    1    2     -2.29      0.00
   -2    1    2      0.28      0.00
   -1    1    2     -2.32      0.00
    0    1    2      3.70      0.00
    2    1    2      1.60      0.00
    3    1    2      0.45      0.00
    4    1    2     -0.82      0.00
    5    1    2     -0.26      0.00
    6    1    2      0.92      0.00
    7    1    2     -0.29      0.00
    8    1    2     -1.58      0.00
    9    1    2      0.53      0.00
   10    1    2     -0.35      0.00
   11    1    2     -0.74      0.00
   12    1    2     -0.08      0.00
  -13    2    2      0.00      0.00
  -12    2    2      0.37      0.00
  -11    2    2      0.22      0.00
  -10    2    2      0.37      0.00
   -9    2    2     -0.54      0.00
   -8    2    2     -0.81      0.00
   -7    2    2      0.39      0.00
   -6    2    2     -0.69      0.00
   -5    2    2     -0.52      0.00
   -4    2    2     -0.72      0.00
   -3    2    2     -2.26      0.00
   -2    2    2      1.71      0.00
   -1    2    2     -2.33      0.00
    0    2    2      2.02      0.00
    1    2    2     -1.62      0.00
    2    2    2      2.67      0.00
    3    2    2      0.99      0.00
    4    2    2     -0.46      0.00
    5    2    2      0.82      0.00
    6    2    2      1.47      0.00
    7    2    2     -1.40      0.00
    8    2    2     -1.07      0.00
    9    2    2      0.17      0.00
   10    2    2     -0.09      0.00
   11    2    2     -0.43      0.00
  -13    3    2      0.03      0.00
  -12    3    2      0.24      0.00
  -11    3    2      0.60      0.00
  -10    3    2      0.61      0.00
   -9    3    2     -0.97      0.00
   -8    3    2     -0.39      0.00
   -7    3    2      0.35      0.00
   -6    3    2     -0.52      0.00
   -5    3    2     -0.31      0.00
   -4    3    2      0.49      0.00
   -3    3    2     -0.82      0.00
   -2    3    2      1.73      0.00
   -1    3    2     -1.27      0.00
    0    3    2      1.57      0.00
    1    3    2     -0.27      0.00
    2    3    2      2.15      0.00
    3    3    2      0.78      0.00
    4    3    2      0.23      0.00
    5    3    2      1.47      0.00
    6    3    2      1.81      0.00
    7    3    2     -1.83      0.00
    8    3    2      0.04      0.00
    9    3    2      0.19      0.00
   10    3    2      0.13      0.00
   11    3    2      0.05      0.00
  -13    4    2     -0.42      0.00
  -12    4    2     -0.08      0.00
  -11    4    2      0.48      0.00
  -10    4    2      0.82      0.00
   -9    4    2     -0.55      0.00
   -8    4    2      0.03      0.00
   -7    4    2     -0.01      0.00
   -6    4    2     -0.19      0.00
   -5    4    2      0.09      0.00
   -4    4    2      0.89      0.00
   -3    4    2      0.24      0.00
   -2    4    2      1.21      0.00
   -1    4    2     -0.07      0.00
    0    4    2      1.52      0.00
    1    4    2     -0.69      0.00
    2    4    2      0.58      0.00
    3    4    2      0.32      0.00
    4    4    2      0.42      0.00
    5    4    2      1.06      0.00
    6    4    2      1.70      0.00
    7    4    2     -1.42      0.00
    8    4    2      0.97      0.00
    9    4    2      0.32      0.00
   10    4    2      0.47      0.00
  -13    5    2     -0.89      0.00
  -12    5    2     -0.44      0.00
  -11    5    2      0.04      0.00
  -10    5    2      0.57      0.00
   -9    5    2      0.17      0.00
   -8    5    2      0.32      0.00
   -7    5    2     -0.73      0.00
   -6    5    2      0.10      0.00
   -5    5    2      0.34      0.00
   -4    5    2      0.20      0.00
   -3    5    2      0.31      0.00
   -2    5    2      1.21      0.00
   -1    5    2      0.80      0.00
    0    5    2      1.49      0.00
    1    5    2     -1.16      0.00
    2    5    2     -0.46      0.00
    3    5    2      0.23      0.00
    4    5    2      0.47      0.00
    5    5    2      0.26      0.00
    6    5    2      1.14      0.00
    7    5    2     -0.58      0.00
    8    5    2      1.07      0.00
    9    5    2      0.28      0.00
   10    5    2      0.72      0.00
  -13    6    2     -1.52      0.00
  -12    6    2     -0.66      0.00
  -11    6    2     -0.29      0.00
  -10    6    2      0.15      0.00
   -9    6    2      0.23      0.00
   -8    6    2      0.68      0.00
   -7    6    2     -0.89      0.00
   -6    6    2      0.41      0.00
   -5    6    2      0.33      0.00
   -4    6    2     -0.72      0.00
   -3    6    2      0.07      0.00
   -2    6    2      1.76      0.00
   -1    6    2      1.11      0.00
    0    6    2      1.34      0.00
    1    6    2     -0.32      0.00
    2    6    2     -0.35      0.00
    3    6    2      0.05      0.00
    4    6    2      1.07      0.00
    5    6    2      0.10      0.00
    6    6    2      0.20      0.00
    7    6    2      0.26      0.00
    8    6    2      0.53      0.00
    9    6    2      0.27      0.00
  -13    7    2     -2.77      0.00
  -12    7    2     -0.41      0.00
  -11    7    2     -0.45      0.00
  -10    7    2      0.01      0.00
   -9    7    2     -0.55      0.00
   -8    7    2      0.93      0.00
   -7    7    2      0.08      0.00
   -6    7    2      0.78      0.00
   -5    7    2      0.15      0.00
   -4    7    2     -1.00      0.00
   -3    7    2      0.15      0.00
   -2    7    2      1.92      0.00
   -1    7    2      0.95      0.00
    0    7    2      0.76      0.00
    1    7    2      0.73      0.00
    2    7    2      0.25      0.00
    3    7    2     -0.90      0.00
    4    7    2      1.87      0.00
    5    7    2      0.65      0.00
    6    7    2     -0.95      0.00
    7    7    2      0.88      0.00
    8    7    2      0.06      0.00
  -13    8    2     -4.34      0.00
  -12    8    2      0.55      0.00
  -11    8    2     -0.66      0.00
  -10    8    2     -0.01      0.00
   -9    8    2     -1.33      0.00
   -8    8    2      0.66      0.00
   -7    8    2      1.20      0.00
   -6    8    2      1.01      0.00
   -5    8    2     -0.07      0.00
   -4    8    2     -0.71      0.00
   -3    8    2      0.61      0.00
   -2    8    2      1.08      0.00
   -1    8    2      0.75      0.00
    0    8    2      0.00      0.00
    1    8    2      0.47      0.00
    2    8    2      0.62      0.00
    3    8    2     -1.96      0.00
    4    8    2      1.91      0.00
    5    8    2      1.03      0.00
    6    8    2     -1.85      0.00
    7    8    2      1.16      0.00
  -13    9    2     -5.00      0.00
  -12    9    2      1.83      0.00
  -11    9    2     -0.87      0.00
  -10    9    2     -0.36      0.00
   -9    9    2     -1.16      0.00
   -8    9    2      0.20      0.00
   -7    9    2      1.12      0.00
   -6    9    2      1.03      0.00
   -5    9    2     -0.13      0.00
   -4    9    2     -0.54      0.00
   -3    9    2      0.97      0.00
   -2    9    2     -0.20      0.00
   -1    9    2      0.74      0.00
    0    9    2     -0.15      0.00
    1    9    2     -0.54      0.00
    2    9    2      0.58      0.00
    3    9    2     -1.81      0.00
    4    9    2      1.06      0.00
    5    9    2      0.67      0.00
    6    9    2     -2.01      0.00
  -12   10    2      2.50      0.00
  -11   10    2     -0.80      0.00
  -10   10    2     -0.75      0.00
   -9   10    2     -0.18      0.00
   -8   10    2      0.40      0.00
   -7   10    2      0.02      0.00
   -6   10    2      1.05      0.00
   -5   10    2      0.03      0.00
   -4   10    2     -0.86      0.00
   -3   10    2      0.65      0.00
   -2   10    2     -1.01      0.00
   -1   10    2      0.62      0.00
    0   10    2      0.28      0.00
    1   10    2     -0.60      0.00
    2   10    2      0.27      0.00
    3   10    2     -0.44      0.00
    4   10    2      0.12      0.00
    5   10    2      0.01      0.00
  -12   11    2      1.92      0.00
  -11   11    2     -0.49      0.00
  -10   11    2     -0.56      0.00
   -9   11    2      0.54      0.00
   -8   11    2      1.16      0.00
   -7   11    2     -0.70      0.00
   -6   11    2      1.31      0.00
   -5   11    2      0.02      0.00
   -4   11    2     -1.40      0.00
   -3   11    2     -0.36      0.00
   -2   11    2     -1.14      0.00
   -1   11    2      0.14      0.00
    0   11    2      0.40      0.00
    1   11    2      0.57      0.00
    2   11    2     -0.13      0.00
    3   11    2      0.77      0.00
    4   11    2     -0.27      0.00
  -11   12    2     -0.35      0.00
  -10   12    2      0.06      0.00
   -9   12    2      0.28      0.00
   -8   12    2      1.43      0.00
   -7   12    2     -0.55      0.00
   -6   12    2      1.63      0.00
   -5   12    2     -0.46      0.00
   -4   12    2     -1.69      0.00
   -3   12    2     -1.13      0.00
   -2   12    2     -0.92      0.00
   -1   12    2     -0.32      0.00
    0   12    2     -0.05      0.00
    1   12    2      1.62      0.00
    2   12    2     -0.40      0.00
    3   12    2      0.89      0.00
  -10   13    2      0.38      0.00
   -9   13    2     -0.54      0.00
   -8   13    2      0.84      0.00
   -7   13    2     -0.27      0.00
   -6   13    2      1.44      0.00
   -5   13    2     -0.93      0.00
   -4   13    2     -1.60      0.00
   -3   13    2     -0.90      0.00
   -2   13    2     -0.52      0.00
   -1   13    2     -0.35      0.00
    0   13    2     -0.33      0.00
    1   13    2      1.53      0.00
   -8   14    2      0.16      0.00
   -7   14    2     -0.34      0.00
   -6   14    2      0.54      0.00
   -5   14    2     -0.79      0.00
   -4   14    2     -1.26      0.00
   -3   14    2     -0.09      0.00
   -2   14    2      0.00      0.00
   -1   14    2     -0.05      0.00
    1  -16    3     -0.61      0.00
    2  -16    3      0.07      0.00
    3  -16    3     -0.91      0.00
    4  -16    3      0.63      0.00
    5  -16    3      0.28      0.00
    6  -16    3      0.01      0.00
    7  -16    3     -0.66      0.00
    8  -16    3     -1.08      0.00
   -1  -15    3     -0.26      0.00
    0  -15    3      0.25      0.00
    1  -15    3     -0.53      0.00
    2  -15    3      0.00      0.00
    3  -15    3     -1.45      0.00
    4  -15    3     -0.12      0.00
    5  -15    3      0.59      0.00
    6  -15    3      0.05      0.00
    7  -15    3     -0.34      0.00
    8  -15    3     -1.41      0.00
    9  -15    3      0.76      0.00
   10  -15    3      0.44      0.00
   -3  -14    3     -0.17      0.00
   -2  -14    3      0.87      0.00
   -1  -14    3     -0.45      0.00
    0  -14    3      0.02      0.00
    1  -14    3     -0.71      0.00
    2  -14    3     -0.58      0.00
    3  -14    3     -1.37      0.00
    4  -14    3     -0.94      0.00
    5  -14    3      0.41      0.00
    6  -14    3      0.32      0.00
    7  -14    3      0.41      0.00
    8  -14    3     -0.65      0.00
    9  -14    3      0.20      0.00
   10  -14    3      0.98      0.00
   11  -14    3     -0.07      0.00
   -4  -13    3      1.13      0.00
   -3  -13    3     -0.53      0.00
   -2  -13    3      0.53      0.00
   -1  -13    3     -0.07      0.00
    0  -13    3      0.13      0.00
    1  -13    3     -0.76      0.00
    2  -13    3     -1.01      0.00
    3  -13    3     -0.67      0.00
    4  -13    3     -0.82      0.00
    5  -13    3     -0.09      0.00
    6  -13    3      0.47      0.00
    7  -13    3      0.86      0.00
    8  -13    3      0.78      0.00
    9  -13    3     -0.23      0.00
   10  -13    3      1.16      0.00
   11  -13    3      1.10      0.00
   -5  -12    3      0.04      0.00
   -4  -12    3      1.96      0.00
   -3  -12    3     -0.35      0.00
   -2  -12    3     -0.17      0.00
   -1  -12    3      0.62      0.00
    0  -12    3      0.46      0.00
    1  -12    3     -0.60      0.00
    2  -12    3     -0.63      0.00
    3  -12    3      0.08      0.00
    4  -12    3      0.03      0.00
    5  -12    3     -0.30      0.00
    6  -12    3      0.31      0.00
    7  -12    3      0.42      0.00
    8  -12    3      1.56      0.00
    9  -12    3     -0.31      0.00
   10  -12    3      0.71      0.00
   11  -12    3      2.20      0.00
   12  -12    3      0.92      0.00
   -7  -11    3     -0.07      0.00
   -6  -11    3      0.25      0.00
   -5  -11    3     -0.14      0.00
   -4  -11    3      1.68      0.00
   -3  -11    3      0.36      0.00
   -2  -11    3     -0.35      0.00
   -1  -11    3      0.60      0.00
    0  -11    3      0.24      0.00
    1  -11    3     -0.61      0.00
    2  -11    3      0.04      0.00
    3  -11    3      0.26      0.00
    4  -11    3      0.57      0.00
    5  -11    3     -0.06      0.00
    6  -11    3      0.11      0.00
    7  -11    3     -0.26      0.00
    8  -11    3      0.93      0.00
    9  -11    3     -0.09      0.00
   10  -11    3      0.20      0.00
   11  -11    3      2.24      0.00
   12  -11    3      1.50      0.00
   -7  -10    3     -0.48      0.00
   -6  -10    3      0.68      0.00
   -5  -10    3      0.13      0.00
   -4  -10    3      0.78      0.00
   -3  -10    3      0.92      0.00
   -2  -10    3      0.33      0.00
   -1  -10    3     -0.38      0.00
    0  -10    3     -0.76      0.00
    1  -10    3     -0.80      0.00
    2  -10    3      0.10      0.00
    3  -10    3     -0.34      0.00
    4  -10    3      0.52      0.00
    5  -10    3      0.28      0.00
    6  -10    3     -0.04      0.00
    7  -10    3      0.00      0.00
    8  -10    3     -0.35      0.00
    9  -10    3      0.14      0.00
   10  -10    3      0.36      0.00
   11  -10    3      1.33      0.00
   12  -10    3      1.35      0.00
   13  -10    3     -0.44      0.00
   -8   -9    3      0.97      0.00
   -7   -9    3     -0.84      0.00
   -6   -9    3      0.68      0.00
   -5   -9    3      0.45      0.00
   -4   -9    3      0.33      0.00
   -3   -9    3      0.79      0.00
   -2   -9    3      0.97      0.00
   -1   -9    3     -1.14      0.00
    0   -9    3     -1.38      0.00
    1   -9    3     -0.75      0.00
    2   -9    3     -0.31      0.00
    3   -9    3     -1.30      0.00
    4   -9    3      0.48      0.00
    5   -9    3      0.53      0.00
    6   -9    3     -0.39      0.00
    7   -9    3      1.17      0.00
    8   -9    3     -0.93      0.00
    9   -9    3      0.14      0.00
   10   -9    3      0.95      0.00
   11   -9    3      0.36      0.00
   12   -9    3      0.32      0.00
   13   -9    3     -0.44      0.00
   -9   -8    3     -0.87      0.00
   -8   -8    3      1.21      0.00
   -7   -8    3     -1.26      0.00
   -6   -8    3      0.11      0.00
   -5   -8    3      0.41      0.00
   -4   -8    3      0.43      0.00
   -3   -8    3      0.19      0.00
   -2   -8    3      0.44      0.00
   -1   -8    3     -0.85      0.00
    0   -8    3     -0.41      0.00
    1   -8    3     -0.67      0.00
    2   -8    3     -0.39      0.00
    3   -8    3     -1.81      0.00
    4   -8    3      0.72      0.00
    5   -8    3      0.63      0.00
    6   -8    3     -0.88      0.00
    7   -8    3      1.90      0.00
    8   -8    3     -0.46      0.00
    9   -8    3     -0.01      0.00
   10   -8    3      1.02      0.00
   11   -8    3     -0.11      0.00
   12   -8    3     -0.92      0.00
   13   -8    3     -0.36      0.00
  -10   -7    3     -0.38      0.00
   -9   -7    3     -0.97      0.00
   -8   -7    3      1.30      0.00
   -7   -7    3     -1.64      0.00
   -6   -7    3     -0.23      0.00
   -5   -7    3      0.41      0.00
   -4   -7    3      0.14      0.00
   -3   -7    3     -0.36      0.00
   -2   -7    3     -0.96      0.00
   -1   -7    3     -0.54      0.00
    0   -7    3      1.37      0.00
    1   -7    3     -1.15      0.00
    2   -7    3     -0.22      0.00
    3   -7    3     -1.40      0.00
    4   -7    3      0.79      0.00
    5   -7    3      0.40      0.00
    6   -7    3     -0.95      0.00
    7   -7    3      1.43      0.00
    8   -7    3      0.18      0.00
    9   -7    3     -0.07      0.00
   10   -7    3      0.44      0.00
   11   -7    3     -0.33      0.00
   12   -7    3     -1.35      0.00
   13   -7    3     -0.60      0.00
  -10   -6    3      0.13      0.00
   -9   -6    3     -0.80      0.00
   -8   -6    3      1.27      0.00
   -7   -6    3     -1.67      0.00
   -6   -6    3      0.15      0.00
   -5   -6    3      0.86      0.00
   -4   -6    3     -0.84      0.00
   -3   -6    3     -0.69      0.00
   -2   -6    3     -1.67      0.00
   -1   -6    3     -1.45      0.00
    0   -6    3      1.76      0.00
    1   -6    3     -1.89      0.00
    2   -6    3     -0.41      0.00
    3   -6    3     -0.46      0.00
    4   -6    3      0.53      0.00
    5   -6    3     -0.13      0.00
    6   -6    3     -0.27      0.00
    7   -6    3      0.49      0.00
    8   -6    3      0.20      0.00
    9   -6    3     -0.03      0.00
   10   -6    3      0.07      0.00
   11   -6    3     -0.58      0.00
   12   -6    3     -0.72      0.00
   13   -6    3     -0.94      0.00
  -11   -5    3      0.12      0.00
  -10   -5    3      0.82      0.00
   -9   -5    3     -0.59      0.00
   -8   -5    3      0.88      0.00
   -7   -5    3     -1.37      0.00
   -6   -5    3      0.66      0.00
   -5   -5    3      1.09      0.00
   -4   -5    3     -1.32      0.00
   -3   -5    3     -0.64      0.00
   -2   -5    3     -0.94      0.00
   -1   -5    3     -2.49      0.00
    0   -5    3      0.13      0.00
    1   -5    3     -1.56      0.00
    2   -5    3     -0.88      0.00
    3   -5    3      0.23      0.00
    4   -5    3      0.51      0.00
    5   -5    3     -0.30      0.00
    6   -5    3      0.79      0.00
    7   -5    3      0.08      0.00
    8   -5    3     -0.19      0.00
    9   -5    3     -0.07      0.00
   10   -5    3      0.44      0.00
   11   -5    3     -0.64      0.00
   12   -5    3      0.21      0.00
   13   -5    3     -0.78      0.00
  -11   -4    3     -0.40      0.00
  -10   -4    3      0.83      0.00
   -9   -4    3     -0.63      0.00
   -8   -4    3      0.09      0.00
   -7   -4    3     -1.00      0.00
   -6   -4    3      0.60      0.00
   -5   -4    3      0.20      0.00
   -4   -4    3     -0.27      0.00
   -3   -4    3      0.22      0.00
   -2   -4    3      0.14      0.00
   -1   -4    3     -1.37      0.00
    0   -4    3     -1.63      0.00
    1   -4    3      0.15      0.00
    2   -4    3     -1.20      0.00
    3   -4    3      0.18      0.00
    4   -4    3      1.17      0.00
    5   -4    3      0.27      0.00
    6   -4    3      1.59      0.00
    7   -4    3      0.26      0.00
    8   -4    3     -0.36      0.00
    9   -4    3     -0.05      0.00
   10   -4    3      0.96      0.00
   11   -4    3     -0.21      0.00
   12   -4    3      0.52      0.00
   13   -4    3     -0.04      0.00
  -12   -3    3      0.83      0.00
  -11   -3    3     -1.15      0.00
  -10   -3    3      0.34      0.00
   -9   -3    3     -0.67      0.00
   -8   -3    3     -0.65      0.00
   -7   -3    3     -0.59      0.00
   -6   -3    3      0.18      0.00
   -5   -3    3     -1.34      0.00
   -4   -3    3      1.37      0.00
   -3   -3    3      1.70      0.00
   -2   -3    3      0.09      0.00
   -1   -3    3      2.11      0.00
    0   -3    3     -1.84      0.00
    1   -3    3      1.49      0.00
    2   -3    3     -1.49      0.00
    3   -3    3     -0.61      0.00
    4   -3    3      1.96      0.00
    5   -3    3      0.89      0.00
    6   -3    3      1.75      0.00
    7   -3    3      0.51      0.00
    8   -3    3     -0.22      0.00
    9   -3    3      0.33      0.00
   10   -3    3      0.85      0.00
   11   -3    3      0.48      0.00
   12   -3    3      0.11      0.00
   13   -3    3      0.57      0.00
  -12   -2    3      0.43      0.00
  -11   -2    3     -1.69      0.00
  -10   -2    3      0.23      0.00
   -9   -2    3     -0.27      0.00
   -8   -2    3     -1.00      0.00
   -7   -2    3     -0.08      0.00
   -6   -2    3     -0.03      0.00
   -5   -2    3     -2.02      0.00
   -4   -2    3      1.68      0.00
   -3   -2    3      2.47      0.00
   -2   -2    3     -0.98      0.00
   -1   -2    3      5.35      0.00
    0   -2    3     -1.09      0.00
    1   -2    3      0.63      0.00
    2   -2    3     -1.80      0.00
    3   -2    3     -1.56      0.00
    4   -2    3      1.94      0.00
    5   -2    3      0.62      0.00
    6   -2    3      1.31      0.00
    7   -2    3      0.61      0.00
    8   -2    3     -0.21      0.00
    9   -2    3      0.99      0.00
   10   -2    3      0.11      0.00
   11   -2    3      0.82      0.00
   12   -2    3     -0.46      0.00
  -13   -1    3     -0.96      0.00
  -12   -1    3      0.11      0.00
  -11   -1    3     -1.72      0.00
  -10   -1    3      0.62      0.00
   -9   -1    3      0.45      0.00
   -8   -1    3     -1.11      0.00
   -7   -1    3      0.38      0.00
   -6   -1    3      0.04      0.00
   -5   -1    3     -1.24      0.00
   -4   -1    3      0.37      0.00
   -3   -1    3      1.57      0.00
   -2   -1    3     -1.72      0.00
   -1   -1    3      5.83      0.00
    0   -1    3     -0.76      0.00
    1   -1    3     -1.79      0.00
    2   -1    3     -1.43      0.00
    3   -1    3     -1.69      0.00
    4   -1    3      0.95      0.00
    5   -1    3     -0.32      0.00
    6   -1    3      0.67      0.00
    7   -1    3      0.61      0.00
    8   -1    3     -0.60      0.00
    9   -1    3      1.43      0.00
   10   -1    3     -0.71      0.00
   11   -1    3      0.47      0.00
   12   -1    3     -0.82      0.00
  -13    0    3     -0.58      0.00
  -12    0    3      0.05      0.00
  -11    0    3     -1.27      0.00
  -10    0    3      0.79      0.00
   -9    0    3      0.76      0.00
   -8    0    3     -1.14      0.00
   -7    0    3      0.59      0.00
   -6    0    3      0.14      0.00
   -5    0    3      0.15      0.00
   -4    0    3     -0.74      0.00
   -3    0    3     -0.05      0.00
   -2    0    3     -1.25      0.00
   -1    0    3      3.53      0.00
    0    0    3     -0.86      0.00
    1    0    3     -3.28      0.00
    2    0    3      0.05      0.00
    3    0    3     -0.55      0.00
    4    0    3     -0.07      0.00
    5    0    3     -0.74      0.00
    6    0    3      0.30      0.00
    7    0    3      0.40      0.00
    8    0    3     -1.11      0.00
    9    0    3      1.35      0.00
   10    0    3     -1.19      0.00
   11    0    3     -0.22      0.00
   12    0    3     -1.01      0.00
  -13    1    3     -0.11      0.00
  -12    1    3      0.01      0.00
  -11    1    3     -0.60      0.00
  -10    1    3      0.47      0.00
   -9    1    3      0.25      0.00
   -8    1    3     -0.89      0.00
   -7    1    3      0.66      0.00
   -6    1    3      0.22      0.00
   -5    1    3      1.08      0.00
   -4    1    3     -0.21      0.00
   -3    1    3     -0.69      0.00
   -2    1    3     -0.04      0.00
   -1    1    3      0.50      0.00
    0    1    3     -0.69      0.00
    1    1    3     -2.69      0.00
    2    1    3      1.58      0.00
    3    1    3      0.85      0.00
    4    1    3     -0.24      0.00
    5    1    3     -0.13      0.00
    6    1    3      0.30      0.00
    7    1    3     -0.10      0.00
    8    1    3     -1.22      0.00
    9    1    3      0.93      0.00
   10    1    3     -1.21      0.00
   11    1    3     -0.64      0.00
  -13    2    3     -0.01      0.00
  -12    2    3     -0.06      0.00
  -11    2    3      0.01      0.00
  -10    2    3      0.28      0.00
   -9    2    3     -0.53      0.00
   -8    2    3     -0.31      0.00
   -7    2    3      0.66      0.00
   -6    2    3      0.23      0.00
   -5    2    3      1.20      0.00
   -4    2    3      1.25      0.00
   -3    2    3     -0.12      0.00
   -2    2    3      0.80      0.00
   -1    2    3     -1.19      0.00
    0    2    3     -0.26      0.00
    1    2    3     -1.40      0.00
    2    2    3      1.80      0.00
    3    2    3      1.14      0.00
    4    2    3      0.20      0.00
    5    2    3      0.81      0.00
    6    2    3      0.44      0.00
    7    2    3     -0.75      0.00
    8    2    3     -0.71      0.00
    9    2    3      0.40      0.00
   10    2    3     -0.85      0.00
   11    2    3     -0.51      0.00
  -13    3    3     -0.17      0.00
  -12    3    3      0.05      0.00
  -11    3    3      0.35      0.00
  -10    3    3      0.58      0.00
   -9    3    3     -0.69      0.00
   -8    3    3      0.21      0.00
   -7    3    3      0.31      0.00
   -6    3    3      0.10      0.00
   -5    3    3      0.67      0.00
   -4    3    3      1.82      0.00
   -3    3    3      0.43      0.00
   -2    3    3      0.83      0.00
   -1    3    3     -0.93      0.00
    0    3    3      0.13      0.00
    1    3    3     -1.08      0.00
    2    3    3      0.89      0.00
    3    3    3      0.39      0.00
    4    3    3      0.41      0.00
    5    3    3      1.13      0.00
    6    3    3      0.62      0.00
    7    3    3     -1.23      0.00
    8    3    3      0.04      0.00
    9    3    3     -0.22      0.00
   10    3    3     -0.40      0.00
  -13    4    3     -0.27      0.00
  -12    4    3      0.24      0.00
  -11    4    3      0.43      0.00
  -10    4    3      0.89      0.00
   -9    4    3     -0.05      0.00
   -8    4    3      0.51      0.00
   -7    4    3     -0.54      0.00
   -6    4    3     -0.01      0.00
   -5    4    3     -0.05      0.00
   -4    4    3      0.78      0.00
   -3    4    3      0.13      0.00
   -2    4    3      0.66      0.00
   -1    4    3      0.22      0.00
    0    4    3      0.64      0.00
    1    4    3     -1.35      0.00
    2    4    3      0.07      0.00
    3    4    3     -0.21      0.00
    4    4    3      0.17      0.00
    5    4    3      0.76      0.00
    6    4    3      0.90      0.00
    7    4    3     -1.30      0.00
    8    4    3      0.44      0.00
    9    4    3     -0.78      0.00
   10    4    3     -0.16      0.00
  -13    5    3     -0.27      0.00
  -12    5    3      0.08      0.00
  -11    5    3      0.43      0.00
  -10    5    3      0.74      0.00
   -9    5    3      0.58      0.00
   -8    5    3      0.92      0.00
   -7    5    3     -1.20      0.00
   -6    5    3      0.21      0.00
   -5    5    3     -0.42      0.00
   -4    5    3     -0.90      0.00
   -3    5    3     -0.69      0.00
   -2    5    3      0.99      0.00
   -1    5    3      0.78      0.00
    0    5    3      1.16      0.00
    1    5    3     -0.84      0.00
    2    5    3     -0.12      0.00
    3    5    3     -0.32      0.00
    4    5    3      0.04      0.00
    5    5    3      0.28      0.00
    6    5    3      1.04      0.00
    7    5    3     -0.93      0.00
    8    5    3      0.36      0.00
    9    5    3     -0.89      0.00
  -13    6    3     -0.43      0.00
  -12    6    3     -0.33      0.00
  -11    6    3      0.40      0.00
  -10    6    3      0.33      0.00
   -9    6    3      0.31      0.00
   -8    6    3      1.38      0.00
   -7    6    3     -0.89      0.00
   -6    6    3      0.54      0.00
   -5    6    3     -0.37      0.00
   -4    6    3     -1.88      0.00
   -3    6    3     -1.31      0.00
   -2    6    3      1.49      0.00
   -1    6    3      0.51      0.00
    0    6    3      1.06      0.00
    1    6    3      0.33      0.00
    2    6    3     -0.07      0.00
    3    6    3     -0.72      0.00
    4    6    3      0.40      0.00
    5    6    3      0.10      0.00
    6    6    3      0.56      0.00
    7    6    3     -0.35      0.00
    8    6    3      0.15      0.00
  -13    7    3     -0.90      0.00
  -12    7    3     -0.10      0.00
  -11    7    3      0.20      0.00
  -10    7    3     -0.05      0.00
   -9    7    3     -0.71      0.00
   -8    7    3      1.28      0.00
   -7    7    3      0.06      0.00
   -6    7    3      0.38      0.00
   -5    7    3     -0.32      0.00
   -4    7    3     -1.85      0.00
   -3    7    3     -1.27      0.00
   -2    7    3      1.20      0.00
   -1    7    3      0.31      0.00
    0    7    3      0.32      0.00
    1    7    3      0.71      0.00
    2    7    3     -0.04      0.00
    3    7    3     -1.54      0.00
    4    7    3      0.97      0.00
    5    7    3      0.07      0.00
    6    7    3     -0.57      0.00
    7    7    3      0.05      0.00
    8    7    3     -0.02      0.00
  -13    8    3     -1.39      0.00
  -12    8    3      1.19      0.00
  -11    8    3     -0.15      0.00
  -10    8    3     -0.45      0.00
   -9    8    3     -1.36      0.00
   -8    8    3      0.58      0.00
   -7    8    3      0.51      0.00
   -6    8    3     -0.31      0.00
   -5    8    3     -0.50      0.00
   -4    8    3     -1.50      0.00
   -3    8    3     -0.60      0.00
   -2    8    3     -0.07      0.00
   -1    8    3      0.61      0.00
    0    8    3     -0.10      0.00
    1    8    3     -0.17      0.00
    2    8    3      0.05      0.00
    3    8    3     -1.85      0.00
    4    8    3      1.29      0.00
    5    8    3     -0.05      0.00
    6    8    3     -1.53      0.00
    7    8    3      0.16      0.00
  -13    9    3     -1.53      0.00
  -12    9    3      2.57      0.00
  -11    9    3     -0.36      0.00
  -10    9    3     -0.77      0.00
   -9    9    3     -0.99      0.00
   -8    9    3      0.20      0.00
   -7    9    3      0.03      0.00
   -6    9    3     -0.72      0.00
   -5    9    3     -0.62      0.00
   -4    9    3     -1.43      0.00
   -3    9    3      0.11      0.00
   -2    9    3     -1.33      0.00
   -1    9    3      0.68      0.00
    0    9    3      0.21      0.00
    1    9    3     -1.14      0.00
    2    9    3      0.20      0.00
    3    9    3     -1.15      0.00
    4    9    3      1.20      0.00
    5    9    3     -0.12      0.00
    6    9    3     -1.55      0.00
  -12   10    3      2.59      0.00
  -11   10    3     -0.36      0.00
  -10   10    3     -0.68      0.00
   -9   10    3     -0.21      0.00
   -8   10    3      0.65      0.00
   -7   10    3     -0.72      0.00
   -6   10    3     -0.15      0.00
   -5   10    3     -0.52      0.00
   -4   10    3     -1.56      0.00
   -3   10    3      0.18      0.00
   -2   10    3     -1.63      0.00
   -1   10    3      0.07      0.00
    0   10    3      0.47      0.00
    1   10    3     -1.06      0.00
    2   10    3      0.22      0.00
    3   10    3     -0.12      0.00
    4   10    3      0.75      0.00
    5   10    3      0.08      0.00
  -11   11    3     -0.37      0.00
  -10   11    3     -0.17      0.00
   -9   11    3      0.06      0.00
   -8   11    3      1.26      0.00
   -7   11    3     -1.10      0.00
   -6   11    3      1.07      0.00
   -5   11    3     -0.50      0.00
   -4   11    3     -1.49      0.00
   -3   11    3     -0.23      0.00
   -2   11    3     -1.04      0.00
   -1   11    3     -0.50      0.00
    0   11    3      0.16      0.00
    1   11    3     -0.14      0.00
    2   11    3      0.15      0.00
    3   11    3      0.47      0.00
  -11   12    3     -0.40      0.00
  -10   12    3      0.30      0.00
   -9   12    3     -0.21      0.00
   -8   12    3      1.42      0.00
   -7   12    3     -1.14      0.00
   -6   12    3      1.92      0.00
   -5   12    3     -0.58      0.00
   -4   12    3     -1.07      0.00
   -3   12    3     -0.30      0.00
   -2   12    3     -0.33      0.00
   -1   12    3     -0.22      0.00
    0   12    3     -0.10      0.00
    1   12    3      0.67      0.00
    2   12    3      0.11      0.00
   -9   13    3     -0.36      0.00
   -8   13    3      1.36      0.00
   -7   13    3     -0.92      0.00
   -6   13    3      1.81      0.00
   -5   13    3     -0.40      0.00
   -4   13    3     -0.51      0.00
   -3   13    3      0.23      0.00
   -2   13    3     -0.02      0.00
   -1   13    3      0.55      0.00
    0   13    3      0.19      0.00
   -7   14    3     -0.36      0.00
   -6   14    3      1.09      0.00
   -5   14    3      0.08      0.00
   -4   14    3     -0.06      0.00
   -3   14    3      0.76      0.00
    1  -16    4      0.17      0.00
    2  -16    4      0.84      0.00
    3  -16    4     -0.73      0.00
    4  -16    4      0.39      0.00
    5  -16    4     -0.08      0.00
    6  -16    4     -0.81      0.00
    7  -16    4     -0.80      0.00
    8  -16    4     -0.93      0.00
   -2  -15    4     -0.79      0.00
   -1  -15    4     -0.30      0.00
    0  -15    4     -0.13      0.00
    1  -15    4     -0.19      0.00
    2  -15    4      0.42      0.00
    3  -15    4     -1.37      0.00
    4  -15    4     -0.82      0.00
    5  -15    4     -0.40      0.00
    6  -15    4     -0.64      0.00
    7  -15    4      0.00      0.00
    8  -15    4     -1.04      0.00
    9  -15    4      0.44      0.00
   10  -15    4      0.36      0.00
   -3  -14    4     -0.63      0.00
   -2  -14    4     -0.42      0.00
   -1  -14    4     -0.47      0.00
    0  -14    4     -0.19      0.00
    1  -14    4     -0.53      0.00
    2  -14    4     -0.43      0.00
    3  -14    4     -1.18      0.00
    4  -14    4     -1.46      0.00
    5  -14    4     -0.77      0.00
    6  -14    4     -0.23      0.00
    7  -14    4      0.96      0.00
    8  -14    4     -0.28      0.00
    9  -14    4      0.33      0.00
   10  -14    4      1.01      0.00
   11  -14    4      0.57      0.00
   -5  -13    4     -0.68      0.00
   -4  -13    4      0.81      0.00
   -3  -13    4     -1.22      0.00
   -2  -13    4     -0.55      0.00
   -1  -13    4      0.06      0.00
    0  -13    4      0.06      0.00
    1  -13    4     -0.49      0.00
    2  -13    4     -0.83      0.00
    3  -13    4     -0.25      0.00
    4  -13    4     -0.89      0.00
    5  -13    4     -0.73      0.00
    6  -13    4      0.12      0.00
    7  -13    4      0.94      0.00
    8  -13    4      0.78      0.00
    9  -13    4     -0.20      0.00
   10  -13    4      0.99      0.00
   11  -13    4      1.69      0.00
   -6  -12    4     -0.18      0.00
   -5  -12    4     -1.15      0.00
   -4  -12    4      0.95      0.00
   -3  -12    4     -1.43      0.00
   -2  -12    4     -1.07      0.00
   -1  -12    4      0.49      0.00
    0  -12    4      0.14      0.00
    1  -12    4     -0.46      0.00
    2  -12    4     -0.59      0.00
    3  -12    4      0.61      0.00
    4  -12    4      0.14      0.00
    5  -12    4     -0.38      0.00
    6  -12    4      0.42      0.00
    7  -12    4      0.00      0.00
    8  -12    4      1.14      0.00
    9  -12    4     -0.58      0.00
   10  -12    4      0.23      0.00
   11  -12    4      2.32      0.00
   12  -12    4      0.84      0.00
   -7  -11    4      0.50      0.00
   -6  -11    4      0.52      0.00
   -5  -11    4     -0.94      0.00
   -4  -11    4      0.61      0.00
   -3  -11    4     -1.08      0.00
   -2  -11    4     -1.08      0.00
   -1  -11    4     -0.11      0.00
    0  -11    4     -0.29      0.00
    1  -11    4     -0.54      0.00
    2  -11    4     -0.34      0.00
    3  -11    4      0.68      0.00
    4  -11    4      0.76      0.00
    5  -11    4     -0.22      0.00
    6  -11    4      0.56      0.00
    7  -11    4     -0.59      0.00
    8  -11    4      0.48      0.00
    9  -11    4     -0.39      0.00
   10  -11    4     -0.31      0.00
   11  -11    4      1.91      0.00
   12  -11    4      1.45      0.00
   -8  -10    4      0.44      0.00
   -7  -10    4     -0.02      0.00
   -6  -10    4      0.88      0.00
   -5  -10    4     -0.46      0.00
   -4  -10    4      0.44      0.00
   -3  -10    4     -0.48      0.00
   -2  -10    4     -0.11      0.00
   -1  -10    4     -1.21      0.00
    0  -10    4     -0.92      0.00
    1  -10    4     -0.15      0.00
    2  -10    4     -0.41      0.00
    3  -10    4     -0.12      0.00
    4  -10    4      0.98      0.00
    5  -10    4     -0.30      0.00
    6  -10    4      0.15      0.00
    7  -10    4     -0.11      0.00
    8  -10    4     -0.38      0.00
    9  -10    4      0.05      0.00
   10  -10    4     -0.02      0.00
   11  -10    4      0.77      0.00
   12  -10    4      1.10      0.00
   13  -10    4     -0.73      0.00
   -9   -9    4     -0.56      0.00
   -8   -9    4      0.48      0.00
   -7   -9    4     -0.83      0.00
   -6   -9    4      0.33      0.00
   -5   -9    4     -0.47      0.00
   -4   -9    4      0.66      0.00
   -3   -9    4     -0.03      0.00
   -2   -9    4      0.93      0.00
   -1   -9    4     -1.38      0.00
    0   -9    4     -1.05      0.00
    1   -9    4      0.68      0.00
    2   -9    4     -0.43      0.00
    3   -9    4     -1.19      0.00
    4   -9    4      1.11      0.00
    5   -9    4     -0.31      0.00
    6   -9    4     -0.75      0.00
    7   -9    4      0.61      0.00
    8   -9    4     -0.49      0.00
    9   -9    4      0.27      0.00
   10   -9    4      0.44      0.00
   11   -9    4     -0.21      0.00
   12   -9    4     -0.47      0.00
   13   -9    4     -0.48      0.00
   -9   -8    4     -0.65      0.00
   -8   -8    4      0.59      0.00
   -7   -8    4     -1.40      0.00
   -6   -8    4     -0.29      0.00
   -5   -8    4     -0.73      0.00
   -4   -8    4      0.64      0.00
   -3   -8    4      0.19      0.00
   -2   -8    4      0.81      0.00
   -1   -8    4     -0.49      0.00
    0   -8    4     -0.39      0.00
    1   -8    4      0.74      0.00
    2   -8    4     -0.26      0.00
    3   -8    4     -1.74      0.00
    4   -8    4      1.02      0.00
    5   -8    4     -0.36      0.00
    6   -8    4     -1.37      0.00
    7   -8    4      0.62      0.00
    8   -8    4      0.04      0.00
    9   -8    4      0.28      0.00
   10   -8    4      0.27      0.00
   11   -8    4     -0.51      0.00
   12   -8    4     -2.23      0.00
   13   -8    4     -0.71      0.00
  -10   -7    4     -0.24      0.00
   -9   -7    4     -0.36      0.00
   -8   -7    4      0.94      0.00
   -7   -7    4     -1.37      0.00
   -6   -7    4     -0.02      0.00
   -5   -7    4     -0.29      0.00
   -4   -7    4     -0.09      0.00
   -3   -7    4      0.24      0.00
   -2   -7    4     -0.19      0.00
   -1   -7    4     -0.07      0.00
    0   -7    4      0.63      0.00
    1   -7    4     -0.57      0.00
    2   -7    4     -0.17      0.00
    3   -7    4     -1.40      0.00
    4   -7    4      0.64      0.00
    5   -7    4     -0.77      0.00
    6   -7    4     -1.19      0.00
    7   -7    4      0.16      0.00
    8   -7    4      0.37      0.00
    9   -7    4      0.32      0.00
   10   -7    4     -0.31      0.00
   11   -7    4     -0.36      0.00
   12   -7    4     -2.74      0.00
   13   -7    4     -1.39      0.00
  -11   -6    4      0.66      0.00
  -10   -6    4      0.43      0.00
   -9   -6    4     -0.10      0.00
   -8   -6    4      1.15      0.00
   -7   -6    4     -0.89      0.00
   -6   -6    4      0.76      0.00
   -5   -6    4      0.72      0.00
   -4   -6    4     -0.86      0.00
   -3   -6    4      0.15      0.00
   -2   -6    4     -0.65      0.00
   -1   -6    4     -1.10      0.00
    0   -6    4      1.49      0.00
    1   -6    4     -1.85      0.00
    2   -6    4     -0.15      0.00
    3   -6    4     -0.35      0.00
    4   -6    4      0.40      0.00
    5   -6    4     -1.15      0.00
    6   -6    4     -0.49      0.00
    7   -6    4      0.04      0.00
    8   -6    4      0.11      0.00
    9   -6    4      0.26      0.00
   10   -6    4     -0.50      0.00
   11   -6    4     -0.27      0.00
   12   -6    4     -1.69      0.00
   13   -6    4     -1.69      0.00
  -11   -5    4      0.56      0.00
  -10   -5    4      0.64      0.00
   -9   -5    4     -0.37      0.00
   -8   -5    4      0.80      0.00
   -7   -5    4     -0.42      0.00
   -6   -5    4      0.95      0.00
   -5   -5    4      1.05      0.00
   -4   -5    4     -0.58      0.00
   -3   -5    4      0.07      0.00
   -2   -5    4     -0.04      0.00
   -1   -5    4     -2.36      0.00
    0   -5    4      1.98      0.00
    1   -5    4     -1.25      0.00
    2   -5    4     -0.13      0.00
    3   -5    4      0.74      0.00
    4   -5    4      0.79      0.00
    5   -5    4     -0.70      0.00
    6   -5    4      0.19      0.00
    7   -5    4      0.32      0.00
    8   -5    4     -0.26      0.00
    9   -5    4     -0.03      0.00
   10   -5    4     -0.12      0.00
   11   -5    4     -0.45      0.00
   12   -5    4     -0.20      0.00
   13   -5    4     -1.00      0.00
  -12   -4    4      1.18      0.00
  -11   -4    4     -0.08      0.00
  -10   -4    4      0.31      0.00
   -9   -4    4     -0.94      0.00
   -8   -4    4      0.11      0.00
   -7   -4    4     -0.03      0.00
   -6   -4    4      0.38      0.00
   -5   -4    4      0.12      0.00
   -4   -4    4      0.56      0.00
   -3   -4    4      0.16      0.00
   -2   -4    4      0.47      0.00
   -1   -4    4     -1.94      0.00
    0   -4    4      1.83      0.00
    1   -4    4      0.79      0.00
    2   -4    4     -0.51      0.00
    3   -4    4      0.97      0.00
    4   -4    4      1.62      0.00
    5   -4    4      0.50      0.00
    6   -4    4      0.67      0.00
    7   -4    4      0.43      0.00
    8   -4    4     -0.18      0.00
    9   -4    4     -0.33      0.00
   10   -4    4      0.33      0.00
   11   -4    4     -0.59      0.00
   12   -4    4      0.53      0.00
   13   -4    4      0.13      0.00
  -12   -3    4      0.88      0.00
  -11   -3    4     -0.87      0.00
  -10   -3    4      0.25      0.00
   -9   -3    4     -1.09      0.00
   -8   -3    4     -0.42      0.00
   -7   -3    4      0.43      0.00
   -6   -3    4     -0.22      0.00
   -5   -3    4     -1.05      0.00
   -4   -3    4      1.08      0.00
   -3   -3    4      0.25      0.00
   -2   -3    4     -0.34      0.00
   -1   -3    4      0.36      0.00
    0   -3    4      0.61      0.00
    1   -3    4      1.93      0.00
    2   -3    4     -1.44      0.00
    3   -3    4      0.01      0.00
    4   -3    4      2.15      0.00
    5   -3    4      1.31      0.00
    6   -3    4      0.85      0.00
    7   -3    4      0.14      0.00
    8   -3    4      0.23      0.00
    9   -3    4     -0.28      0.00
   10   -3    4      0.31      0.00
   11   -3    4     -0.35      0.00
   12   -3    4      0.32      0.00
  -12   -2    4      0.50      0.00
  -11   -2    4     -1.37      0.00
  -10   -2    4      0.84      0.00
   -9   -2    4     -0.57      0.00
   -8   -2    4     -0.72      0.00
   -7   -2    4      0.85      0.00
   -6   -2    4     -0.39      0.00
   -5   -2    4     -1.28      0.00
   -4   -2    4      0.11      0.00
   -3   -2    4      0.11      0.00
   -2   -2    4     -2.09      0.00
   -1   -2    4      2.87      0.00
    0   -2    4     -1.26      0.00
    1   -2    4      0.86      0.00
    2   -2    4     -1.88      0.00
    3   -2    4     -1.15      0.00
    4   -2    4      1.83      0.00
    5   -2    4      1.12      0.00
    6   -2    4      0.62      0.00
    7   -2    4     -0.19      0.00
    8   -2    4      0.42      0.00
    9   -2    4      0.16      0.00
   10   -2    4     -0.21      0.00
   11   -2    4      0.22      0.00
   12   -2    4     -0.18      0.00
  -13   -1    4     -0.30      0.00
  -12   -1    4      0.34      0.00
  -11   -1    4     -1.40      0.00
  -10   -1    4      1.37      0.00
   -9   -1    4      0.07      0.00
   -8   -1    4     -1.00      0.00
   -7   -1    4      0.95      0.00
   -6   -1    4     -0.31      0.00
   -5   -1    4     -0.60      0.00
   -4   -1    4     -1.40      0.00
   -3   -1    4      0.01      0.00
   -2   -1    4     -3.19      0.00
   -1   -1    4      3.72      0.00
    0   -1    4     -2.40      0.00
    1   -1    4     -1.12      0.00
    2   -1    4     -0.83      0.00
    3   -1    4     -1.03      0.00
    4   -1    4      0.99      0.00
    5   -1    4      0.52      0.00
    6   -1    4      0.10      0.00
    7   -1    4     -0.24      0.00
    8   -1    4      0.12      0.00
    9   -1    4      0.83      0.00
   10   -1    4     -0.80      0.00
   11   -1    4      0.72      0.00
   12   -1    4     -0.46      0.00
  -13    0    4      0.04      0.00
  -12    0    4      0.23      0.00
  -11    0    4     -1.01      0.00
  -10    0    4      1.20      0.00
   -9    0    4      0.22      0.00
   -8    0    4     -1.05      0.00
   -7    0    4      0.83      0.00
   -6    0    4     -0.23      0.00
   -5    0    4      0.16      0.00
   -4    0    4     -1.81      0.00
   -3    0    4      0.34      0.00
   -2    0    4     -2.72      0.00
   -1    0    4      2.59      0.00
    0    0    4     -2.02      0.00
    1    0    4     -1.97      0.00
    2    0    4      0.94      0.00
    3    0    4      0.37      0.00
    4    0    4      0.54      0.00
    5    0    4      0.40      0.00
    6    0    4     -0.40      0.00
    7    0    4      0.06      0.00
    8    0    4     -0.35      0.00
    9    0    4      1.51      0.00
   10    0    4     -0.90      0.00
   11    0    4      0.87      0.00
  -13    1    4      0.14      0.00
  -12    1    4      0.09      0.00
  -11    1    4     -0.34      0.00
  -10    1    4      0.77      0.00
   -9    1    4     -0.10      0.00
   -8    1    4     -0.63      0.00
   -7    1    4      0.79      0.00
   -6    1    4     -0.28      0.00
   -5    1    4      0.46      0.00
   -4    1    4     -0.78      0.00
   -3    1    4      0.77      0.00
   -2    1    4     -1.43      0.00
   -1    1    4      0.98      0.00
    0    1    4     -1.01      0.00
    1    1    4     -1.43      0.00
    2    1    4      1.68      0.00
    3    1    4      1.43      0.00
    4    1    4      0.89      0.00
    5    1    4      0.86      0.00
    6    1    4     -0.72      0.00
    7    1    4      0.51      0.00
    8    1    4     -0.45      0.00
    9    1    4      1.80      0.00
   10    1    4     -0.36      0.00
   11    1    4      0.76      0.00
  -13    2    4      0.00      0.00
  -12    2    4      0.23      0.00
  -11    2    4      0.33      0.00
  -10    2    4      0.83      0.00
   -9    2    4     -0.39      0.00
   -8    2    4     -0.05      0.00
   -7    2    4      0.75      0.00
   -6    2    4     -0.47      0.00
   -5    2    4      0.23      0.00
   -4    2    4      0.57      0.00
   -3    2    4      0.68      0.00
   -2    2    4     -0.68      0.00
   -1    2    4      0.52      0.00
    0    2    4     -0.50      0.00
    1    2    4     -0.81      0.00
    2    2    4      1.04      0.00
    3    2    4      1.08      0.00
    4    2    4      1.47      0.00
    5    2    4      1.39      0.00
    6    2    4     -0.78      0.00
    7    2    4      0.80      0.00
    8    2    4     -0.08      0.00
    9    2    4      1.35      0.00
   10    2    4      0.25      0.00
  -13    3    4     -0.21      0.00
  -12    3    4      0.66      0.00
  -11    3    4      0.71      0.00
  -10    3    4      1.19      0.00
   -9    3    4     -0.34      0.00
   -8    3    4      0.16      0.00
   -7    3    4      0.30      0.00
   -6    3    4     -0.49      0.00
   -5    3    4     -0.22      0.00
   -4    3    4      1.08      0.00
   -3    3    4      0.18      0.00
   -2    3    4     -0.73      0.00
   -1    3    4      1.22      0.00
    0    3    4     -0.32      0.00
    1    3    4     -0.75      0.00
    2    3    4      0.32      0.00
    3    3    4      0.12      0.00
    4    3    4      1.44      0.00
    5    3    4      1.56      0.00
    6    3    4     -0.33      0.00
    7    3    4      0.78      0.00
    8    3    4      0.37      0.00
    9    3    4      0.41      0.00
   10    3    4      0.35      0.00
  -13    4    4     -0.36      0.00
  -12    4    4      0.68      0.00
  -11    4    4      0.70      0.00
  -10    4    4      1.13      0.00
   -9    4    4     -0.17      0.00
   -8    4    4      0.18      0.00
   -7    4    4     -0.53      0.00
   -6    4    4      0.07      0.00
   -5    4    4     -0.38      0.00
   -4    4    4      0.57      0.00
   -3    4    4     -0.14      0.00
   -2    4    4     -0.54      0.00
   -1    4    4      1.56      0.00
    0    4    4      0.11      0.00
    1    4    4     -0.57      0.00
    2    4    4      0.43      0.00
    3    4    4     -0.24      0.00
    4    4    4      0.72      0.00
    5    4    4      1.33      0.00
    6    4    4      0.60      0.00
    7    4    4      0.63      0.00
    8    4    4      0.55      0.00
    9    4    4     -0.19      0.00
  -13    5    4     -0.29      0.00
  -12    5    4     -0.08      0.00
  -11    5    4      0.46      0.00
  -10    5    4      0.50      0.00
   -9    5    4     -0.31      0.00
   -8    5    4      0.44      0.00
   -7    5    4     -1.05      0.00
   -6    5    4      0.94      0.00
   -5    5    4     -0.06      0.00
   -4    5    4     -0.31      0.00
   -3    5    4     -0.26      0.00
   -2    5    4      0.45      0.00
   -1    5    4      0.83      0.00
    0    5    4      0.48      0.00
    1    5    4      0.24      0.00
    2    5    4      0.89      0.00
    3    5    4     -0.01      0.00
    4    5    4     -0.03      0.00
    5    5    4      0.80      0.00
    6    5    4      1.30      0.00
    7    5    4      0.54      0.00
    8    5    4      0.50      0.00
    9    5    4     -0.05      0.00
  -13    6    4      0.07      0.00
  -12    6    4     -0.81      0.00
  -11    6    4      0.21      0.00
  -10    6    4     -0.28      0.00
   -9    6    4     -0.81      0.00
   -8    6    4      0.76      0.00
   -7    6    4     -0.81      0.00
   -6    6    4      1.16      0.00
   -5    6    4      0.29      0.00
   -4    6    4     -0.94      0.00
   -3    6    4     -0.52      0.00
   -2    6    4      1.32      0.00
   -1    6    4     -0.02      0.00
    0    6    4      0.34      0.00
    1    6    4      0.89      0.00
    2    6    4      0.90      0.00
    3    6    4      0.10      0.00
    4    6    4     -0.19      0.00
    5    6    4     -0.01      0.00
    6    6    4      0.97      0.00
    7    6    4      0.39      0.00
    8    6    4      0.43      0.00
  -13    7    4      0.52      0.00
  -12    7    4     -0.40      0.00
  -11    7    4      0.05      0.00
  -10    7    4     -0.88      0.00
   -9    7    4     -1.17      0.00
   -8    7    4      0.71      0.00
   -7    7    4     -0.19      0.00
   -6    7    4      0.21      0.00
   -5    7    4      0.14      0.00
   -4    7    4     -1.20      0.00
   -3    7    4     -0.78      0.00
   -2    7    4      0.89      0.00
   -1    7    4      0.03      0.00
    0    7    4      0.12      0.00
    1    7    4      0.56      0.00
    2    7    4      0.36      0.00
    3    7    4     -0.08      0.00
    4    7    4      0.22      0.00
    5    7    4     -0.99      0.00
    6    7    4     -0.18      0.00
    7    7    4      0.03      0.00
  -13    8    4      0.67      0.00
  -12    8    4      0.91      0.00
  -11    8    4     -0.03      0.00
  -10    8    4     -1.21      0.00
   -9    8    4     -1.00      0.00
   -8    8    4      0.38      0.00
   -7    8    4      0.13      0.00
   -6    8    4     -1.12      0.00
   -5    8    4     -0.41      0.00
   -4    8    4     -1.32      0.00
   -3    8    4     -0.67      0.00
   -2    8    4     -0.52      0.00
   -1    8    4      0.42      0.00
    0    8    4      0.33      0.00
    1    8    4     -0.43      0.00
    2    8    4     -0.27      0.00
    3    8    4     -0.32      0.00
    4    8    4      0.70      0.00
    5    8    4     -1.69      0.00
    6    8    4     -1.06      0.00
  -12    9    4      1.68      0.00
  -11    9    4     -0.19      0.00
  -10    9    4     -1.16      0.00
   -9    9    4     -0.65      0.00
   -8    9    4      0.17      0.00
   -7    9    4     -0.08      0.00
   -6    9    4     -1.62      0.00
   -5    9    4     -0.92      0.00
   -4    9    4     -1.45      0.00
   -3    9    4     -0.39      0.00
   -2    9    4     -1.48      0.00
   -1    9    4      0.14      0.00
    0    9    4      0.57      0.00
    1    9    4     -1.04      0.00
    2    9    4     -0.52      0.00
    3    9    4     -0.51      0.00
    4    9    4      0.73      0.00
    5    9    4     -1.62      0.00
  -12   10    4      1.07      0.00
  -11   10    4     -0.61      0.00
  -10   10    4     -0.77      0.00
   -9   10    4     -0.64      0.00
   -8   10    4      0.11      0.00
   -7   10    4     -0.66      0.00
   -6   10    4     -0.95      0.00
   -5   10    4     -1.24      0.00
   -4   10    4     -1.44      0.00
   -3   10    4     -0.42      0.00
   -2   10    4     -1.25      0.00
   -1   10    4     -0.57      0.00
    0   10    4      0.28      0.00
    1   10    4     -0.87      0.00
    2   10    4     -0.23      0.00
    3   10    4     -0.52      0.00
    4   10    4      0.28      0.00
  -11   11    4     -1.04      0.00
  -10   11    4     -0.38      0.00
   -9   11    4     -0.90      0.00
   -8   11    4      0.20      0.00
   -7   11    4     -1.24      0.00
   -6   11    4      0.25      0.00
   -5   11    4     -1.27      0.00
   -4   11    4     -1.09      0.00
   -3   11    4     -0.59      0.00
   -2   11    4     -0.47      0.00
   -1   11    4     -0.71      0.00
    0   11    4     -0.17      0.00
    1   11    4     -0.29      0.00
    2   11    4      0.27      0.00
  -10   12    4     -0.22      0.00
   -9   12    4     -0.85      0.00
   -8   12    4      0.65      0.00
   -7   12    4     -1.39      0.00
   -6   12    4      1.11      0.00
   -5   12    4     -0.78      0.00
   -4   12    4     -0.36      0.00
   -3   12    4     -0.38      0.00
   -2   12    4     -0.11      0.00
   -1   12    4     -0.14      0.00
    0   12    4     -0.20      0.00
   -8   13    4      1.25      0.00
   -7   13    4     -0.88      0.00
   -6   13    4      1.28      0.00
   -5   13    4      0.05      0.00
   -4   13    4      0.43      0.00
   -3   13    4      0.23      0.00
   -2   13    4     -0.33      0.00
    3  -17    5      0.31      0.00
    4  -17    5      0.46      0.00
    5  -17    5     -0.05      0.00
    6  -17    5     -0.22      0.00
    1  -16    5     -0.01      0.00
    2  -16    5      0.49      0.00
    3  -16    5     -0.10      0.00
    4  -16    5     -0.19      0.00
    5  -16    5     -0.52      0.00
    6  -16    5     -0.43      0.00
    7  -16    5     -0.32      0.00
    8  -16    5      0.43      0.00
    9  -16    5      0.33      0.00
   -2  -15    5     -0.46      0.00
   -1  -15    5      0.12      0.00
    0  -15    5     -0.01      0.00
    1  -15    5      0.21      0.00
    2  -15    5      0.44      0.00
    3  -15    5     -0.27      0.00
    4  -15    5     -0.75      0.00
    5  -15    5     -0.80      0.00
    6  -15    5     -0.29      0.00
    7  -15    5      0.51      0.00
    8  -15    5      0.14      0.00
    9  -15    5      0.68      0.00
   10  -15    5      0.51      0.00
   -4  -14    5     -0.22      0.00
   -3  -14    5     -0.28      0.00
   -2  -14    5     -0.09      0.00
   -1  -14    5      0.44      0.00
    0  -14    5      0.77      0.00
    1  -14    5      0.68      0.00
    2  -14    5      0.17      0.00
    3  -14    5     -0.01      0.00
    4  -14    5     -0.61      0.00
    5  -14    5     -0.50      0.00
    6  -14    5     -0.03      0.00
    7  -14    5      1.05      0.00
    8  -14    5      0.36      0.00
    9  -14    5      0.20      0.00
   10  -14    5      0.91      0.00
   11  -14    5      0.90      0.00
   -5  -13    5     -0.98      0.00
   -4  -13    5     -0.08      0.00
   -3  -13    5     -0.74      0.00
   -2  -13    5     -0.37      0.00
   -1  -13    5      0.86      0.00
    0  -13    5      1.08      0.00
    1  -13    5      0.77      0.00
    2  -13    5     -0.12      0.00
    3  -13    5      0.41      0.00
    4  -13    5     -0.19      0.00
    5  -13    5      0.03      0.00
    6  -13    5      0.31      0.00
    7  -13    5      0.45      0.00
    8  -13    5      0.85      0.00
    9  -13    5     -0.73      0.00
   10  -13    5      0.71      0.00
   11  -13    5      1.77      0.00
   -6  -12    5      0.18      0.00
   -5  -12    5     -0.92      0.00
   -4  -12    5      0.11      0.00
   -3  -12    5     -0.82      0.00
   -2  -12    5     -0.99      0.00
   -1  -12    5      0.50      0.00
    0  -12    5      0.62      0.00
    1  -12    5      0.17      0.00
    2  -12    5     -0.41      0.00
    3  -12    5      0.64      0.00
    4  -12    5     -0.01      0.00
    5  -12    5      0.06      0.00
    6  -12    5      0.69      0.00
    7  -12    5     -0.69      0.00
    8  -12    5      0.90      0.00
    9  -12    5     -1.04      0.00
   10  -12    5      0.18      0.00
   11  -12    5      2.28      0.00
   12  -12    5      0.58      0.00
   -7  -11    5     -0.01      0.00
   -6  -11    5      0.99      0.00
   -5  -11    5     -0.56      0.00
   -4  -11    5      0.33      0.00
   -3  -11    5     -0.45      0.00
   -2  -11    5     -0.98      0.00
   -1  -11    5     -0.82      0.00
    0  -11    5     -0.19      0.00
    1  -11    5     -0.33      0.00
    2  -11    5     -0.68      0.00
    3  -11    5      0.48      0.00
    4  -11    5      0.11      0.00
    5  -11    5     -0.45      0.00
    6  -11    5      0.71      0.00
    7  -11    5     -1.16      0.00
    8  -11    5      0.40      0.00
    9  -11    5     -0.46      0.00
   10  -11    5      0.03      0.00
   11  -11    5      1.80      0.00
   12  -11    5      0.97      0.00
   -8  -10    5     -0.35      0.00
   -7  -10    5     -0.50      0.00
   -6  -10    5      1.08      0.00
   -5  -10    5     -0.69      0.00
   -4  -10    5      0.48      0.00
   -3  -10    5     -0.05      0.00
   -2  -10    5     -0.04      0.00
   -1  -10    5     -1.88      0.00
    0  -10    5     -0.85      0.00
    1  -10    5      0.12      0.00
    2  -10    5     -0.86      0.00
    3  -10    5     -0.20      0.00
    4  -10    5      0.40      0.00
    5  -10    5     -0.83      0.00
    6  -10    5      0.10      0.00
    7  -10    5     -0.82      0.00
    8  -10    5      0.06      0.00
    9  -10    5      0.29      0.00
   10  -10    5      0.33      0.00
   11  -10    5      0.57      0.00
   12  -10    5      0.25      0.00
   -9   -9    5     -0.31      0.00
   -8   -9    5     -0.38      0.00
   -7   -9    5     -0.62      0.00
   -6   -9    5      0.70      0.00
   -5   -9    5     -1.33      0.00
   -4   -9    5      0.36      0.00
   -3   -9    5      0.04      0.00
   -2   -9    5      0.92      0.00
   -1   -9    5     -1.37      0.00
    0   -9    5     -1.18      0.00
    1   -9    5      0.93      0.00
    2   -9    5     -1.05      0.00
    3   -9    5     -1.28      0.00
    4   -9    5      0.53      0.00
    5   -9    5     -0.92      0.00
    6   -9    5     -0.69      0.00
    7   -9    5     -0.50      0.00
    8   -9    5      0.37      0.00
    9   -9    5      0.65      0.00
   10   -9    5      0.45      0.00
   11   -9    5     -0.41      0.00
   12   -9    5     -1.40      0.00
   13   -9    5     -0.49      0.00
   -9   -8    5      0.10      0.00
   -8   -8    5     -0.11      0.00
   -7   -8    5     -0.25      0.00
   -6   -8    5      0.70      0.00
   -5   -8    5     -1.57      0.00
   -4   -8    5     -0.16      0.00
   -3   -8    5     -0.06      0.00
   -2   -8    5      0.96      0.00
   -1   -8    5      0.33      0.00
    0   -8    5     -1.10      0.00
    1   -8    5      0.89      0.00
    2   -8    5     -1.30      0.00
    3   -8    5     -2.15      0.00
    4   -8    5      0.23      0.00
    5   -8    5     -1.29      0.00
    6   -8    5     -1.05      0.00
    7   -8    5     -0.52      0.00
    8   -8    5      0.74      0.00
    9   -8    5      0.66      0.00
   10   -8    5     -0.06      0.00
   11   -8    5     -0.49      0.00
   12   -8    5     -2.69      0.00
   13   -8    5     -0.75      0.00
  -10   -7    5     -0.18      0.00
   -9   -7    5      0.38      0.00
   -8   -7    5      0.16      0.00
   -7   -7    5      0.16      0.00
   -6   -7    5      1.15      0.00
   -5   -7    5     -0.95      0.00
   -4   -7    5     -0.77      0.00
   -3   -7    5     -0.12      0.00
   -2   -7    5      0.27      0.00
   -1   -7    5      1.28      0.00
    0   -7    5     -0.41      0.00
    1   -7    5      0.02      0.00
    2   -7    5     -1.16      0.00
    3   -7    5     -1.99      0.00
    4   -7    5     -0.04      0.00
    5   -7    5     -1.97      0.00
    6   -7    5     -0.95      0.00
    7   -7    5     -0.39      0.00
    8   -7    5      0.38      0.00
    9   -7    5      0.52      0.00
   10   -7    5     -0.81      0.00
   11   -7    5     -0.09      0.00
   12   -7    5     -2.62      0.00
   13   -7    5     -0.98      0.00
  -11   -6    5      0.60      0.00
  -10   -6    5      0.07      0.00
   -9   -6    5      0.02      0.00
   -8   -6    5      0.08      0.00
   -7   -6    5      0.20      0.00
   -6   -6    5      1.28      0.00
   -5   -6    5     -0.10      0.00
   -4   -6    5     -0.87      0.00
   -3   -6    5     -0.09      0.00
   -2   -6    5     -0.21      0.00
   -1   -6    5      0.18      0.00
    0   -6    5      0.89      0.00
    1   -6    5     -0.47      0.00
    2   -6    5     -0.41      0.00
    3   -6    5     -0.60      0.00
    4   -6    5      0.29      0.00
    5   -6    5     -2.04      0.00
    6   -6    5     -0.67      0.00
    7   -6    5      0.21      0.00
    8   -6    5     -0.52      0.00
    9   -6    5      0.28      0.00
   10   -6    5     -1.10      0.00
   11   -6    5     -0.04      0.00
   12   -6    5     -1.44      0.00
   13   -6    5     -0.90      0.00
  -11   -5    5      0.55      0.00
  -10   -5    5     -0.14      0.00
   -9   -5    5     -0.84      0.00
   -8   -5    5     -0.22      0.00
   -7   -5    5      0.06      0.00
   -6   -5    5      0.81      0.00
   -5   -5    5      0.22      0.00
   -4   -5    5     -0.17      0.00
   -3   -5    5     -0.07      0.00
   -2   -5    5     -0.13      0.00
   -1   -5    5     -2.05      0.00
    0   -5    5      2.06      0.00
    1   -5    5      0.09      0.00
    2   -5    5      0.02      0.00
    3   -5    5      0.95      0.00
    4   -5    5      1.09      0.00
    5   -5    5     -1.04      0.00
    6   -5    5     -0.26      0.00
    7   -5    5      0.84      0.00
    8   -5    5     -0.89      0.00
    9   -5    5      0.04      0.00
   10   -5    5     -0.57      0.00
   11   -5    5     -0.47      0.00
   12   -5    5     -0.18      0.00
  -12   -4    5      0.15      0.00
  -11   -4    5      0.06      0.00
  -10   -4    5     -0.35      0.00
   -9   -4    5     -1.49      0.00
   -8   -4    5     -0.35      0.00
   -7   -4    5      0.18      0.00
   -6   -4    5      0.20      0.00
   -5   -4    5      0.12      0.00
   -4   -4    5      0.74      0.00
   -3   -4    5     -0.10      0.00
   -2   -4    5      0.01      0.00
   -1   -4    5     -3.12      0.00
    0   -4    5      2.16      0.00
    1   -4    5      0.97      0.00
    2   -4    5     -0.81      0.00
    3   -4    5      1.16      0.00
    4   -4    5      1.67      0.00
    5   -4    5      0.23      0.00
    6   -4    5      0.20      0.00
    7   -4    5      0.91      0.00
    8   -4    5     -0.26      0.00
    9   -4    5     -0.15      0.00
   10   -4    5      0.34      0.00
   11   -4    5     -0.73      0.00
   12   -4    5      0.44      0.00
  -12   -3    5      0.17      0.00
  -11   -3    5     -0.45      0.00
  -10   -3    5      0.05      0.00
   -9   -3    5     -1.53      0.00
   -8   -3    5     -0.37      0.00
   -7   -3    5      0.51      0.00
   -6   -3    5     -0.17      0.00
   -5   -3    5     -0.05      0.00
   -4   -3    5      0.85      0.00
   -3   -3    5      0.06      0.00
   -2   -3    5     -0.37      0.00
   -1   -3    5     -1.75      0.00
    0   -3    5      1.19      0.00
    1   -3    5      1.10      0.00
    2   -3    5     -2.00      0.00
    3   -3    5     -0.14      0.00
    4   -3    5      1.51      0.00
    5   -3    5      0.78      0.00
    6   -3    5      0.35      0.00
    7   -3    5      0.33      0.00
    8   -3    5      0.72      0.00
    9   -3    5     -0.40      0.00
   10   -3    5      0.68      0.00
   11   -3    5     -0.30      0.00
   12   -3    5      0.43      0.00
  -12   -2    5      0.46      0.00
  -11   -2    5     -0.64      0.00
  -10   -2    5      0.82      0.00
   -9   -2    5     -1.14      0.00
   -8   -2    5     -0.61      0.00
   -7   -2    5      0.70      0.00
   -6   -2    5     -0.30      0.00
   -5   -2    5     -0.34      0.00
   -4   -2    5     -0.14      0.00
   -3   -2    5      0.71      0.00
   -2   -2    5     -1.11      0.00
   -1   -2    5      0.91      0.00
    0   -2    5      0.31      0.00
    1   -2    5      0.40      0.00
    2   -2    5     -1.74      0.00
    3   -2    5     -1.34      0.00
    4   -2    5      0.72      0.00
    5   -2    5      0.64      0.00
    6   -2    5      0.06      0.00
    7   -2    5     -0.50      0.00
    8   -2    5      1.05      0.00
    9   -2    5     -0.55      0.00
   10   -2    5     -0.02      0.00
   11   -2    5      0.53      0.00
   12   -2    5      0.19      0.00
  -13   -1    5      0.55      0.00
  -12   -1    5      0.69      0.00
  -11   -1    5     -0.55      0.00
  -10   -1    5      1.25      0.00
   -9   -1    5     -0.67      0.00
   -8   -1    5     -0.90      0.00
   -7   -1    5      0.72      0.00
   -6   -1    5     -0.22      0.00
   -5   -1    5     -0.74      0.00
   -4   -1    5     -1.48      0.00
   -3   -1    5      1.67      0.00
   -2   -1    5     -1.57      0.00
   -1   -1    5      2.45      0.00
    0   -1    5      0.33      0.00
    1   -1    5     -0.33      0.00
    2   -1    5      0.02      0.00
    3   -1    5     -1.08      0.00
    4   -1    5     -0.03      0.00
    5   -1    5      0.44      0.00
    6   -1    5     -0.38      0.00
    7   -1    5     -0.94      0.00
    8   -1    5      0.44      0.00
    9   -1    5     -0.19      0.00
   10   -1    5     -1.03      0.00
   11   -1    5      1.06      0.00
  -13    0    5      0.35      0.00
  -12    0    5      0.49      0.00
  -11    0    5     -0.27      0.00
  -10    0    5      1.16      0.00
   -9    0    5     -0.25      0.00
   -8    0    5     -0.74      0.00
   -7    0    5      0.89      0.00
   -6    0    5     -0.01      0.00
   -5    0    5     -0.83      0.00
   -4    0    5     -2.04      0.00
   -3    0    5      2.04      0.00
   -2    0    5     -1.51      0.00
   -1    0    5      2.07      0.00
    0    0    5      0.60      0.00
    1    0    5     -0.49      0.00
    2    0    5      1.28      0.00
    3    0    5      0.04      0.00
    4    0    5     -0.02      0.00
    5    0    5      0.37      0.00
    6    0    5     -0.86      0.00
    7    0    5     -0.65      0.00
    8    0    5     -0.52      0.00
    9    0    5      0.57      0.00
   10    0    5     -1.21      0.00
   11    0    5      0.96      0.00
  -13    1    5      0.06      0.00
  -12    1    5      0.20      0.00
  -11    1    5      0.14      0.00
  -10    1    5      1.09      0.00
   -9    1    5      0.04      0.00
   -8    1    5     -0.27      0.00
   -7    1    5      1.22      0.00
   -6    1    5     -0.04      0.00
   -5    1    5     -0.45      0.00
   -4    1    5     -1.34      0.00
   -3    1    5      1.21      0.00
   -2    1    5     -1.43      0.00
   -1    1    5      1.27      0.00
    0    1    5      0.15      0.00
    1    1    5     -0.26      0.00
    2    1    5      0.85      0.00
    3    1    5      0.51      0.00
    4    1    5      0.67      0.00
    5    1    5      0.28      0.00
    6    1    5     -1.57      0.00
    7    1    5     -0.01      0.00
    8    1    5     -1.08      0.00
    9    1    5      0.96      0.00
   10    1    5     -0.45      0.00
   11    1    5      0.53      0.00
  -13    2    5     -0.10      0.00
  -12    2    5      0.35      0.00
  -11    2    5      0.58      0.00
  -10    2    5      1.32      0.00
   -9    2    5      0.05      0.00
   -8    2    5     -0.18      0.00
   -7    2    5      1.18      0.00
   -6    2    5     -0.43      0.00
   -5    2    5     -0.11      0.00
   -4    2    5      0.06      0.00
   -3    2    5     -0.08      0.00
   -2    2    5     -1.74      0.00
   -1    2    5      1.52      0.00
    0    2    5     -0.73      0.00
    1    2    5     -0.07      0.00
    2    2    5     -0.23      0.00
    3    2    5      0.01      0.00
    4    2    5      1.14      0.00
    5    2    5      0.18      0.00
    6    2    5     -2.21      0.00
    7    2    5      0.38      0.00
    8    2    5     -0.99      0.00
    9    2    5      0.60      0.00
   10    2    5      0.24      0.00
  -13    3    5     -0.19      0.00
  -12    3    5      0.72      0.00
  -11    3    5      0.84      0.00
  -10    3    5      1.57      0.00
   -9    3    5     -0.23      0.00
   -8    3    5     -0.59      0.00
   -7    3    5      0.48      0.00
   -6    3    5     -0.59      0.00
   -5    3    5     -0.22      0.00
   -4    3    5      0.99      0.00
   -3    3    5     -0.52      0.00
   -2    3    5     -1.92      0.00
   -1    3    5      2.19      0.00
    0    3    5     -1.09      0.00
    1    3    5      0.08      0.00
    2    3    5     -0.45      0.00
    3    3    5     -0.50      0.00
    4    3    5      0.62      0.00
    5    3    5      0.29      0.00
    6    3    5     -1.97      0.00
    7    3    5      0.44      0.00
    8    3    5     -0.55      0.00
    9    3    5      0.15      0.00
  -13    4    5     -0.20      0.00
  -12    4    5      0.63      0.00
  -11    4    5      0.77      0.00
  -10    4    5      1.44      0.00
   -9    4    5     -0.60      0.00
   -8    4    5     -0.78      0.00
   -7    4    5     -0.41      0.00
   -6    4    5      0.04      0.00
   -5    4    5     -0.41      0.00
   -4    4    5      0.77      0.00
   -3    4    5      0.01      0.00
   -2    4    5     -1.16      0.00
   -1    4    5      1.84      0.00
    0    4    5     -0.85      0.00
    1    4    5      0.30      0.00
    2    4    5      0.19      0.00
    3    4    5     -0.44      0.00
    4    4    5     -0.64      0.00
    5    4    5      0.51      0.00
    6    4    5     -0.75      0.00
    7    4    5      0.55      0.00
    8    4    5     -0.10      0.00
    9    4    5      0.30      0.00
  -13    5    5      0.12      0.00
  -12    5    5      0.04      0.00
  -11    5    5      0.45      0.00
  -10    5    5      0.85      0.00
   -9    5    5     -0.80      0.00
   -8    5    5     -0.29      0.00
   -7    5    5     -0.74      0.00
   -6    5    5      0.99      0.00
   -5    5    5     -0.20      0.00
   -4    5    5     -0.17      0.00
   -3    5    5      0.39      0.00
   -2    5    5      0.26      0.00
   -1    5    5      0.59      0.00
    0    5    5     -0.56      0.00
    1    5    5      0.37      0.00
    2    5    5      0.65      0.00
    3    5    5     -0.02      0.00
    4    5    5     -1.66      0.00
    5    5    5      0.34      0.00
    6    5    5      0.32      0.00
    7    5    5      0.78      0.00
    8    5    5      0.24      0.00
  -13    6    5      0.80      0.00
  -12    6    5     -0.25      0.00
  -11    6    5      0.13      0.00
  -10    6    5     -0.03      0.00
   -9    6    5     -0.68      0.00
   -8    6    5      0.45      0.00
   -7    6    5     -0.25      0.00
   -6    6    5      1.30      0.00
   -5    6    5      0.28      0.00
   -4    6    5     -0.87      0.00
   -3    6    5      0.04      0.00
   -2    6    5      1.02      0.00
   -1    6    5     -0.23      0.00
    0    6    5     -0.24      0.00
    1    6    5      0.09      0.00
    2    6    5      0.35      0.00
    3    6    5      0.48      0.00
    4    6    5     -1.66      0.00
    5    6    5     -0.55      0.00
    6    6    5      0.26      0.00
    7    6    5      0.72      0.00
  -13    7    5      1.39      0.00
  -12    7    5      0.18      0.00
  -11    7    5      0.01      0.00
  -10    7    5     -0.82      0.00
   -9    7    5     -0.30      0.00
   -8    7    5      0.87      0.00
   -7    7    5      0.64      0.00
   -6    7    5      0.74      0.00
   -5    7    5      0.53      0.00
   -4    7    5     -0.91      0.00
   -3    7    5     -0.45      0.00
   -2    7    5      0.51      0.00
   -1    7    5     -0.20      0.00
    0    7    5      0.41      0.00
    1    7    5     -0.17      0.00
    2    7    5     -0.32      0.00
    3    7    5      0.99      0.00
    4    7    5     -0.67      0.00
    5    7    5     -1.71      0.00
    6    7    5     -0.49      0.00
  -12    8    5      0.75      0.00
  -11    8    5     -0.01      0.00
  -10    8    5     -1.03      0.00
   -9    8    5      0.04      0.00
   -8    8    5      0.80      0.00
   -7    8    5      1.31      0.00
   -6    8    5     -0.04      0.00
   -5    8    5      0.29      0.00
   -4    8    5     -0.68      0.00
   -3    8    5     -0.56      0.00
   -2    8    5     -0.44      0.00
   -1    8    5     -0.06      0.00
    0    8    5      1.03      0.00
    1    8    5      0.06      0.00
    2    8    5     -0.54      0.00
    3    8    5      1.23      0.00
    4    8    5      0.53      0.00
    5    8    5     -2.21      0.00
  -12    9    5      0.73      0.00
  -11    9    5     -0.25      0.00
  -10    9    5     -0.59      0.00
   -9    9    5     -0.02      0.00
   -8    9    5      0.31      0.00
   -7    9    5      1.36      0.00
   -6    9    5     -0.37      0.00
   -5    9    5     -0.33      0.00
   -4    9    5     -0.57      0.00
   -3    9    5     -0.49      0.00
   -2    9    5     -0.64      0.00
   -1    9    5     -0.18      0.00
    0    9    5      1.04      0.00
    1    9    5      0.59      0.00
    2    9    5      0.08      0.00
    3    9    5      1.02      0.00
    4    9    5      1.09      0.00
  -11   10    5     -0.73      0.00
  -10   10    5     -0.05      0.00
   -9   10    5     -0.42      0.00
   -8   10    5     -0.26      0.00
   -7   10    5      0.76      0.00
   -6   10    5     -0.16      0.00
   -5   10    5     -0.81      0.00
   -4   10    5     -0.41      0.00
   -3   10    5     -0.45      0.00
   -2   10    5      0.01      0.00
   -1   10    5     -0.17      0.00
    0   10    5      0.59      0.00
    1   10    5      0.83      0.00
    2   10    5      0.97      0.00
    3   10    5      0.65      0.00
  -10   11    5      0.06      0.00
   -9   11    5     -0.72      0.00
   -8   11    5     -0.34      0.00
   -7   11    5     -0.04      0.00
   -6   11    5      0.24      0.00
   -5   11    5     -0.58      0.00
   -4   11    5      0.17      0.00
   -3   11    5     -0.25      0.00
   -2   11    5      0.68      0.00
   -1   11    5      0.11      0.00
    0   11    5      0.27      0.00
    1   11    5      0.57      0.00
   -9   12    5     -0.65      0.00
   -8   12    5      0.18      0.00
   -7   12    5     -0.50      0.00
   -6   12    5      0.44      0.00
   -5   12    5      0.21      0.00
   -4   12    5      1.01      0.00
   -3   12    5      0.18      0.00
   -2   12    5      0.69      0.00
   -1   12    5      0.21      0.00
   -5   13    5      0.67      0.00
    2  -17    6     -0.49      0.00
    3  -17    6      0.54      0.00
    4  -17    6     -0.87      0.00
    5  -17    6     -0.86      0.00
    6  -17    6     -0.47      0.00
   -1  -16    6      0.08      0.00
    0  -16    6     -0.57      0.00
    1  -16    6     -0.25      0.00
    2  -16    6     -0.24      0.00
    3  -16    6      0.69      0.00
    4  -16    6     -1.00      0.00
    5  -16    6     -1.06      0.00
    6  -16    6     -0.20      0.00
    7  -16    6     -1.02      0.00
    8  -16    6      0.61      0.00
    9  -16    6      0.01      0.00
   -2  -15    6     -0.01      0.00
   -1  -15    6     -0.13      0.00
    0  -15    6      0.02      0.00
    1  -15    6      0.30      0.00
    2  -15    6     -0.08      0.00
    3  -15    6      0.61      0.00
    4  -15    6     -0.56      0.00
    5  -15    6     -0.66      0.00
    6  -15    6      0.01      0.00
    7  -15    6      0.14      0.00
    8  -15    6      0.60      0.00
    9  -15    6      0.18      0.00
   10  -15    6      0.24      0.00
   -4  -14    6     -0.84      0.00
   -3  -14    6     -0.07      0.00
   -2  -14    6     -0.18      0.00
   -1  -14    6     -0.07      0.00
    0  -14    6      0.66      0.00
    1  -14    6      0.90      0.00
    2  -14    6     -0.08      0.00
    3  -14    6      0.33      0.00
    4  -14    6     -0.13      0.00
    5  -14    6      0.14      0.00
    6  -14    6     -0.07      0.00
    7  -14    6      0.61      0.00
    8  -14    6      0.88      0.00
    9  -14    6     -0.60      0.00
   10  -14    6      0.58      0.00
   11  -14    6      0.17      0.00
   -5  -13    6     -0.13      0.00
   -4  -13    6     -0.75      0.00
   -3  -13    6     -0.01      0.00
   -2  -13    6     -0.58      0.00
   -1  -13    6      0.06      0.00
    0  -13    6      0.78      0.00
    1  -13    6      0.90      0.00
    2  -13    6     -0.20      0.00
    3  -13    6      0.22      0.00
    4  -13    6     -0.19      0.00
    5  -13    6      0.61      0.00
    6  -13    6     -0.03      0.00
    7  -13    6     -0.13      0.00
    8  -13    6      1.07      0.00
    9  -13    6     -1.51      0.00
   10  -13    6      0.46      0.00
   11  -13    6      0.86      0.00
   -6  -12    6      0.50      0.00
   -5  -12    6     -0.04      0.00
   -4  -12    6     -0.37      0.00
   -3  -12    6      0.43      0.00
   -2  -12    6     -0.78      0.00
   -1  -12    6     -0.30      0.00
    0  -12    6      0.45      0.00
    1  -12    6      0.35      0.00
    2  -12    6     -0.29      0.00
    3  -12    6      0.50      0.00
    4  -12    6     -0.36      0.00
    5  -12    6      0.41      0.00
    6  -12    6      0.35      0.00
    7  -12    6     -1.14      0.00
    8  -12    6      0.68      0.00
    9  -12    6     -1.49      0.00
   10  -12    6      0.22      0.00
   11  -12    6      1.43      0.00
   12  -12    6     -0.47      0.00
   -7  -11    6     -0.46      0.00
   -6  -11    6      1.16      0.00
   -5  -11    6     -0.17      0.00
   -4  -11    6      0.00      0.00
   -3  -11    6      0.98      0.00
   -2  -11    6     -0.30      0.00
   -1  -11    6     -1.05      0.00
    0  -11    6      0.11      0.00
    1  -11    6     -0.03      0.00
    2  -11    6     -0.31      0.00
    3  -11    6      0.77      0.00
    4  -11    6     -0.16      0.00
    5  -11    6     -0.07      0.00
    6  -11    6      0.58      0.00
    7  -11    6     -1.42      0.00
    8  -11    6      0.07      0.00
    9  -11    6     -0.60      0.00
   10  -11    6      0.32      0.00
   11  -11    6      1.29      0.00
   12  -11    6     -0.04      0.00
   -8  -10    6     -0.31      0.00
   -7  -10    6     -0.42      0.00
   -6  -10    6      1.48      0.00
   -5  -10    6     -0.62      0.00
   -4  -10    6      0.08      0.00
   -3  -10    6      1.08      0.00
   -2  -10    6      0.71      0.00
   -1  -10    6     -1.16      0.00
    0  -10    6     -0.04      0.00
    1  -10    6      0.17      0.00
    2  -10    6     -0.54      0.00
    3  -10    6      0.36      0.00
    4  -10    6      0.13      0.00
    5  -10    6     -0.39      0.00
    6  -10    6      0.31      0.00
    7  -10    6     -1.10      0.00
    8  -10    6      0.05      0.00
    9  -10    6      0.33      0.00
   10  -10    6      0.61      0.00
   11  -10    6      0.59      0.00
   12  -10    6     -0.07      0.00
   -9   -9    6      0.29      0.00
   -8   -9    6     -0.61      0.00
   -7   -9    6      0.02      0.00
   -6   -9    6      1.58      0.00
   -5   -9    6     -1.04      0.00
   -4   -9    6     -0.14      0.00
   -3   -9    6      0.55      0.00
   -2   -9    6      1.43      0.00
   -1   -9    6      0.17      0.00
    0   -9    6     -0.07      0.00
    1   -9    6      0.71      0.00
    2   -9    6     -1.08      0.00
    3   -9    6     -0.66      0.00
    4   -9    6      0.13      0.00
    5   -9    6     -0.79      0.00
    6   -9    6     -0.15      0.00
    7   -9    6     -0.71      0.00
    8   -9    6      0.60      0.00
    9   -9    6      0.77      0.00
   10   -9    6      0.55      0.00
   11   -9    6     -0.04      0.00
   12   -9    6     -0.59      0.00
   -9   -8    6      0.71      0.00
   -8   -8    6     -0.72      0.00
   -7   -8    6      0.44      0.00
   -6   -8    6      1.52      0.00
   -5   -8    6     -1.23      0.00
   -4   -8    6     -0.50      0.00
   -3   -8    6     -0.21      0.00
   -2   -8    6      1.21      0.00
   -1   -8    6      2.12      0.00
    0   -8    6     -0.13      0.00
    1   -8    6      1.14      0.00
    2   -8    6     -1.43      0.00
    3   -8    6     -1.43      0.00
    4   -8    6      0.17      0.00
    5   -8    6     -1.45      0.00
    6   -8    6     -0.40      0.00
    7   -8    6     -0.30      0.00
    8   -8    6      0.77      0.00
    9   -8    6      0.74      0.00
   10   -8    6     -0.13      0.00
   11   -8    6     -0.23      0.00
   12   -8    6     -1.17      0.00
  -10   -7    6      0.03      0.00
   -9   -7    6      0.86      0.00
   -8   -7    6     -0.73      0.00
   -7   -7    6      0.37      0.00
   -6   -7    6      1.18      0.00
   -5   -7    6     -1.31      0.00
   -4   -7    6     -0.74      0.00
   -3   -7    6     -0.55      0.00
   -2   -7    6      0.23      0.00
   -1   -7    6      2.72      0.00
    0   -7    6     -0.22      0.00
    1   -7    6      1.15      0.00
    2   -7    6     -1.07      0.00
    3   -7    6     -1.18      0.00
    4   -7    6      0.68      0.00
    5   -7    6     -1.82      0.00
    6   -7    6     -0.31      0.00
    7   -7    6      0.37      0.00
    8   -7    6      0.03      0.00
    9   -7    6      0.59      0.00
   10   -7    6     -0.99      0.00
   11   -7    6     -0.15      0.00
   12   -7    6     -1.34      0.00
  -11   -6    6      0.87      0.00
  -10   -6    6     -0.04      0.00
   -9   -6    6      0.47      0.00
   -8   -6    6     -0.70      0.00
   -7   -6    6     -0.15      0.00
   -6   -6    6      0.65      0.00
   -5   -6    6     -1.26      0.00
   -4   -6    6     -0.65      0.00
   -3   -6    6     -0.34      0.00
   -2   -6    6     -0.65      0.00
   -1   -6    6      0.98      0.00
    0   -6    6     -0.35      0.00
    1   -6    6      0.62      0.00
    2   -6    6     -0.64      0.00
    4   -6    6      1.37      0.00
    5   -6    6     -1.45      0.00
    6   -6    6      0.05      0.00
    7   -6    6      1.12      0.00
    8   -6    6     -1.03      0.00
    9   -6    6      0.60      0.00
   10   -6    6     -1.18      0.00
   11   -6    6     -0.06      0.00
   12   -6    6     -0.80      0.00
  -11   -5    6      0.69      0.00
  -10   -5    6     -0.51      0.00
   -9   -5    6     -0.21      0.00
   -8   -5    6     -0.58      0.00
   -7   -5    6     -0.69      0.00
   -6   -5    6      0.14      0.00
   -5   -5    6     -0.84      0.00
   -4   -5    6     -0.23      0.00
   -3   -5    6     -0.05      0.00
   -2   -5    6     -0.78      0.00
   -1   -5    6     -1.69      0.00
    1   -5    6     -0.08      0.00
    2   -5    6     -1.25      0.00
    3   -5    6      0.77      0.00
    4   -5    6      1.70      0.00
    5   -5    6     -0.84      0.00
    6   -5    6      0.38      0.00
    7   -5    6      1.40      0.00
    8   -5    6     -1.50      0.00
    9   -5    6      0.58      0.00
   10   -5    6     -0.40      0.00
   11   -5    6      0.04      0.00
   12   -5    6      0.23      0.00
  -12   -4    6     -1.02      0.00
  -11   -4    6      0.41      0.00
  -10   -4    6     -0.77      0.00
   -9   -4    6     -0.78      0.00
   -8   -4    6     -0.44      0.00
   -7   -4    6     -0.92      0.00
   -6   -4    6     -0.26      0.00
   -5   -4    6     -0.31      0.00
   -4   -4    6      0.19      0.00
   -3   -4    6     -0.09      0.00
   -2   -4    6     -0.34      0.00
   -1   -4    6     -2.69      0.00
    0   -4    6     -0.31      0.00
    1   -4    6     -0.31      0.00
    2   -4    6     -2.51      0.00
    3   -4    6      0.60      0.00
    4   -4    6      1.46      0.00
    5   -4    6     -0.68      0.00
    6   -4    6      0.22      0.00
    7   -4    6      0.92      0.00
    8   -4    6     -1.10      0.00
    9   -4    6      0.00      0.00
   10   -4    6      0.51      0.00
   11   -4    6      0.24      0.00
   12   -4    6      1.07      0.00
  -12   -3    6     -0.49      0.00
  -11   -3    6      0.43      0.00
  -10   -3    6     -0.39      0.00
   -9   -3    6     -1.04      0.00
   -8   -3    6     -0.49      0.00
   -7   -3    6     -0.76      0.00
   -6   -3    6     -0.46      0.00
   -5   -3    6     -0.39      0.00
   -4   -3    6      0.13      0.00
   -3   -3    6     -0.16      0.00
   -2   -3    6     -0.06      0.00
   -1   -3    6     -1.14      0.00
    0   -3    6      0.30      0.00
    1   -3    6      0.08      0.00
    2   -3    6     -2.65      0.00
    3   -3    6     -0.26      0.00
    5   -3    6     -0.83      0.00
    6   -3    6     -0.34      0.00
    7   -3    6     -0.04      0.00
    8   -3    6     -0.25      0.00
    9   -3    6     -0.97      0.00
   10   -3    6      0.41      0.00
   11   -3    6      0.48      0.00
   12   -3    6      1.11      0.00
  -12   -2    6      0.26      0.00
  -11   -2    6      0.55      0.00
  -10   -2    6      0.28      0.00
   -9   -2    6     -0.90      0.00
   -8   -2    6     -0.58      0.00
   -7   -2    6     -0.18      0.00
   -6   -2    6     -0.07      0.00
   -5   -2    6     -1.15      0.00
   -4   -2    6     -0.53      0.00
   -3   -2    6      0.38      0.00
   -2   -2    6     -0.22      0.00
   -1   -2    6      1.11      0.00
    0   -2    6      1.28      0.00
    1   -2    6      0.53      0.00
    2   -2    6     -1.08      0.00
    4   -2    6     -0.29      0.00
    5   -2    6     -0.74      0.00
    6   -2    6     -0.49      0.00
    7   -2    6     -0.74      0.00
    8   -2    6      0.46      0.00
    9   -2    6     -1.27      0.00
   10   -2    6     -0.65      0.00
   11   -2    6      0.56      0.00
  -13   -1    6      0.13      0.00
  -12   -1    6      0.46      0.00
  -11   -1    6      0.41      0.00
  -10   -1    6      0.65      0.00
   -9   -1    6     -0.35      0.00
   -8   -1    6     -0.36      0.00
   -7   -1    6      0.69      0.00
   -6   -1    6      0.92      0.00
   -5   -1    6     -1.50      0.00
   -4   -1    6     -1.23      0.00
   -3   -1    6      1.32      0.00
   -2   -1    6     -0.38      0.00
   -1   -1    6      1.88      0.00
    0   -1    6      1.88      0.00
    1   -1    6      0.55      0.00
    2   -1    6      0.54      0.00
    3   -1    6     -0.69      0.00
    4   -1    6     -0.96      0.00
    5   -1    6     -0.44      0.00
    6   -1    6      0.12      0.00
    7   -1    6     -0.62      0.00
    8   -1    6      0.62      0.00
    9   -1    6     -0.37      0.00
   10   -1    6     -1.42      0.00
   11   -1    6      0.38      0.00
  -13    0    6     -0.24      0.00
  -12    0    6      0.10      0.00
  -11    0    6      0.08      0.00
  -10    0    6      0.65      0.00
   -9    0    6      0.38      0.00
   -8    0    6      0.09      0.00
   -7    0    6      1.42      0.00
   -6    0    6      1.57      0.00
   -5    0    6     -0.66      0.00
   -4    0    6     -1.11      0.00
   -3    0    6      1.58      0.00
   -2    0    6     -0.19      0.00
   -1    0    6      1.33      0.00
    0    0    6      1.41      0.00
    1    0    6      0.32      0.00
    2    0    6      0.61      0.00
    3    0    6     -0.33      0.00
    4    0    6     -0.63      0.00
    5    0    6     -0.31      0.00
    6    0    6      0.63      0.00
    7    0    6      0.04      0.00
    8    0    6      0.18      0.00
    9    0    6      0.72      0.00
   10    0    6     -1.04      0.00
   11    0    6      0.04      0.00
  -13    1    6     -0.16      0.00
  -12    1    6     -0.15      0.00
  -11    1    6      0.02      0.00
  -10    1    6      0.68      0.00
   -9    1    6      0.75      0.00
   -8    1    6      0.18      0.00
   -7    1    6      1.54      0.00
   -6    1    6      1.01      0.00
   -5    1    6      0.55      0.00
   -4    1    6      0.00      0.00
   -3    1    6      0.78      0.00
   -2    1    6     -0.08      0.00
   -1    1    6      1.14      0.00
    0    1    6      0.12      0.00
    1    1    6      0.29      0.00
    2    1    6     -0.41      0.00
    3    1    6     -0.02      0.00
    4    1    6      0.47      0.00
    5    1    6     -0.29      0.00
    6    1    6      0.18      0.00
    7    1    6      0.37      0.00
    8    1    6     -0.44      0.00
    9    1    6      0.77      0.00
   10    1    6     -0.07      0.00
  -13    2    6      0.07      0.00
  -12    2    6      0.00      0.00
  -11    2    6      0.34      0.00
  -10    2    6      1.02      0.00
   -9    2    6      0.49      0.00
   -8    2    6     -0.31      0.00
   -7    2    6      1.07      0.00
   -6    2    6     -0.20      0.00
   -5    2    6      0.81      0.00
   -4    2    6      1.14      0.00
   -3    2    6     -0.17      0.00
   -2    2    6     -0.50      0.00
   -1    2    6      1.75      0.00
    0    2    6     -1.08      0.00
    1    2    6      0.55      0.00
    2    2    6     -1.02      0.00
    3    2    6      0.29      0.00
    4    2    6      1.08      0.00
    5    2    6      0.04      0.00
    6    2    6     -0.67      0.00
    7    2    6      0.03      0.00
    8    2    6     -0.68      0.00
    9    2    6      0.08      0.00
   10    2    6      0.40      0.00
  -13    3    6     -0.01      0.00
  -12    3    6      0.11      0.00
  -11    3    6      0.56      0.00
  -10    3    6      1.47      0.00
   -9    3    6     -0.09      0.00
   -8    3    6     -0.76      0.00
   -7    3    6      0.51      0.00
   -6    3    6     -0.66      0.00
   -5    3    6      0.05      0.00
   -4    3    6      1.12      0.00
   -3    3    6     -0.41      0.00
   -2    3    6     -1.01      0.00
   -1    3    6      2.03      0.00
    0    3    6     -1.66      0.00
    1    3    6      0.78      0.00
    2    3    6     -0.75      0.00
    3    3    6      0.40      0.00
    4    3    6      0.25      0.00
    5    3    6      0.66      0.00
    6    3    6     -0.80      0.00
    7    3    6     -0.36      0.00
    8    3    6     -0.41      0.00
    9    3    6     -0.04      0.00
  -13    4    6     -0.20      0.00
  -12    4    6     -0.06      0.00
  -11    4    6      0.28      0.00
  -10    4    6      1.55      0.00
   -9    4    6     -0.45      0.00
   -8    4    6     -0.55      0.00
   -7    4    6      0.25      0.00
   -6    4    6      0.00      0.00
   -5    4    6     -0.62      0.00
   -4    4    6     -0.08      0.00
   -3    4    6     -0.23      0.00
   -2    4    6     -0.90      0.00
   -1    4    6      1.35      0.00
    0    4    6     -1.63      0.00
    1    4    6      0.57      0.00
    2    4    6     -0.31      0.00
    3    4    6     -0.02      0.00
    4    4    6     -1.62      0.00
    5    4    6      0.90      0.00
    6    4    6     -0.35      0.00
    7    4    6     -0.28      0.00
    8    4    6     -0.06      0.00
  -13    5    6     -0.02      0.00
  -12    5    6     -0.13      0.00
  -11    5    6     -0.29      0.00
  -10    5    6      0.95      0.00
   -9    5    6     -0.38      0.00
   -8    5    6      0.12      0.00
   -7    5    6      0.25      0.00
   -6    5    6      0.81      0.00
   -5    5    6     -0.54      0.00
   -4    5    6     -1.26      0.00
   -3    5    6     -0.30      0.00
   -2    5    6     -0.33      0.00
   -1    5    6      0.35      0.00
    0    5    6     -1.01      0.00
    1    5    6     -0.10      0.00
    2    5    6     -0.44      0.00
    3    5    6     -0.56      0.00
    4    5    6     -3.10      0.00
    5    5    6      0.21      0.00
    6    5    6     -0.44      0.00
    7    5    6      0.00      0.00
  -13    6    6      0.52      0.00
  -12    6    6      0.20      0.00
  -11    6    6     -0.57      0.00
  -10    6    6     -0.03      0.00
   -9    6    6     -0.09      0.00
   -8    6    6      0.61      0.00
   -7    6    6      0.30      0.00
   -6    6    6      0.90      0.00
   -5    6    6     -0.11      0.00
   -4    6    6     -1.51      0.00
   -3    6    6     -0.61      0.00
   -2    6    6     -0.07      0.00
   -1    6    6     -0.41      0.00
    0    6    6     -0.02      0.00
    1    6    6     -0.71      0.00
    2    6    6     -1.18      0.00
    3    6    6     -0.39      0.00
    4    6    6     -3.02      0.00
    5    6    6     -1.07      0.00
    6    6    6     -1.28      0.00
    7    6    6     -0.01      0.00
  -12    7    6      0.58      0.00
  -11    7    6     -0.43      0.00
  -10    7    6     -0.66      0.00
   -9    7    6      0.05      0.00
   -8    7    6      0.56      0.00
   -7    7    6      0.40      0.00
   -6    7    6      0.43      0.00
   -5    7    6      0.02      0.00
   -4    7    6     -1.03      0.00
   -3    7    6     -0.81      0.00
   -2    7    6     -0.33      0.00
   -1    7    6     -1.03      0.00
    0    7    6      0.56      0.00
    1    7    6     -0.63      0.00
    2    7    6     -1.82      0.00
    3    7    6      0.54      0.00
    4    7    6     -1.50      0.00
    5    7    6     -1.97      0.00
    6    7    6     -1.76      0.00
  -12    8    6      0.48      0.00
  -11    8    6     -0.36      0.00
  -10    8    6     -0.56      0.00
   -9    8    6     -0.19      0.00
   -8    8    6     -0.03      0.00
   -7    8    6      0.59      0.00
   -6    8    6      0.03      0.00
   -5    8    6     -0.32      0.00
   -4    8    6     -0.57      0.00
   -3    8    6     -0.85      0.00
   -2    8    6     -0.59      0.00
   -1    8    6     -1.39      0.00
    0    8    6      0.23      0.00
    1    8    6      0.09      0.00
    2    8    6     -1.44      0.00
    3    8    6      1.39      0.00
    4    8    6      0.22      0.00
    5    8    6     -1.77      0.00
  -11    9    6     -0.69      0.00
  -10    9    6     -0.13      0.00
   -9    9    6     -0.67      0.00
   -8    9    6     -0.89      0.00
   -7    9    6      0.73      0.00
   -6    9    6     -0.05      0.00
   -5    9    6     -0.72      0.00
   -4    9    6     -0.38      0.00
   -3    9    6     -0.78      0.00
   -2    9    6     -0.34      0.00
   -1    9    6     -0.96      0.00
    0    9    6     -0.29      0.00
    1    9    6      0.79      0.00
    2    9    6     -0.02      0.00
    3    9    6      1.53      0.00
  -10   10    6     -0.02      0.00
   -9   10    6     -0.97      0.00
   -8   10    6     -1.38      0.00
   -7   10    6      0.60      0.00
   -6   10    6     -0.04      0.00
   -5   10    6     -0.64      0.00
   -4   10    6     -0.12      0.00
   -3   10    6     -0.47      0.00
   -2   10    6      0.34      0.00
   -1   10    6      0.05      0.00
    0   10    6     -0.03      0.00
    1   10    6      0.98      0.00
    2   10    6      1.25      0.00
   -9   11    6     -0.85      0.00
   -8   11    6     -1.06      0.00
   -7   11    6      0.23      0.00
   -6   11    6     -0.23      0.00
   -5   11    6     -0.03      0.00
   -4   11    6      0.41      0.00
   -3   11    6     -0.05      0.00
   -2   11    6      0.92      0.00
   -1   11    6      0.66      0.00
    0   11    6      0.67      0.00
   -7   12    6     -0.17      0.00
   -6   12    6     -0.61      0.00
   -5   12    6      0.40      0.00
   -4   12    6      0.86      0.00
   -3   12    6      0.10      0.00
    2  -17    7     -0.29      0.00
    3  -17    7      1.06      0.00
    4  -17    7     -1.39      0.00
    5  -17    7     -0.73      0.00
    6  -17    7      0.26      0.00
    7  -17    7     -1.70      0.00
   -1  -16    7      0.34      0.00
    0  -16    7      0.17      0.00
    1  -16    7      0.21      0.00
    2  -16    7     -0.43      0.00
    3  -16    7      1.15      0.00
    4  -16    7     -1.15      0.00
    5  -16    7     -0.79      0.00
    6  -16    7      0.56      0.00
    7  -16    7     -1.03      0.00
    8  -16    7      0.58      0.00
    9  -16    7      0.01      0.00
   -3  -15    7      0.38      0.00
   -2  -15    7      0.55      0.00
   -1  -15    7      0.10      0.00
    0  -15    7      0.40      0.00
    1  -15    7      0.55      0.00
    2  -15    7     -0.58      0.00
    3  -15    7      0.65      0.00
    4  -15    7     -0.43      0.00
    5  -15    7     -0.41      0.00
    6  -15    7     -0.02      0.00
    7  -15    7     -0.14      0.00
    8  -15    7      0.73      0.00
    9  -15    7     -0.39      0.00
   10  -15    7      0.43      0.00
   -4  -14    7     -0.95      0.00
   -3  -14    7      0.51      0.00
   -2  -14    7      0.09      0.00
   -1  -14    7     -0.12      0.00
    0  -14    7      0.43      0.00
    1  -14    7      0.78      0.00
    2  -14    7     -0.73      0.00
    3  -14    7      0.03      0.00
    4  -14    7      0.01      0.00
    5  -14    7      0.30      0.00
    6  -14    7     -0.86      0.00
    7  -14    7     -0.02      0.00
    8  -14    7      1.01      0.00
    9  -14    7     -1.32      0.00
   10  -14    7      0.71      0.00
   -5  -13    7     -0.01      0.00
   -4  -13    7     -1.10      0.00
   -3  -13    7      0.52      0.00
   -2  -13    7     -0.49      0.00
   -1  -13    7     -0.43      0.00
    0  -13    7      0.02      0.00
    1  -13    7      0.62      0.00
    2  -13    7     -0.82      0.00
    3  -13    7     -0.09      0.00
    4  -13    7      0.00      0.00
    5  -13    7      0.79      0.00
    6  -13    7     -0.94      0.00
    7  -13    7     -0.66      0.00
    8  -13    7      0.96      0.00
    9  -13    7     -1.74      0.00
   10  -13    7      0.73      0.00
   11  -13    7      0.56      0.00
   -6  -12    7      0.25      0.00
   -5  -12    7     -0.23      0.00
   -4  -12    7     -1.06      0.00
   -3  -12    7      0.66      0.00
   -2  -12    7     -0.79      0.00
   -1  -12    7     -0.87      0.00
    0  -12    7     -0.47      0.00
    1  -12    7      0.11      0.00
    2  -12    7     -0.73      0.00
    3  -12    7      0.25      0.00
    4  -12    7     -0.08      0.00
    5  -12    7      0.73      0.00
    6  -12    7     -0.29      0.00
    7  -12    7     -1.22      0.00
    8  -12    7      0.27      0.00
    9  -12    7     -1.29      0.00
   10  -12    7      0.51      0.00
   11  -12    7      1.09      0.00
   -7  -11    7     -0.61      0.00
   -6  -11    7      0.79      0.00
   -5  -11    7     -0.53      0.00
   -4  -11    7     -0.94      0.00
   -3  -11    7      0.91      0.00
   -2  -11    7     -0.46      0.00
   -1  -11    7     -1.07      0.00
    0  -11    7     -0.47      0.00
    1  -11    7     -0.45      0.00
    2  -11    7     -0.58      0.00
    3  -11    7      0.51      0.00
    4  -11    7     -0.08      0.00
    5  -11    7      0.30      0.00
    6  -11    7      0.23      0.00
    7  -11    7     -1.17      0.00
    8  -11    7     -0.49      0.00
    9  -11    7     -0.53      0.00
   10  -11    7      0.13      0.00
   11  -11    7      0.94      0.00
   12  -11    7     -0.18      0.00
   -8  -10    7     -0.62      0.00
   -7  -10    7     -0.65      0.00
   -6  -10    7      1.06      0.00
   -5  -10    7     -0.63      0.00
   -4  -10    7     -0.74      0.00
   -3  -10    7      0.91      0.00
   -2  -10    7      0.36      0.00
   -1  -10    7     -0.42      0.00
    0  -10    7      0.19      0.00
    1  -10    7     -0.63      0.00
    2  -10    7     -0.69      0.00
    3  -10    7      0.39      0.00
    4  -10    7     -0.10      0.00
    5  -10    7     -0.26      0.00
    6  -10    7      0.16      0.00
    7  -10    7     -0.65      0.00
    8  -10    7     -0.58      0.00
    9  -10    7     -0.04      0.00
   10  -10    7     -0.29      0.00
   11  -10    7      0.01      0.00
   12  -10    7      0.09      0.00
   -9   -9    7      0.03      0.00
   -8   -9    7     -0.97      0.00
   -7   -9    7     -0.50      0.00
   -6   -9    7      0.95      0.00
   -5   -9    7     -0.64      0.00
   -4   -9    7     -0.42      0.00
   -3   -9    7      0.45      0.00
   -2   -9    7      1.05      0.00
   -1   -9    7      1.15      0.00
    0   -9    7      1.02      0.00
    1   -9    7     -0.06      0.00
    2   -9    7     -1.02      0.00
    3   -9    7      0.07      0.00
    4   -9    7      0.12      0.00
    5   -9    7     -0.81      0.00
    6   -9    7     -0.23      0.00
    7   -9    7      0.09      0.00
    8   -9    7     -0.10      0.00
    9   -9    7      0.13      0.00
   10   -9    7     -0.55      0.00
   11   -9    7     -0.99      0.00
   12   -9    7     -0.05      0.00
  -10   -8    7     -0.40      0.00
   -9   -8    7      0.56      0.00
   -8   -8    7     -0.91      0.00
   -7   -8    7     -0.28      0.00
   -6   -8    7      0.58      0.00
   -5   -8    7     -0.97      0.00
   -4   -8    7     -0.11      0.00
   -3   -8    7     -0.04      0.00
   -2   -8    7      1.04      0.00
   -1   -8    7      2.69      0.00
    0   -8    7      1.24      0.00
    1   -8    7      0.94      0.00
    2   -8    7     -1.14      0.00
    3   -8    7     -0.26      0.00
    4   -8    7      0.71      0.00
    5   -8    7     -1.07      0.00
    6   -8    7     -0.40      0.00
    7   -8    7      0.88      0.00
    8   -8    7      0.28      0.00
    9   -8    7      0.32      0.00
   10   -8    7     -0.59      0.00
   11   -8    7     -1.22      0.00
   12   -8    7     -0.47      0.00
  -10   -7    7     -0.61      0.00
   -9   -7    7      0.84      0.00
   -8   -7    7     -0.65      0.00
   -7   -7    7     -0.25      0.00
   -6   -7    7      0.32      0.00
   -5   -7    7     -1.51      0.00
   -4   -7    7     -0.04      0.00
   -3   -7    7      0.03      0.00
   -2   -7    7      0.36      0.00
   -1   -7    7      2.89      0.00
    0   -7    7      0.59      0.00
    1   -7    7      1.36      0.00
    2   -7    7     -1.10      0.00
    3   -7    7     -0.50      0.00
    4   -7    7      1.24      0.00
    5   -7    7     -0.92      0.00
    6   -7    7      0.00      0.00
    7   -7    7      1.51      0.00
    8   -7    7      0.17      0.00
    9   -7    7      0.85      0.00
   10   -7    7     -0.42      0.00
   11   -7    7     -0.45      0.00
   12   -7    7     -0.53      0.00
  -11   -6    7      0.10      0.00
  -10   -6    7     -1.25      0.00
   -9   -6    7      0.77      0.00
   -8   -6    7     -0.41      0.00
   -7   -6    7     -0.55      0.00
   -6   -6    7      0.30      0.00
   -5   -6    7     -1.51      0.00
   -4   -6    7     -0.18      0.00
   -3   -6    7      0.54      0.00
   -2   -6    7     -0.24      0.00
   -1   -6    7      1.56      0.00
    0   -6    7     -0.42      0.00
    1   -6    7      0.71      0.00
    2   -6    7     -1.57      0.00
    3   -6    7     -0.52      0.00
    4   -6    7      1.31      0.00
    5   -6    7     -0.74      0.00
    6   -6    7      0.85      0.00
    7   -6    7      1.80      0.00
    8   -6    7     -0.37      0.00
    9   -6    7      1.53      0.00
   10   -6    7     -0.06      0.00
   11   -6    7      0.63      0.00
   12   -6    7      0.19      0.00
  -11   -5    7     -0.03      0.00
  -10   -5    7     -1.84      0.00
   -9   -5    7      0.59      0.00
   -8   -5    7     -0.24      0.00
   -7   -5    7     -1.03      0.00
   -6   -5    7      0.24      0.00
   -5   -5    7     -0.71      0.00
   -4   -5    7     -0.21      0.00
   -3   -5    7      0.66      0.00
   -2   -5    7     -0.18      0.00
   -1   -5    7      0.15      0.00
    0   -5    7     -1.07      0.00
    1   -5    7     -0.21      0.00
    2   -5    7     -2.69      0.00
    3   -5    7     -0.24      0.00
    4   -5    7      1.17      0.00
    5   -5    7     -1.02      0.00
    6   -5    7      1.27      0.00
    7   -5    7      1.69      0.00
    8   -5    7     -1.03      0.00
    9   -5    7      1.52      0.00
   10   -5    7      0.28      0.00
   11   -5    7      1.12      0.00
   12   -5    7      1.13      0.00
  -12   -4    7     -1.48      0.00
  -11   -4    7      0.39      0.00
  -10   -4    7     -1.76      0.00
   -9   -4    7      0.39      0.00
   -8   -4    7     -0.15      0.00
   -7   -4    7     -1.22      0.00
   -6   -4    7     -0.01      0.00
   -5   -4    7     -0.02      0.00
   -4   -4    7      0.08      0.00
   -3   -4    7     -0.04      0.00
   -2   -4    7      0.20      0.00
   -1   -4    7      0.13      0.00
    0   -4    7     -1.09      0.00
    1   -4    7     -0.46      0.00
    2   -4    7     -3.38      0.00
    3   -4    7      0.15      0.00
    4   -4    7      0.97      0.00
    5   -4    7     -1.57      0.00
    6   -4    7      0.58      0.00
    7   -4    7      1.15      0.00
    8   -4    7     -1.38      0.00
    9   -4    7      0.48      0.00
   10   -4    7      0.24      0.00
   11   -4    7      0.76      0.00
   12   -4    7      1.37      0.00
  -12   -3    7     -0.81      0.00
  -11   -3    7      1.06      0.00
  -10   -3    7     -1.07      0.00
   -9   -3    7      0.18      0.00
   -8   -3    7     -0.17      0.00
   -7   -3    7     -0.77      0.00
   -6   -3    7      0.04      0.00
   -5   -3    7     -0.36      0.00
   -4   -3    7      0.37      0.00
   -3   -3    7     -0.85      0.00
   -2   -3    7      0.18      0.00
   -1   -3    7      1.21      0.00
    0   -3    7     -0.67      0.00
    1   -3    7     -0.17      0.00
    2   -3    7     -2.74      0.00
    3   -3    7      0.28      0.00
    4   -3    7      0.23      0.00
    5   -3    7     -1.87      0.00
    6   -3    7     -0.58      0.00
    7   -3    7      0.30      0.00
    8   -3    7     -1.11      0.00
    9   -3    7     -0.56      0.00
   10   -3    7     -0.26      0.00
   11   -3    7      0.15      0.00
  -12   -2    7     -0.22      0.00
  -11   -2    7      1.21      0.00
  -10   -2    7     -0.44      0.00
   -9   -2    7      0.12      0.00
   -8   -2    7     -0.14      0.00
   -7   -2    7      0.11      0.00
   -6   -2    7      0.74      0.00
   -5   -2    7     -1.21      0.00
   -4   -2    7      0.17      0.00
   -3   -2    7     -0.90      0.00
   -2   -2    7     -0.14      0.00
   -1   -2    7      1.83      0.00
    0   -2    7     -0.04      0.00
    1   -2    7      0.02      0.00
    2   -2    7     -1.39      0.00
    3   -2    7      0.02      0.00
    4   -2    7     -1.12      0.00
    5   -2    7     -1.88      0.00
    6   -2    7     -0.84      0.00
    7   -2    7     -0.40      0.00
    8   -2    7     -0.46      0.00
    9   -2    7     -0.35      0.00
   10   -2    7     -0.70      0.00
   11   -2    7     -0.12      0.00
  -12   -1    7      0.02      0.00
  -11   -1    7      0.66      0.00
  -10   -1    7     -0.26      0.00
   -9   -1    7      0.45      0.00
   -8   -1    7      0.08      0.00
   -7   -1    7      0.75      0.00
   -6   -1    7      1.39      0.00
   -5   -1    7     -1.32      0.00
   -4   -1    7     -0.36      0.00
   -3   -1    7     -0.40      0.00
   -2   -1    7      0.00      0.00
   -1   -1    7      1.34      0.00
    0   -1    7      0.52      0.00
    1   -1    7      0.05      0.00
    2   -1    7     -0.57      0.00
    3   -1    7     -0.38      0.00
    4   -1    7     -2.03      0.00
    5   -1    7     -1.90      0.00
    6   -1    7      0.04      0.00
    7   -1    7     -0.54      0.00
    8   -1    7     -0.11      0.00
    9   -1    7      0.73      0.00
   10   -1    7     -0.57      0.00
   11   -1    7     -0.11      0.00
  -13    0    7     -0.16      0.00
  -12    0    7      0.12      0.00
  -11    0    7      0.14      0.00
  -10    0    7     -0.26      0.00
   -9    0    7      0.97      0.00
   -8    0    7      0.31      0.00
   -7    0    7      0.73      0.00
   -6    0    7      1.02      0.00
   -5    0    7     -0.41      0.00
   -4    0    7     -0.51      0.00
   -3    0    7     -0.18      0.00
   -2    0    7      0.76      0.00
   -1    0    7      0.66      0.00
    0    0    7      0.72      0.00
    1    0    7      0.22      0.00
    2    0    7     -0.57      0.00
    3    0    7     -0.37      0.00
    4    0    7     -1.50      0.00
    5    0    7     -1.77      0.00
    6    0    7      0.97      0.00
    7    0    7     -0.30      0.00
    8    0    7     -0.25      0.00
    9    0    7      1.14      0.00
   10    0    7      0.01      0.00
  -13    1    7      0.36      0.00
  -12    1    7      0.17      0.00
  -11    1    7      0.23      0.00
  -10    1    7      0.03      0.00
   -9    1    7      1.09      0.00
   -8    1    7      0.29      0.00
   -7    1    7      0.42      0.00
   -6    1    7     -0.11      0.00
   -5    1    7      0.52      0.00
   -4    1    7     -0.03      0.00
   -3    1    7     -0.39      0.00
   -2    1    7      1.30      0.00
   -1    1    7      0.63      0.00
    0    1    7      0.27      0.00
    1    1    7      0.51      0.00
    2    1    7     -0.82      0.00
    3    1    7      0.31      0.00
    4    1    7     -0.13      0.00
    5    1    7     -0.97      0.00
    6    1    7      1.27      0.00
    7    1    7     -0.19      0.00
    8    1    7     -0.22      0.00
    9    1    7      0.42      0.00
   10    1    7      0.47      0.00
  -13    2    7      0.48      0.00
  -12    2    7     -0.06      0.00
  -11    2    7      0.57      0.00
  -10    2    7      0.61      0.00
   -9    2    7      0.54      0.00
   -8    2    7      0.06      0.00
   -7    2    7      0.42      0.00
   -6    2    7     -0.68      0.00
   -5    2    7      0.73      0.00
   -4    2    7      0.40      0.00
   -3    2    7     -0.52      0.00
   -2    2    7      0.99      0.00
   -1    2    7      0.90      0.00
    0    2    7     -0.76      0.00
    1    2    7      0.69      0.00
    2    2    7     -0.83      0.00
    3    2    7      1.08      0.00
    4    2    7      0.55      0.00
    5    2    7      0.45      0.00
    6    2    7      1.43      0.00
    7    2    7     -0.35      0.00
    8    2    7      0.42      0.00
    9    2    7     -0.22      0.00
  -13    3    7      0.19      0.00
  -12    3    7     -0.48      0.00
  -11    3    7      0.44      0.00
  -10    3    7      0.98      0.00
   -9    3    7     -0.30      0.00
   -8    3    7     -0.06      0.00
   -7    3    7      0.82      0.00
   -6    3    7     -0.18      0.00
   -5    3    7      0.52      0.00
   -4    3    7      0.13      0.00
   -3    3    7     -0.41      0.00
   -2    3    7      0.20      0.00
   -1    3    7      0.96      0.00
    0    3    7     -1.70      0.00
    1    3    7      0.74      0.00
    2    3    7     -0.49      0.00
    3    3    7      1.03      0.00
    4    3    7     -0.15      0.00
    5    3    7      1.65      0.00
    6    3    7      1.72      0.00
    7    3    7     -0.46      0.00
    8    3    7      1.13      0.00
  -13    4    7      0.01      0.00
  -12    4    7     -0.52      0.00
  -11    4    7     -0.22      0.00
  -10    4    7      0.73      0.00
   -9    4    7     -0.72      0.00
   -8    4    7      0.14      0.00
   -7    4    7      1.13      0.00
   -6    4    7      0.55      0.00
   -5    4    7      0.43      0.00
   -4    4    7     -0.54      0.00
   -3    4    7     -0.35      0.00
   -2    4    7     -0.45      0.00
   -1    4    7      0.86      0.00
    0    4    7     -1.59      0.00
    1    4    7      0.68      0.00
    2    4    7     -0.09      0.00
    3    4    7      0.12      0.00
    4    4    7     -1.45      0.00
    5    4    7      1.81      0.00
    6    4    7      1.45      0.00
    7    4    7     -0.34      0.00
    8    4    7      1.10      0.00
  -12    5    7      0.07      0.00
  -11    5    7     -0.70      0.00
  -10    5    7      0.09      0.00
   -9    5    7     -0.41      0.00
   -8    5    7      0.64      0.00
   -7    5    7      1.00      0.00
   -6    5    7      0.66      0.00
   -5    5    7      0.39      0.00
   -4    5    7     -0.86      0.00
   -3    5    7     -0.40      0.00
   -2    5    7     -0.75      0.00
   -1    5    7      0.50      0.00
    0    5    7     -0.31      0.00
    1    5    7      0.45      0.00
    2    5    7     -0.24      0.00
    3    5    7     -0.64      0.00
    4    5    7     -2.13      0.00
    5    5    7      0.97      0.00
    6    5    7      0.22      0.00
    7    5    7     -0.14      0.00
  -12    6    7      0.72      0.00
  -11    6    7     -0.53      0.00
  -10    6    7     -0.26      0.00
   -9    6    7      0.16      0.00
   -8    6    7      1.16      0.00
   -7    6    7      0.54      0.00
   -6    6    7      0.34      0.00
   -5    6    7      0.11      0.00
   -4    6    7     -0.66      0.00
   -3    6    7     -0.41      0.00
   -2    6    7     -0.66      0.00
   -1    6    7     -0.38      0.00
    0    6    7      0.89      0.00
    1    6    7      0.19      0.00
    2    6    7     -1.25      0.00
    3    6    7     -0.47      0.00
    4    6    7     -1.71      0.00
    5    6    7     -0.10      0.00
    6    6    7     -1.10      0.00
  -12    7    7      0.78      0.00
  -11    7    7     -0.10      0.00
  -10    7    7      0.04      0.00
   -9    7    7      0.30      0.00
   -8    7    7      1.20      0.00
   -7    7    7      0.13      0.00
   -6    7    7      0.20      0.00
   -5    7    7     -0.43      0.00
   -4    7    7     -0.33      0.00
   -3    7    7     -0.38      0.00
   -2    7    7     -0.24      0.00
   -1    7    7     -1.30      0.00
    0    7    7      0.69      0.00
    1    7    7      0.17      0.00
    2    7    7     -2.24      0.00
    3    7    7      0.24      0.00
    4    7    7     -0.73      0.00
    5    7    7     -0.67      0.00
  -11    8    7     -0.04      0.00
  -10    8    7      0.55      0.00
   -9    8    7     -0.19      0.00
   -8    8    7      0.45      0.00
   -7    8    7     -0.02      0.00
   -6    8    7      0.36      0.00
   -5    8    7     -0.90      0.00
   -4    8    7     -0.21      0.00
   -3    8    7     -0.38      0.00
   -2    8    7      0.24      0.00
   -1    8    7     -1.21      0.00
    0    8    7     -0.45      0.00
    1    8    7      0.33      0.00
    2    8    7     -1.96      0.00
    3    8    7      0.68      0.00
    4    8    7     -0.08      0.00
  -11    9    7     -0.29      0.00
  -10    9    7      0.60      0.00
   -9    9    7     -0.73      0.00
   -8    9    7     -0.60      0.00
   -7    9    7      0.07      0.00
   -6    9    7      0.50      0.00
   -5    9    7     -0.90      0.00
   -4    9    7     -0.23      0.00
   -3    9    7     -0.27      0.00
   -2    9    7      0.40      0.00
   -1    9    7     -0.09      0.00
    0    9    7     -0.90      0.00
    1    9    7      0.37      0.00
    2    9    7     -0.53      0.00
   -9   10    7     -0.71      0.00
   -8   10    7     -1.00      0.00
   -7   10    7      0.24      0.00
   -6   10    7      0.32      0.00
   -5   10    7     -0.35      0.00
   -4   10    7     -0.22      0.00
   -3   10    7     -0.11      0.00
   -2   10    7      0.26      0.00
   -1   10    7      0.75      0.00
    0   10    7     -0.18      0.00
    1   10    7      0.25      0.00
   -8   11    7     -0.54      0.00
   -7   11    7      0.29      0.00
   -6   11    7     -0.18      0.00
   -5   11    7      0.25      0.00
   -4   11    7     -0.09      0.00
   -3   11    7     -0.21      0.00
   -2   11    7      0.19      0.00
    1  -17    8      0.16      0.00
    2  -17    8     -0.30      0.00
    3  -17    8      0.74      0.00
    4  -17    8     -1.05      0.00
    5  -17    8     -0.46      0.00
    6  -17    8      0.78      0.00
    7  -17    8     -1.41      0.00
   -1  -16    8      0.33      0.00
    0  -16    8      0.34      0.00
    1  -16    8      0.57      0.00
    2  -16    8     -0.43      0.00
    3  -16    8      1.00      0.00
    4  -16    8     -0.33      0.00
    5  -16    8     -0.44      0.00
    6  -16    8      0.82      0.00
    7  -16    8     -0.81      0.00
    8  -16    8     -0.24      0.00
   -3  -15    8      0.79      0.00
   -2  -15    8      0.59      0.00
   -1  -15    8      0.50      0.00
    0  -15    8      0.56      0.00
    1  -15    8      0.89      0.00
    2  -15    8     -0.74      0.00
    3  -15    8      0.66      0.00
    4  -15    8      0.55      0.00
    5  -15    8     -0.07      0.00
    6  -15    8     -0.15      0.00
    7  -15    8     -0.14      0.00
    8  -15    8      0.30      0.00
    9  -15    8     -1.23      0.00
   -4  -14    8     -0.37      0.00
   -3  -14    8      0.90      0.00
   -2  -14    8      0.30      0.00
   -1  -14    8      0.37      0.00
    0  -14    8      0.33      0.00
    1  -14    8      1.01      0.00
    2  -14    8     -1.25      0.00
    3  -14    8      0.06      0.00
    4  -14    8      0.81      0.00
    5  -14    8      0.46      0.00
    6  -14    8     -1.18      0.00
    7  -14    8     -0.16      0.00
    8  -14    8      0.88      0.00
    9  -14    8     -1.53      0.00
   10  -14    8      0.56      0.00
   -5  -13    8     -0.05      0.00
   -4  -13    8     -0.49      0.00
   -3  -13    8      0.76      0.00
   -2  -13    8     -0.08      0.00
   -1  -13    8      0.07      0.00
    0  -13    8     -0.34      0.00
    1  -13    8      0.96      0.00
    3  -13    8     -0.32      0.00
    4  -13    8      0.59      0.00
    5  -13    8      0.69      0.00
    6  -13    8     -1.34      0.00
    7  -13    8     -0.75      0.00
    8  -13    8      0.81      0.00
    9  -13    8     -1.20      0.00
   10  -13    8      0.89      0.00
   11  -13    8      0.58      0.00
   -6  -12    8      0.35      0.00
   -5  -12    8     -0.15      0.00
   -4  -12    8     -0.51      0.00
   -3  -12    8      0.75      0.00
   -2  -12    8     -0.39      0.00
   -1  -12    8     -0.17      0.00
    0  -12    8     -0.94      0.00
    1  -12    8      0.56      0.00
    2  -12    8     -1.30      0.00
    3  -12    8     -0.36      0.00
    4  -12    8      0.34      0.00
    5  -12    8      0.50      0.00
    6  -12    8     -0.76      0.00
    7  -12    8     -1.16      0.00
    8  -12    8      0.09      0.00
    9  -12    8     -0.61      0.00
   10  -12    8      0.48      0.00
   11  -12    8      0.95      0.00
   -7  -11    8     -0.30      0.00
   -6  -11    8      0.64      0.00
   -5  -11    8     -0.18      0.00
   -4  -11    8     -0.45      0.00
   -3  -11    8      0.92      0.00
   -2  -11    8     -0.42      0.00
   -1  -11    8     -0.09      0.00
    0  -11    8     -0.82      0.00
    1  -11    8     -0.25      0.00
    2  -11    8     -0.78      0.00
    3  -11    8     -0.02      0.00
    4  -11    8      0.24      0.00
    5  -11    8      0.07      0.00
    6  -11    8     -0.18      0.00
    7  -11    8     -0.85      0.00
    8  -11    8     -0.65      0.00
    9  -11    8     -0.20      0.00
   10  -11    8     -0.51      0.00
   11  -11    8      0.53      0.00
   -8  -10    8      0.01      0.00
   -7  -10    8     -0.38      0.00
   -6  -10    8      0.62      0.00
   -5  -10    8     -0.16      0.00
   -4  -10    8     -0.31      0.00
   -3  -10    8      0.87      0.00
   -2  -10    8     -0.02      0.00
   -1  -10    8      0.44      0.00
    0  -10    8      0.14      0.00
    1  -10    8     -0.82      0.00
    2  -10    8     -0.57      0.00
    3  -10    8      0.56      0.00
    4  -10    8      0.31      0.00
    5  -10    8     -0.42      0.00
    6  -10    8     -0.26      0.00
    7  -10    8      0.01      0.00
    8  -10    8     -1.02      0.00
    9  -10    8     -0.20      0.00
   10  -10    8     -1.24      0.00
   11  -10    8     -0.62      0.00
   12  -10    8     -0.40      0.00
   -9   -9    8      0.50      0.00
   -8   -9    8      0.47      0.00
   -7   -9    8     -0.30      0.00
   -6   -9    8      0.25      0.00
   -5   -9    8     -0.51      0.00
   -4   -9    8     -0.23      0.00
   -3   -9    8      0.36      0.00
   -2   -9    8      0.46      0.00
   -1   -9    8      1.20      0.00
    0   -9    8      1.21      0.00
    1   -9    8     -0.47      0.00
    2   -9    8     -0.77      0.00
    3   -9    8      0.85      0.00
    4   -9    8      0.53      0.00
    5   -9    8     -0.76      0.00
    6   -9    8     -1.03      0.00
    7   -9    8      0.73      0.00
    8   -9    8     -1.11      0.00
    9   -9    8     -0.64      0.00
   10   -9    8     -1.19      0.00
   11   -9    8     -1.63      0.00
   12   -9    8     -0.30      0.00
  -10   -8    8     -0.19      0.00
   -9   -8    8      0.87      0.00
   -8   -8    8      0.75      0.00
   -7   -8    8     -0.13      0.00
   -6   -8    8     -0.06      0.00
   -5   -8    8     -1.38      0.00
   -4   -8    8     -0.42      0.00
   -3   -8    8     -0.21      0.00
   -2   -8    8      0.43      0.00
   -1   -8    8      1.56      0.00
    0   -8    8      1.54      0.00
    1   -8    8      0.41      0.00
    2   -8    8     -1.04      0.00
    3   -8    8      0.32      0.00
    4   -8    8      0.59      0.00
    5   -8    8     -0.70      0.00
    6   -8    8     -1.66      0.00
    7   -8    8      0.79      0.00
    8   -8    8     -0.96      0.00
    9   -8    8     -1.09      0.00
   10   -8    8     -0.73      0.00
   11   -8    8     -1.63      0.00
   12   -8    8     -0.28      0.00
  -10   -7    8     -0.92      0.00
   -9   -7    8      1.09      0.00
   -8   -7    8      0.61      0.00
   -7   -7    8     -0.11      0.00
   -6   -7    8      0.07      0.00
   -5   -7    8     -1.96      0.00
   -4   -7    8     -0.85      0.00
   -3   -7    8     -0.21      0.00
   -2   -7    8     -0.13      0.00
   -1   -7    8      1.09      0.00
    0   -7    8      1.06      0.00
    1   -7    8      0.78      0.00
    2   -7    8     -1.31      0.00
    3   -7    8     -0.64      0.00
    4   -7    8      0.38      0.00
    5   -7    8     -0.42      0.00
    6   -7    8     -1.09      0.00
    7   -7    8      0.43      0.00
    8   -7    8     -0.60      0.00
    9   -7    8     -0.82      0.00
   10   -7    8     -0.41      0.00
   11   -7    8     -0.65      0.00
   12   -7    8     -0.10      0.00
  -11   -6    8     -0.02      0.00
  -10   -6    8     -1.72      0.00
   -9   -6    8      1.34      0.00
   -8   -6    8      0.29      0.00
   -7   -6    8     -0.37      0.00
   -6   -6    8      0.37      0.00
   -5   -6    8     -1.38      0.00
   -4   -6    8     -1.03      0.00
   -3   -6    8      0.32      0.00
   -2   -6    8     -0.41      0.00
   -1   -6    8      0.34      0.00
    0   -6    8      0.40      0.00
    1   -6    8      0.40      0.00
    2   -6    8     -1.79      0.00
    3   -6    8     -0.95      0.00
    4   -6    8      0.41      0.00
    5   -6    8     -0.41      0.00
    6   -6    8      0.46      0.00
    7   -6    8      0.38      0.00
    8   -6    8     -0.42      0.00
    9   -6    8      0.19      0.00
   10   -6    8     -0.31      0.00
   11   -6    8      0.34      0.00
   12   -6    8      0.24      0.00
  -11   -5    8      0.14      0.00
  -10   -5    8     -2.07      0.00
   -9   -5    8      1.54      0.00
   -8   -5    8      0.09      0.00
   -7   -5    8     -0.62      0.00
   -6   -5    8      0.39      0.00
   -5   -5    8      0.00      0.00
   -4   -5    8     -0.41      0.00
   -3   -5    8      0.61      0.00
   -2   -5    8      0.15      0.00
   -1   -5    8      0.44      0.00
    0   -5    8     -0.14      0.00
    1   -5    8     -0.11      0.00
    2   -5    8     -2.37      0.00
    3   -5    8     -0.16      0.00
    4   -5    8      1.00      0.00
    5   -5    8     -0.77      0.00
    6   -5    8      1.40      0.00
    7   -5    8      0.85      0.00
    8   -5    8     -0.78      0.00
    9   -5    8      1.05      0.00
   10   -5    8     -0.13      0.00
   11   -5    8      0.53      0.00
  -11   -4    8      0.77      0.00
  -10   -4    8     -1.78      0.00
   -9   -4    8      1.36      0.00
   -8   -4    8      0.00      0.00
   -7   -4    8     -0.40      0.00
   -6   -4    8      0.22      0.00
   -5   -4    8      0.81      0.00
   -4   -4    8      0.78      0.00
   -3   -4    8      0.21      0.00
   -2   -4    8      0.89      0.00
   -1   -4    8      1.59      0.00
    0   -4    8     -0.73      0.00
    1   -4    8     -0.44      0.00
    2   -4    8     -2.59      0.00
    3   -4    8      1.01      0.00
    4   -4    8      1.36      0.00
    5   -4    8     -1.08      0.00
    6   -4    8      0.80      0.00
    7   -4    8      1.22      0.00
    8   -4    8     -1.37      0.00
    9   -4    8      1.19      0.00
   10   -4    8      0.20      0.00
   11   -4    8      0.10      0.00
  -12   -3    8     -0.83      0.00
  -11   -3    8      1.28      0.00
  -10   -3    8     -1.20      0.00
   -9   -3    8      0.87      0.00
   -8   -3    8     -0.02      0.00
   -7   -3    8      0.32      0.00
   -6   -3    8      0.35      0.00
   -5   -3    8      0.41      0.00
   -4   -3    8      1.50      0.00
   -3   -3    8     -0.51      0.00
   -2   -3    8      0.92      0.00
   -1   -3    8      2.59      0.00
    0   -3    8     -1.28      0.00
    1   -3    8     -0.68      0.00
    2   -3    8     -2.27      0.00
    3   -3    8      1.59      0.00
    4   -3    8      0.60      0.00
    5   -3    8     -1.06      0.00
    6   -3    8     -0.25      0.00
    7   -3    8      0.97      0.00
    8   -3    8     -1.62      0.00
    9   -3    8      1.10      0.00
   10   -3    8      0.43      0.00
   11   -3    8     -0.27      0.00
  -12   -2    8     -0.53      0.00
  -11   -2    8      1.17      0.00
  -10   -2    8     -0.77      0.00
   -9   -2    8      0.68      0.00
   -8   -2    8      0.14      0.00
   -7   -2    8      0.99      0.00
   -6   -2    8      0.68      0.00
   -5   -2    8     -0.32      0.00
   -4   -2    8      1.07      0.00
   -3   -2    8     -0.99      0.00
   -2   -2    8      0.41      0.00
   -1   -2    8      2.27      0.00
    0   -2    8     -1.22      0.00
    1   -2    8     -0.69      0.00
    2   -2    8     -1.63      0.00
    3   -2    8      1.33      0.00
    4   -2    8     -0.80      0.00
    5   -2    8     -0.98      0.00
    6   -2    8     -0.33      0.00
    7   -2    8      0.41      0.00
    8   -2    8     -1.54      0.00
    9   -2    8      1.24      0.00
   10   -2    8      0.30      0.00
  -12   -1    8     -0.03      0.00
  -11   -1    8      0.67      0.00
  -10   -1    8     -0.61      0.00
   -9   -1    8      1.05      0.00
   -8   -1    8      0.54      0.00
   -7   -1    8      1.06      0.00
   -6   -1    8      0.57      0.00
   -5   -1    8     -0.30      0.00
   -4   -1    8      0.02      0.00
   -3   -1    8     -1.11      0.00
   -2   -1    8      0.29      0.00
   -1   -1    8      0.97      0.00
    0   -1    8     -0.37      0.00
    1   -1    8     -0.29      0.00
    2   -1    8     -0.89      0.00
    3   -1    8      0.77      0.00
    4   -1    8     -1.49      0.00
    5   -1    8     -1.07      0.00
    6   -1    8      0.45      0.00
    7   -1    8      0.07      0.00
    8   -1    8     -1.43      0.00
    9   -1    8      1.21      0.00
   10   -1    8     -0.09      0.00
  -12    0    8      0.32      0.00
  -11    0    8      0.35      0.00
  -10    0    8     -0.48      0.00
   -9    0    8      1.39      0.00
   -8    0    8      0.84      0.00
   -7    0    8      0.60      0.00
   -6    0    8     -0.05      0.00
   -5    0    8      0.42      0.00
   -4    0    8     -0.67      0.00
   -3    0    8     -0.99      0.00
   -2    0    8      0.83      0.00
   -1    0    8     -0.21      0.00
    0    0    8      0.55      0.00
    1    0    8      0.09      0.00
    2    0    8     -0.33      0.00
    3    0    8      0.52      0.00
    4    0    8     -1.17      0.00
    5    0    8     -1.08      0.00
    6    0    8      1.01      0.00
    7    0    8     -0.02      0.00
    8    0    8     -1.09      0.00
    9    0    8      0.58      0.00
  -12    1    8      0.09      0.00
  -11    1    8      0.38      0.00
  -10    1    8     -0.22      0.00
   -9    1    8      0.90      0.00
   -8    1    8      0.68      0.00
   -7    1    8      0.16      0.00
   -6    1    8     -0.49      0.00
   -5    1    8      1.01      0.00
   -4    1    8     -0.88      0.00
   -3    1    8     -0.73      0.00
   -2    1    8      1.46      0.00
   -1    1    8     -0.72      0.00
    0    1    8      0.57      0.00
    1    1    8      0.06      0.00
    2    1    8     -0.17      0.00
    3    1    8      0.65      0.00
    4    1    8     -0.73      0.00
    5    1    8     -0.62      0.00
    6    1    8      1.19      0.00
    7    1    8     -0.20      0.00
    8    1    8     -0.10      0.00
    9    1    8     -0.18      0.00
  -12    2    8     -0.53      0.00
  -11    2    8      0.46      0.00
  -10    2    8      0.09      0.00
   -9    2    8     -0.29      0.00
   -8    2    8      0.14      0.00
   -7    2    8      0.12      0.00
   -6    2    8     -0.41      0.00
   -5    2    8      1.03      0.00
   -4    2    8     -1.08      0.00
   -3    2    8     -0.54      0.00
   -2    2    8      1.60      0.00
   -1    2    8     -0.53      0.00
    0    2    8     -0.37      0.00
    1    2    8     -0.03      0.00
    2    2    8     -0.18      0.00
    3    2    8      0.61      0.00
    4    2    8     -0.81      0.00
    5    2    8      0.17      0.00
    6    2    8      1.56      0.00
    7    2    8     -0.58      0.00
    8    2    8      1.13      0.00
  -12    3    8     -0.76      0.00
  -11    3    8      0.34      0.00
  -10    3    8      0.19      0.00
   -9    3    8     -1.15      0.00
   -8    3    8     -0.17      0.00
   -7    3    8      0.44      0.00
   -6    3    8     -0.33      0.00
   -5    3    8      0.72      0.00
   -4    3    8     -1.33      0.00
   -3    3    8     -0.55      0.00
   -2    3    8      1.06      0.00
   -1    3    8      0.22      0.00
    0    3    8     -1.16      0.00
    1    3    8      0.28      0.00
    2    3    8      0.04      0.00
    3    3    8     -0.04      0.00
    4    3    8     -1.09      0.00
    5    3    8      0.76      0.00
    6    3    8      2.00      0.00
    7    3    8     -0.91      0.00
    8    3    8      1.58      0.00
  -12    4    8     -0.26      0.00
  -11    4    8      0.20      0.00
  -10    4    8     -0.03      0.00
   -9    4    8     -0.88      0.00
   -8    4    8      0.27      0.00
   -7    4    8      0.86      0.00
   -6    4    8     -0.64      0.00
   -5    4    8      0.35      0.00
   -4    4    8     -1.20      0.00
   -3    4    8     -0.51      0.00
   -2    4    8      0.10      0.00
   -1    4    8      0.96      0.00
    0    4    8     -0.77      0.00
    1    4    8      0.65      0.00
    2    4    8      0.19      0.00
    3    4    8     -0.96      0.00
    4    4    8     -1.10      0.00
    5    4    8      0.78      0.00
    6    4    8      1.70      0.00
    7    4    8     -0.87      0.00
  -12    5    8      0.38      0.00
  -11    5    8      0.26      0.00
  -10    5    8     -0.24      0.00
   -9    5    8      0.11      0.00
   -8    5    8      1.36      0.00
   -7    5    8      1.02      0.00
   -6    5    8     -0.94      0.00
   -5    5    8     -0.04      0.00
   -4    5    8     -0.67      0.00
   -3    5    8     -0.19      0.00
   -2    5    8     -0.58      0.00
   -1    5    8      0.76      0.00
    0    5    8      0.44      0.00
    1    5    8      0.57      0.00
    2    5    8     -0.54      0.00
    3    5    8     -1.39      0.00
    4    5    8     -0.78      0.00
    5    5    8      0.41      0.00
    6    5    8      0.59      0.00
  -12    6    8      0.43      0.00
  -11    6    8      0.38      0.00
  -10    6    8     -0.08      0.00
   -9    6    8      0.70      0.00
   -8    6    8      2.27      0.00
   -7    6    8      0.70      0.00
   -6    6    8     -0.71      0.00
   -5    6    8     -0.47      0.00
   -4    6    8     -0.22      0.00
   -3    6    8      0.15      0.00
   -2    6    8     -0.35      0.00
   -1    6    8     -0.32      0.00
    0    6    8      1.00      0.00
    1    6    8      0.30      0.00
    2    6    8     -1.93      0.00
    3    6    8     -1.06      0.00
    4    6    8     -0.42      0.00
    5    6    8      0.07      0.00
  -11    7    8      0.26      0.00
  -10    7    8      0.39      0.00
   -9    7    8      0.31      0.00
   -8    7    8      2.17      0.00
   -7    7    8      0.09      0.00
   -6    7    8     -0.04      0.00
   -5    7    8     -0.89      0.00
   -4    7    8     -0.11      0.00
   -3    7    8      0.11      0.00
   -2    7    8      0.50      0.00
   -1    7    8     -0.93      0.00
    0    7    8      0.33      0.00
    1    7    8      0.30      0.00
    2    7    8     -2.48      0.00
    3    7    8     -0.39      0.00
    4    7    8     -0.23      0.00
  -11    8    8      0.00      0.00
  -10    8    8      0.65      0.00
   -9    8    8     -0.47      0.00
   -8    8    8      1.15      0.00
   -7    8    8     -0.32      0.00
   -6    8    8      0.64      0.00
   -5    8    8     -1.05      0.00
   -4    8    8     -0.14      0.00
   -3    8    8     -0.08      0.00
   -2    8    8      0.91      0.00
   -1    8    8     -0.29      0.00
    0    8    8     -0.60      0.00
    1    8    8      0.41      0.00
    2    8    8     -1.44      0.00
    3    8    8      0.12      0.00
  -10    9    8      0.38      0.00
   -9    9    8     -0.72      0.00
   -8    9    8      0.20      0.00
   -7    9    8     -0.26      0.00
   -6    9    8      1.00      0.00
   -5    9    8     -0.66      0.00
   -4    9    8     -0.19      0.00
   -3    9    8     -0.06      0.00
   -2    9    8      0.38      0.00
   -1    9    8      0.67      0.00
    0    9    8     -0.68      0.00
    1    9    8      0.24      0.00
   -7   10    8      0.04      0.00
   -6   10    8      0.82      0.00
   -5   10    8      0.05      0.00
   -4   10    8     -0.23      0.00
   -3   10    8     -0.04      0.00
   -2   10    8     -0.39      0.00
   -1   10    8      0.78      0.00
    1  -17    9      0.39      0.00
    2  -17    9     -0.15      0.00
    3  -17    9      0.21      0.00
    4  -17    9      0.20      0.00
    5  -17    9     -0.14      0.00
    6  -17    9      1.06      0.00
   -1  -16    9     -0.25      0.00
    0  -16    9     -0.23      0.00
    1  -16    9      0.39      0.00
    2  -16    9     -0.84      0.00
    3  -16    9      0.15      0.00
    4  -16    9      0.60      0.00
    5  -16    9     -0.45      0.00
    6  -16    9      0.86      0.00
    7  -16    9      0.15      0.00
    8  -16    9     -0.50      0.00
   -3  -15    9      0.14      0.00
   -2  -15    9     -0.48      0.00
   -1  -15    9     -0.25      0.00
    0  -15    9     -0.32      0.00
    1  -15    9      0.38      0.00
    2  -15    9     -1.70      0.00
    3  -15    9     -0.20      0.00
    4  -15    9      0.75      0.00
    5  -15    9     -0.55      0.00
    6  -15    9     -0.27      0.00
    7  -15    9      0.41      0.00
    8  -15    9      0.17      0.00
    9  -15    9     -1.38      0.00
   -4  -14    9     -0.46      0.00
   -3  -14    9      0.00      0.00
   -2  -14    9     -0.53      0.00
   -1  -14    9     -0.26      0.00
    0  -14    9     -0.47      0.00
    1  -14    9      0.84      0.00
    2  -14    9     -2.20      0.00
    3  -14    9     -0.46      0.00
    4  -14    9      0.70      0.00
    5  -14    9     -0.29      0.00
    6  -14    9     -1.34      0.00
    7  -14    9     -0.11      0.00
    8  -14    9      0.58      0.00
    9  -14    9     -1.07      0.00
   10  -14    9      0.30      0.00
   -5  -13    9     -0.66      0.00
   -4  -13    9     -0.63      0.00
   -3  -13    9     -0.13      0.00
   -2  -13    9     -0.53      0.00
   -1  -13    9     -0.14      0.00
    0  -13    9     -0.81      0.00
    1  -13    9      1.43      0.00
    2  -13    9     -1.97      0.00
    3  -13    9     -0.56      0.00
    4  -13    9      0.78      0.00
    5  -13    9      0.14      0.00
    6  -13    9     -1.45      0.00
    7  -13    9     -0.91      0.00
    8  -13    9      0.61      0.00
    9  -13    9     -0.48      0.00
   10  -13    9      1.00      0.00
   -6  -12    9     -0.07      0.00
   -5  -12    9     -0.45      0.00
   -4  -12    9     -0.38      0.00
   -3  -12    9      0.24      0.00
   -2  -12    9     -0.57      0.00
   -1  -12    9      0.21      0.00
    0  -12    9     -1.18      0.00
    1  -12    9      1.23      0.00
    2  -12    9     -1.25      0.00
    3  -12    9     -0.49      0.00
    4  -12    9      0.96      0.00
    5  -12    9      0.39      0.00
    6  -12    9     -0.62      0.00
    7  -12    9     -1.10      0.00
    8  -12    9      0.56      0.00
    9  -12    9      0.21      0.00
   10  -12    9      0.83      0.00
   11  -12    9      1.53      0.00
   -7  -11    9      0.01      0.00
   -6  -11    9      0.16      0.00
   -5  -11    9      0.00      0.00
   -4  -11    9      0.20      0.00
   -3  -11    9      1.06      0.00
   -2  -11    9     -0.38      0.00
   -1  -11    9      0.74      0.00
    0  -11    9     -1.10      0.00
    1  -11    9      0.20      0.00
    2  -11    9     -0.63      0.00
    3  -11    9      0.05      0.00
    4  -11    9      1.04      0.00
    5  -11    9      0.23      0.00
    6  -11    9      0.20      0.00
    7  -11    9     -0.35      0.00
    8  -11    9      0.34      0.00
    9  -11    9      0.78      0.00
   10  -11    9      0.20      0.00
   11  -11    9      1.57      0.00
   -8  -10    9      0.44      0.00
   -7  -10    9     -0.16      0.00
   -6  -10    9      0.31      0.00
   -5  -10    9      0.29      0.00
   -4  -10    9      0.65      0.00
   -3  -10    9      1.51      0.00
   -2  -10    9      0.21      0.00
   -1  -10    9      1.19      0.00
    0  -10    9     -0.46      0.00
    1  -10    9     -0.54      0.00
    2  -10    9     -0.47      0.00
    3  -10    9      0.95      0.00
    4  -10    9      1.01      0.00
    5  -10    9     -0.11      0.00
    6  -10    9     -0.01      0.00
    7  -10    9      0.77      0.00
    8  -10    9     -0.32      0.00
    9  -10    9      0.62      0.00
   10  -10    9     -0.14      0.00
   11  -10    9      0.74      0.00
   -9   -9    9     -0.53      0.00
   -8   -9    9      0.85      0.00
   -7   -9    9     -0.31      0.00
   -6   -9    9      0.45      0.00
   -5   -9    9      0.05      0.00
   -4   -9    9      0.52      0.00
   -3   -9    9      1.07      0.00
   -2   -9    9      0.66      0.00
   -1   -9    9      1.10      0.00
    0   -9    9      0.19      0.00
    1   -9    9     -0.34      0.00
    2   -9    9     -0.57      0.00
    3   -9    9      1.34      0.00
    4   -9    9      0.78      0.00
    5   -9    9     -0.09      0.00
    6   -9    9     -1.20      0.00
    7   -9    9      1.31      0.00
    8   -9    9     -0.86      0.00
    9   -9    9     -0.49      0.00
   10   -9    9     -0.02      0.00
   11   -9    9     -0.36      0.00
   -9   -8    9     -0.35      0.00
   -8   -8    9      0.83      0.00
   -7   -8    9     -0.25      0.00
   -6   -8    9      0.79      0.00
   -5   -8    9     -0.46      0.00
   -4   -8    9     -0.14      0.00
   -3   -8    9      0.26      0.00
   -2   -8    9      0.33      0.00
   -1   -8    9      0.17      0.00
    0   -8    9      0.51      0.00
    1   -8    9      0.23      0.00
    2   -8    9     -0.64      0.00
    3   -8    9      0.66      0.00
    4   -8    9      0.20      0.00
    5   -8    9      0.34      0.00
    6   -8    9     -2.01      0.00
    7   -8    9      0.83      0.00
    8   -8    9     -0.48      0.00
    9   -8    9     -1.62      0.00
   10   -8    9      0.12      0.00
   11   -8    9     -0.85      0.00
  -10   -7    9     -0.95      0.00
   -9   -7    9      0.36      0.00
   -8   -7    9      0.49      0.00
   -7   -7    9     -0.15      0.00
   -6   -7    9      1.09      0.00
   -5   -7    9     -0.54      0.00
   -4   -7    9     -0.84      0.00
   -3   -7    9     -0.02      0.00
   -2   -7    9     -0.37      0.00
   -1   -7    9     -1.09      0.00
    0   -7    9      0.81      0.00
    1   -7    9      0.36      0.00
    2   -7    9     -0.73      0.00
    3   -7    9     -0.39      0.00
    4   -7    9     -0.33      0.00
    5   -7    9      0.45      0.00
    6   -7    9     -1.44      0.00
    7   -7    9     -0.14      0.00
    8   -7    9      0.41      0.00
    9   -7    9     -1.68      0.00
   10   -7    9      0.00      0.00
   11   -7    9     -0.49      0.00
  -10   -6    9     -1.20      0.00
   -9   -6    9      1.20      0.00
   -8   -6    9      0.06      0.00
   -7   -6    9     -0.20      0.00
   -6   -6    9      0.82      0.00
   -5   -6    9     -0.01      0.00
   -4   -6    9     -1.01      0.00
   -3   -6    9      0.27      0.00
   -2   -6    9     -0.37      0.00
   -1   -6    9     -1.56      0.00
    0   -6    9      1.21      0.00
    1   -6    9     -0.02      0.00
    2   -6    9     -1.02      0.00
    3   -6    9     -0.69      0.00
    4   -6    9     -0.22      0.00
    5   -6    9     -0.30      0.00
    6   -6    9     -0.38      0.00
    7   -6    9     -0.83      0.00
    8   -6    9      0.35      0.00
    9   -6    9     -0.80      0.00
   10   -6    9     -0.19      0.00
   11   -6    9      0.10      0.00
  -11   -5    9      0.72      0.00
  -10   -5    9     -1.22      0.00
   -9   -5    9      1.41      0.00
   -8   -5    9     -0.37      0.00
   -7   -5    9     -0.27      0.00
   -6   -5    9      0.03      0.00
   -5   -5    9      0.41      0.00
   -4   -5    9     -0.57      0.00
   -3   -5    9      0.35      0.00
   -2   -5    9      0.41      0.00
   -1   -5    9     -0.63      0.00
    0   -5    9      1.07      0.00
    1   -5    9     -0.74      0.00
    2   -5    9     -1.54      0.00
    3   -5    9     -0.06      0.00
    4   -5    9      0.31      0.00
    5   -5    9     -1.39      0.00
    6   -5    9     -0.27      0.00
    7   -5    9     -0.99      0.00
    8   -5    9     -1.17      0.00
    9   -5    9      0.05      0.00
   10   -5    9     -0.10      0.00
   11   -5    9      0.32      0.00
  -11   -4    9      1.25      0.00
  -10   -4    9     -1.02      0.00
   -9   -4    9      0.81      0.00
   -8   -4    9     -0.73      0.00
   -7   -4    9     -0.02      0.00
   -6   -4    9     -0.57      0.00
   -5   -4    9      0.15      0.00
   -4   -4    9     -0.03      0.00
   -3   -4    9     -0.16      0.00
   -2   -4    9      0.95      0.00
   -1   -4    9      0.86      0.00
    0   -4    9      0.01      0.00
    1   -4    9     -1.60      0.00
    2   -4    9     -2.09      0.00
    3   -4    9      0.79      0.00
    4   -4    9      0.33      0.00
    5   -4    9     -1.74      0.00
    6   -4    9     -0.94      0.00
    7   -4    9     -0.76      0.00
    8   -4    9     -2.86      0.00
    9   -4    9      0.48      0.00
   10   -4    9      0.26      0.00
   11   -4    9      0.16      0.00
  -12   -3    9     -0.30      0.00
  -11   -3    9      1.41      0.00
  -10   -3    9     -0.81      0.00
   -9   -3    9      0.10      0.00
   -8   -3    9     -0.76      0.00
   -7   -3    9      0.55      0.00
   -6   -3    9     -0.55      0.00
   -5   -3    9     -0.33      0.00
   -4   -3    9      0.16      0.00
   -3   -3    9     -0.71      0.00
   -2   -3    9      0.65      0.00
   -1   -3    9      1.57      0.00
    0   -3    9     -1.19      0.00
    1   -3    9     -2.03      0.00
    2   -3    9     -2.25      0.00
    3   -3    9      1.23      0.00
    4   -3    9     -0.36      0.00
    5   -3    9     -1.06      0.00
    6   -3    9     -0.99      0.00
    7   -3    9     -0.26      0.00
    8   -3    9     -3.32      0.00
    9   -3    9      0.84      0.00
   10   -3    9      0.45      0.00
  -12   -2    9     -0.40      0.00
  -11   -2    9      0.93      0.00
  -10   -2    9     -0.83      0.00
   -9   -2    9      0.05      0.00
   -8   -2    9     -0.30      0.00
   -7   -2    9      1.00      0.00
   -6   -2    9     -0.32      0.00
   -5   -2    9     -0.13      0.00
   -4   -2    9      0.11      0.00
   -3   -2    9     -0.64      0.00
   -2   -2    9      0.14      0.00
   -1   -2    9      1.16      0.00
    1   -2    9     -1.52      0.00
    2   -2    9     -1.66      0.00
    3   -2    9      1.16      0.00
    4   -2    9     -0.95      0.00
    5   -2    9     -0.14      0.00
    6   -2    9     -0.15      0.00
    7   -2    9      0.37      0.00
    8   -2    9     -2.61      0.00
    9   -2    9      1.18      0.00
   10   -2    9      0.15      0.00
  -12   -1    9     -0.34      0.00
  -11   -1    9      0.10      0.00
  -10   -1    9     -0.96      0.00
   -9   -1    9      0.54      0.00
   -8   -1    9      0.30      0.00
   -7   -1    9      0.92      0.00
   -6   -1    9     -0.31      0.00
   -5   -1    9      0.81      0.00
   -4   -1    9      0.15      0.00
   -3   -1    9      0.04      0.00
   -2   -1    9      0.21      0.00
   -1   -1    9      0.25      0.00
    0   -1    9     -0.53      0.00
    1   -1    9     -0.63      0.00
    2   -1    9     -0.54      0.00
    3   -1    9      0.84      0.00
    4   -1    9     -0.97      0.00
    5   -1    9      0.23      0.00
    6   -1    9      0.38      0.00
    7   -1    9      0.77      0.00
    8   -1    9     -1.67      0.00
    9   -1    9      1.17      0.00
  -12    0    9     -0.40      0.00
  -11    0    9     -0.43      0.00
  -10    0    9     -0.85      0.00
   -9    0    9      0.70      0.00
   -8    0    9      0.44      0.00
   -7    0    9      0.33      0.00
   -6    0    9     -0.40      0.00
   -5    0    9      1.66      0.00
   -4    0    9      0.03      0.00
   -3    0    9      0.64      0.00
   -2    0    9      0.83      0.00
   -1    0    9     -0.69      0.00
    0    0    9      0.29      0.00
    1    0    9     -0.39      0.00
    2    0    9      0.37      0.00
    3    0    9      0.58      0.00
    4    0    9     -0.82      0.00
    5    0    9      0.08      0.00
    6    0    9     -0.03      0.00
    7    0    9      0.60      0.00
    8    0    9     -0.88      0.00
    9    0    9      0.72      0.00
  -12    1    9     -0.59      0.00
  -11    1    9     -0.32      0.00
  -10    1    9     -0.31      0.00
   -9    1    9      0.11      0.00
   -8    1    9      0.00      0.00
   -7    1    9     -0.26      0.00
   -6    1    9     -0.35      0.00
   -5    1    9      1.79      0.00
   -4    1    9     -0.66      0.00
   -3    1    9      0.50      0.00
   -2    1    9      1.49      0.00
   -1    1    9     -1.41      0.00
    0    1    9      0.15      0.00
    1    1    9     -0.72      0.00
    2    1    9      0.65      0.00
    3    1    9      0.40      0.00
    4    1    9     -0.88      0.00
    5    1    9     -0.12      0.00
    6    1    9     -0.43      0.00
    7    1    9     -0.02      0.00
    8    1    9     -0.11      0.00
  -12    2    9     -0.53      0.00
  -11    2    9      0.28      0.00
  -10    2    9      0.37      0.00
   -9    2    9     -0.59      0.00
   -8    2    9     -0.39      0.00
   -7    2    9     -0.19      0.00
   -6    2    9     -0.36      0.00
   -5    2    9      1.39      0.00
   -4    2    9     -1.49      0.00
   -3    2    9     -0.26      0.00
   -2    2    9      1.75      0.00
   -1    2    9     -1.42      0.00
    0    2    9     -0.64      0.00
    1    2    9     -0.67      0.00
    2    2    9      0.67      0.00
    3    2    9      0.04      0.00
    4    2    9     -0.90      0.00
    5    2    9     -0.18      0.00
    6    2    9      0.10      0.00
    7    2    9     -0.70      0.00
    8    2    9      0.51      0.00
  -12    3    9     -0.05      0.00
  -11    3    9      0.96      0.00
  -10    3    9      0.64      0.00
   -9    3    9     -0.51      0.00
   -8    3    9     -0.02      0.00
   -7    3    9      0.67      0.00
   -6    3    9     -0.70      0.00
   -5    3    9      0.94      0.00
   -4    3    9     -1.55      0.00
   -3    3    9     -0.81      0.00
   -2    3    9      1.31      0.00
   -1    3    9     -0.53      0.00
    0    3    9     -1.00      0.00
    1    3    9     -0.13      0.00
    2    3    9      0.56      0.00
    3    3    9     -0.66      0.00
    4    3    9     -0.62      0.00
    5    3    9     -0.37      0.00
    6    3    9      0.98      0.00
    7    3    9     -1.04      0.00
  -12    4    9      0.46      0.00
  -11    4    9      1.42      0.00
  -10    4    9      0.35      0.00
   -9    4    9      0.36      0.00
   -8    4    9      1.10      0.00
   -7    4    9      1.58      0.00
   -6    4    9     -1.13      0.00
   -5    4    9      0.60      0.00
   -4    4    9     -0.81      0.00
   -3    4    9     -0.52      0.00
   -2    4    9      0.32      0.00
   -1    4    9      0.35      0.00
    0    4    9     -0.38      0.00
    1    4    9      0.04      0.00
    2    4    9     -0.20      0.00
    3    4    9     -1.34      0.00
    4    4    9     -0.26      0.00
    5    4    9     -0.78      0.00
    6    4    9      1.15      0.00
  -12    5    9      0.52      0.00
  -11    5    9      1.52      0.00
  -10    5    9     -0.04      0.00
   -9    5    9      1.05      0.00
   -8    5    9      2.16      0.00
   -7    5    9      1.57      0.00
   -6    5    9     -1.30      0.00
   -5    5    9      0.23      0.00
   -4    5    9     -0.22      0.00
   -3    5    9      0.21      0.00
   -2    5    9     -0.31      0.00
   -1    5    9      0.26      0.00
    0    5    9      0.53      0.00
    1    5    9     -0.37      0.00
    2    5    9     -1.71      0.00
    3    5    9     -1.53      0.00
    4    5    9     -0.09      0.00
    5    5    9     -1.05      0.00
  -11    6    9      1.25      0.00
  -10    6    9     -0.06      0.00
   -9    6    9      0.79      0.00
   -8    6    9      2.30      0.00
   -7    6    9      0.53      0.00
   -6    6    9     -1.15      0.00
   -5    6    9     -0.25      0.00
   -4    6    9     -0.24      0.00
   -3    6    9      0.49      0.00
   -2    6    9      0.10      0.00
   -1    6    9     -0.40      0.00
    0    6    9      0.68      0.00
    1    6    9     -0.68      0.00
    2    6    9     -2.76      0.00
    3    6    9     -1.18      0.00
    4    6    9     -0.17      0.00
  -10    7    9      0.19      0.00
   -9    7    9     -0.12      0.00
   -8    7    9      1.50      0.00
   -7    7    9     -0.61      0.00
   -6    7    9     -0.72      0.00
   -5    7    9     -0.71      0.00
   -4    7    9     -0.36      0.00
   -3    7    9      0.21      0.00
   -2    7    9      0.95      0.00
   -1    7    9     -0.52      0.00
    0    7    9      0.03      0.00
    1    7    9     -0.57      0.00
    2    7    9     -2.26      0.00
    3    7    9     -0.70      0.00
  -10    8    9      0.24      0.00
   -9    8    9     -0.73      0.00
   -8    8    9      0.59      0.00
   -7    8    9     -0.99      0.00
   -6    8    9     -0.07      0.00
   -5    8    9     -0.85      0.00
   -4    8    9     -0.20      0.00
   -3    8    9      0.02      0.00
   -2    8    9      1.11      0.00
   -1    8    9      0.03      0.00
    0    8    9     -0.61      0.00
    1    8    9     -0.42      0.00
   -8    9    9      0.25      0.00
   -7    9    9     -0.69      0.00
   -6    9    9      0.41      0.00
   -5    9    9     -0.56      0.00
   -4    9    9     -0.07      0.00
   -3    9    9      0.07      0.00
   -2    9    9      0.34      0.00
   -1    9    9      0.43      0.00
    1  -17   10      0.09      0.00
    2  -17   10     -0.57      0.00
    3  -17   10     -0.62      0.00
    4  -17   10      0.75      0.00
    5  -17   10     -0.33      0.00
    6  -17   10      0.74      0.00
   -1  -16   10     -0.33      0.00
    0  -16   10     -0.40      0.00
    1  -16   10      0.03      0.00
    2  -16   10     -1.31      0.00
    3  -16   10     -0.70      0.00
    4  -16   10      0.54      0.00
    5  -16   10     -1.13      0.00
    6  -16   10      0.33      0.00
    7  -16   10      1.20      0.00
    8  -16   10      0.37      0.00
   -3  -15   10      0.11      0.00
   -2  -15   10     -0.21      0.00
   -1  -15   10     -0.43      0.00
    0  -15   10     -0.41      0.00
    1  -15   10      0.38      0.00
    2  -15   10     -1.79      0.00
    3  -15   10     -0.44      0.00
    4  -15   10      0.38      0.00
    5  -15   10     -1.28      0.00
    6  -15   10     -0.62      0.00
    7  -15   10      0.91      0.00
    8  -15   10      0.23      0.00
    9  -15   10     -0.40      0.00
   -4  -14   10     -0.77      0.00
   -3  -14   10     -0.37      0.00
   -2  -14   10     -0.33      0.00
   -1  -14   10     -0.61      0.00
    0  -14   10     -0.46      0.00
    1  -14   10      1.16      0.00
    2  -14   10     -1.78      0.00
    3  -14   10     -0.12      0.00
    4  -14   10      0.54      0.00
    5  -14   10     -0.62      0.00
    6  -14   10     -1.34      0.00
    7  -14   10      0.05      0.00
    8  -14   10     -0.04      0.00
    9  -14   10     -0.61      0.00
   10  -14   10      0.12      0.00
   -5  -13   10     -0.54      0.00
   -4  -13   10     -0.98      0.00
   -3  -13   10     -0.57      0.00
   -2  -13   10     -0.65      0.00
   -1  -13   10     -0.56      0.00
    0  -13   10     -0.72      0.00
    1  -13   10      1.63      0.00
    2  -13   10     -1.39      0.00
    3  -13   10     -0.15      0.00
    4  -13   10      0.87      0.00
    5  -13   10      0.23      0.00
    6  -13   10     -1.24      0.00
    7  -13   10     -0.80      0.00
    8  -13   10      0.23      0.00
    9  -13   10     -0.63      0.00
   10  -13   10      0.59      0.00
   -6  -12   10      0.01      0.00
   -5  -12   10     -0.08      0.00
   -4  -12   10     -0.47      0.00
   -3  -12   10      0.02      0.00
   -2  -12   10     -0.91      0.00
   -1  -12   10      0.00      0.00
    0  -12   10     -0.93      0.00
    1  -12   10      1.25      0.00
    2  -12   10     -0.83      0.00
    3  -12   10     -0.17      0.00
    4  -12   10      1.04      0.00
    5  -12   10      0.53      0.00
    6  -12   10     -0.36      0.00
    7  -12   10     -1.04      0.00
    8  -12   10      0.78      0.00
    9  -12   10     -0.22      0.00
   10  -12   10      0.50      0.00
   -7  -11   10      0.65      0.00
   -6  -11   10     -0.06      0.00
   -5  -11   10      0.22      0.00
   -4  -11   10      0.18      0.00
   -3  -11   10      0.96      0.00
   -2  -11   10     -0.61      0.00
   -1  -11   10      0.89      0.00
    0  -11   10     -0.91      0.00
    1  -11   10      0.53      0.00
    2  -11   10     -0.40      0.00
    3  -11   10      0.45      0.00
    4  -11   10      1.10      0.00
    5  -11   10      0.29      0.00
    6  -11   10      0.49      0.00
    7  -11   10     -0.39      0.00
    8  -11   10      0.61      0.00
    9  -11   10      0.28      0.00
   10  -11   10      0.12      0.00
   11  -11   10      1.75      0.00
   -8  -10   10      0.20      0.00
   -7  -10   10     -0.21      0.00
   -6  -10   10     -0.11      0.00
   -5  -10   10      0.18      0.00
   -4  -10   10      0.31      0.00
   -3  -10   10      1.27      0.00
   -2  -10   10      0.09      0.00
   -1  -10   10      1.38      0.00
    0  -10   10     -0.97      0.00
    1  -10   10      0.19      0.00
    2  -10   10     -0.27      0.00
    3  -10   10      1.30      0.00
    4  -10   10      1.11      0.00
    5  -10   10      0.23      0.00
    6  -10   10      0.40      0.00
    7  -10   10      0.77      0.00
    8  -10   10     -0.24      0.00
    9  -10   10      0.16      0.00
   10  -10   10     -0.02      0.00
   11  -10   10      0.99      0.00
   -9   -9   10     -1.22      0.00
   -8   -9   10      0.14      0.00
   -7   -9   10     -0.97      0.00
   -6   -9   10      0.19      0.00
   -5   -9   10      0.01      0.00
   -4   -9   10     -0.07      0.00
   -3   -9   10      0.75      0.00
   -2   -9   10      0.44      0.00
   -1   -9   10      0.83      0.00
    0   -9   10     -1.22      0.00
    1   -9   10      0.28      0.00
    2   -9   10     -0.30      0.00
    3   -9   10      1.42      0.00
    4   -9   10      0.86      0.00
    5   -9   10      0.89      0.00
    6   -9   10     -0.45      0.00
    7   -9   10      1.56      0.00
    8   -9   10     -0.44      0.00
    9   -9   10     -0.61      0.00
   10   -9   10      0.24      0.00
   11   -9   10     -0.05      0.00
   -9   -8   10     -0.89      0.00
   -8   -8   10      0.09      0.00
   -7   -8   10     -1.10      0.00
   -6   -8   10      0.69      0.00
   -5   -8   10      0.07      0.00
   -4   -8   10     -0.52      0.00
   -3   -8   10      0.18      0.00
   -2   -8   10      0.11      0.00
   -1   -8   10     -0.54      0.00
    0   -8   10     -0.91      0.00
    1   -8   10      0.47      0.00
    2   -8   10     -0.16      0.00
    3   -8   10      0.86      0.00
    4   -8   10      0.43      0.00
    5   -8   10      1.76      0.00
    6   -8   10     -0.98      0.00
    7   -8   10      1.39      0.00
    8   -8   10      0.55      0.00
    9   -8   10     -1.35      0.00
   10   -8   10      0.52      0.00
   11   -8   10     -0.40      0.00
  -10   -7   10     -0.26      0.00
   -9   -7   10     -0.03      0.00
   -8   -7   10      0.09      0.00
   -7   -7   10     -0.66      0.00
   -6   -7   10      0.86      0.00
   -5   -7   10      0.45      0.00
   -4   -7   10     -0.66      0.00
   -3   -7   10      0.19      0.00
   -2   -7   10     -0.22      0.00
   -1   -7   10     -1.71      0.00
    0   -7   10      0.49      0.00
    1   -7   10      0.55      0.00
    2   -7   10      0.23      0.00
    3   -7   10      0.61      0.00
    4   -7   10      0.43      0.00
    5   -7   10      1.76      0.00
    6   -7   10     -0.72      0.00
    7   -7   10      0.43      0.00
    8   -7   10      1.41      0.00
    9   -7   10     -1.58      0.00
   10   -7   10      0.36      0.00
   11   -7   10     -0.07      0.00
  -10   -6   10     -0.33      0.00
   -9   -6   10      0.70      0.00
   -8   -6   10      0.04      0.00
   -7   -6   10      0.01      0.00
   -6   -6   10      0.62      0.00
   -5   -6   10      0.83      0.00
   -4   -6   10     -0.53      0.00
   -3   -6   10      0.42      0.00
   -2   -6   10      0.03      0.00
   -1   -6   10     -1.84      0.00
    0   -6   10      2.07      0.00
    1   -6   10      0.16      0.00
    2   -6   10      0.43      0.00
    3   -6   10      1.05      0.00
    4   -6   10      0.98      0.00
    5   -6   10      0.69      0.00
    6   -6   10     -0.33      0.00
    7   -6   10     -0.58      0.00
    8   -6   10      0.71      0.00
    9   -6   10     -1.37      0.00
   10   -6   10     -0.21      0.00
  -11   -5   10      0.62      0.00
  -10   -5   10     -0.11      0.00
   -9   -5   10      0.78      0.00
   -8   -5   10     -0.14      0.00
   -7   -5   10      0.69      0.00
   -6   -5   10      0.47      0.00
   -5   -5   10      0.83      0.00
   -4   -5   10     -0.39      0.00
   -3   -5   10      0.32      0.00
   -2   -5   10      0.53      0.00
   -1   -5   10     -1.15      0.00
    0   -5   10      2.35      0.00
    1   -5   10     -1.04      0.00
    2   -5   10     -0.03      0.00
    3   -5   10      1.52      0.00
    4   -5   10      1.22      0.00
    5   -5   10     -0.48      0.00
    6   -5   10     -0.29      0.00
    7   -5   10     -0.98      0.00
    8   -5   10     -1.00      0.00
    9   -5   10     -0.76      0.00
   10   -5   10     -0.62      0.00
  -11   -4   10      1.34      0.00
  -10   -4   10      0.19      0.00
   -9   -4   10      0.31      0.00
   -8   -4   10     -0.33      0.00
   -7   -4   10      1.20      0.00
   -6   -4   10      0.68      0.00
   -5   -4   10      0.49      0.00
   -4   -4   10     -0.36      0.00
   -3   -4   10      0.14      0.00
   -2   -4   10      0.69      0.00
   -1   -4   10     -0.44      0.00
    0   -4   10      1.22      0.00
    1   -4   10     -2.35      0.00
    2   -4   10     -0.89      0.00
    3   -4   10      1.42      0.00
    4   -4   10      0.54      0.00
    5   -4   10     -0.76      0.00
    6   -4   10     -0.15      0.00
    7   -4   10     -0.67      0.00
    8   -4   10     -2.03      0.00
    9   -4   10      0.24      0.00
   10   -4   10     -0.49      0.00
  -11   -3   10      1.52      0.00
  -10   -3   10      0.11      0.00
   -9   -3   10     -0.12      0.00
   -8   -3   10     -0.30      0.00
   -7   -3   10      1.36      0.00
   -6   -3   10      0.77      0.00
   -5   -3   10      0.27      0.00
   -4   -3   10     -0.16      0.00
   -3   -3   10      0.51      0.00
   -2   -3   10      0.59      0.00
   -1   -3   10      0.01      0.00
    0   -3   10     -0.01      0.00
    1   -3   10     -2.43      0.00
    2   -3   10     -1.25      0.00
    3   -3   10      0.86      0.00
    4   -3   10     -0.47      0.00
    5   -3   10     -0.24      0.00
    6   -3   10      0.33      0.00
    7   -3   10     -0.08      0.00
    8   -3   10     -1.74      0.00
    9   -3   10      1.20      0.00
   10   -3   10     -0.12      0.00
  -12   -2   10     -0.33      0.00
  -11   -2   10      0.84      0.00
  -10   -2   10     -0.42      0.00
   -9   -2   10     -0.04      0.00
   -8   -2   10      0.00      0.00
   -7   -2   10      1.07      0.00
   -6   -2   10      0.32      0.00
   -5   -2   10      0.51      0.00
   -4   -2   10      0.45      0.00
   -3   -2   10      1.37      0.00
   -2   -2   10      0.50      0.00
   -1   -2   10      0.37      0.00
    0   -2   10     -0.42      0.00
    1   -2   10     -1.22      0.00
    2   -2   10     -0.64      0.00
    3   -2   10      0.26      0.00
    4   -2   10     -0.95      0.00
    5   -2   10      0.27      0.00
    6   -2   10      0.38      0.00
    7   -2   10      0.23      0.00
    8   -2   10     -1.02      0.00
    9   -2   10      1.57      0.00
  -12   -1   10     -0.47      0.00
  -11   -1   10     -0.28      0.00
  -10   -1   10     -0.84      0.00
   -9   -1   10      0.35      0.00
   -8   -1   10      0.23      0.00
   -7   -1   10      0.45      0.00
   -6   -1   10     -0.30      0.00
   -5   -1   10      0.96      0.00
   -4   -1   10      0.99      0.00
   -3   -1   10      1.91      0.00
   -2   -1   10      0.35      0.00
   -1   -1   10      0.44      0.00
    0   -1   10     -0.39      0.00
    1   -1   10     -0.25      0.00
    2   -1   10      0.36      0.00
    3   -1   10     -0.13      0.00
    4   -1   10     -0.89      0.00
    5   -1   10      0.33      0.00
    6   -1   10     -0.50      0.00
    7   -1   10      0.19      0.00
    8   -1   10     -0.69      0.00
    9   -1   10      1.37      0.00
  -12    0   10     -0.56      0.00
  -11    0   10     -1.00      0.00
  -10    0   10     -0.60      0.00
   -9    0   10      0.55      0.00
   -8    0   10      0.10      0.00
   -7    0   10     -0.14      0.00
   -6    0   10     -0.52      0.00
   -5    0   10      1.21      0.00
   -4    0   10      0.68      0.00
   -3    0   10      1.46      0.00
   -2    0   10      0.28      0.00
   -1    0   10     -0.24      0.00
    0    0   10     -0.58      0.00
    1    0   10     -0.37      0.00
    2    0   10      0.94      0.00
    3    0   10     -0.22      0.00
    4    0   10     -0.69      0.00
    5    0   10      0.16      0.00
    6    0   10     -1.53      0.00
    7    0   10      0.22      0.00
    8    0   10     -0.60      0.00
  -12    1   10     -0.45      0.00
  -11    1   10     -0.89      0.00
  -10    1   10      0.20      0.00
   -9    1   10      0.34      0.00
   -8    1   10     -0.22      0.00
   -7    1   10     -0.20      0.00
   -6    1   10     -0.38      0.00
   -5    1   10      1.23      0.00
   -4    1   10     -0.28      0.00
   -3    1   10      0.29      0.00
   -2    1   10      0.74      0.00
   -1    1   10     -1.28      0.00
    0    1   10     -1.03      0.00
    1    1   10     -0.70      0.00
    2    1   10      1.03      0.00
    3    1   10     -0.14      0.00
    4    1   10     -0.45      0.00
    5    1   10      0.06      0.00
    6    1   10     -1.56      0.00
    7    1   10      0.40      0.00
  -12    2   10     -0.12      0.00
  -11    2   10     -0.21      0.00
  -10    2   10      0.76      0.00
   -9    2   10      0.12      0.00
   -8    2   10     -0.20      0.00
   -7    2   10      0.57      0.00
   -6    2   10     -0.31      0.00
   -5    2   10      1.21      0.00
   -4    2   10     -0.71      0.00
   -3    2   10     -0.63      0.00
   -2    2   10      1.49      0.00
   -1    2   10     -1.61      0.00
    0    2   10     -1.20      0.00
    1    2   10     -0.38      0.00
    2    2   10      0.88      0.00
    3    2   10     -0.12      0.00
    4    2   10     -0.10      0.00
    5    2   10     -0.13      0.00
    6    2   10     -0.58      0.00
    7    2   10      0.39      0.00
  -12    3   10      0.19      0.00
  -11    3   10      0.51      0.00
  -10    3   10      0.53      0.00
   -9    3   10      0.32      0.00
   -8    3   10      0.42      0.00
   -7    3   10      1.63      0.00
   -6    3   10     -0.44      0.00
   -4    3   10     -0.12      0.00
   -3    3   10     -0.55      0.00
   -2    3   10      1.54      0.00
   -1    3   10     -0.94      0.00
    0    3   10     -0.73      0.00
    1    3   10      0.03      0.00
    2    3   10      0.26      0.00
    3    3   10     -0.14      0.00
    4    3   10      0.31      0.00
    5    3   10     -0.66      0.00
    6    3   10      0.40      0.00
  -11    4   10      0.99      0.00
  -10    4   10     -0.17      0.00
   -9    4   10      0.81      0.00
   -8    4   10      1.26      0.00
   -7    4   10      1.94      0.00
   -6    4   10     -0.63      0.00
   -5    4   10      1.25      0.00
   -4    4   10      0.55      0.00
   -3    4   10      0.30      0.00
   -2    4   10      0.69      0.00
   -1    4   10     -0.11      0.00
    0    4   10      0.20      0.00
    1    4   10     -0.21      0.00
    2    4   10     -0.96      0.00
    3    4   10      0.04      0.00
    4    4   10      0.67      0.00
    5    4   10     -1.23      0.00
  -11    5   10      1.15      0.00
  -10    5   10     -0.59      0.00
   -9    5   10      1.05      0.00
   -8    5   10      1.67      0.00
   -7    5   10      1.10      0.00
   -6    5   10     -0.84      0.00
   -5    5   10      1.19      0.00
   -4    5   10      0.47      0.00
   -3    5   10      1.05      0.00
   -2    5   10      0.12      0.00
   -1    5   10      0.25      0.00
    0    5   10      1.05      0.00
    1    5   10     -0.68      0.00
    2    5   10     -1.93      0.00
    3    5   10      0.44      0.00
    4    5   10      0.88      0.00
  -10    6   10     -0.43      0.00
   -9    6   10      0.78      0.00
   -8    6   10      1.33      0.00
   -7    6   10     -0.11      0.00
   -6    6   10     -1.02      0.00
   -5    6   10      0.91      0.00
   -4    6   10      0.07      0.00
   -3    6   10      1.18      0.00
   -2    6   10      0.75      0.00
   -1    6   10      0.46      0.00
    0    6   10      1.42      0.00
    1    6   10     -0.66      0.00
    2    6   10     -1.64      0.00
    3    6   10      0.66      0.00
   -9    7   10      0.26      0.00
   -8    7   10      0.63      0.00
   -7    7   10     -0.73      0.00
   -6    7   10     -0.91      0.00
   -5    7   10      0.37      0.00
   -4    7   10      0.05      0.00
   -3    7   10      0.98      0.00
   -2    7   10      1.83      0.00
   -1    7   10      0.72      0.00
    0    7   10      1.22      0.00
    1    7   10     -0.34      0.00
   -8    8   10      0.17      0.00
   -7    8   10     -0.64      0.00
   -6    8   10     -0.52      0.00
   -5    8   10     -0.22      0.00
   -4    8   10      0.20      0.00
   -3    8   10      0.71      0.00
   -2    8   10      2.00      0.00
   -1    8   10      0.69      0.00
   -5    9   10     -0.52      0.00
   -4    9   10      0.04      0.00
    2  -17   11     -0.91      0.00
    3  -17   11     -0.72      0.00
    4  -17   11      0.47      0.00
    5  -17   11     -0.72      0.00
   -1  -16   11     -0.53      0.00
    0  -16   11     -0.22      0.00
    1  -16   11     -0.22      0.00
    2  -16   11     -0.99      0.00
    3  -16   11     -0.29      0.00
    4  -16   11      0.42      0.00
    5  -16   11     -0.93      0.00
    6  -16   11     -0.05      0.00
    7  -16   11      1.56      0.00
   -3  -15   11     -0.28      0.00
   -2  -15   11      0.31      0.00
   -1  -15   11     -0.61      0.00
    0  -15   11     -0.08      0.00
    1  -15   11      0.46      0.00
    2  -15   11     -0.90      0.00
    3  -15   11      0.28      0.00
    4  -15   11      0.46      0.00
    5  -15   11     -0.34      0.00
    6  -15   11      0.00      0.00
    7  -15   11      1.94      0.00
    8  -15   11      0.36      0.00
   -4  -14   11     -1.03      0.00
   -3  -14   11     -0.34      0.00
   -2  -14   11      0.33      0.00
   -1  -14   11     -0.67      0.00
    0  -14   11      0.08      0.00
    1  -14   11      1.06      0.00
    2  -14   11     -0.76      0.00
    3  -14   11      0.48      0.00
    4  -14   11      0.61      0.00
    5  -14   11      0.68      0.00
    6  -14   11     -0.31      0.00
    7  -14   11      1.64      0.00
    8  -14   11      0.24      0.00
    9  -14   11      0.15      0.00
   -5  -13   11      0.35      0.00
   -4  -13   11     -0.56      0.00
   -3  -13   11      0.13      0.00
   -2  -13   11     -0.05      0.00
   -1  -13   11     -0.44      0.00
    0  -13   11      0.22      0.00
    1  -13   11      1.19      0.00
    2  -13   11     -0.50      0.00
    3  -13   11      0.45      0.00
    4  -13   11      0.73      0.00
    5  -13   11      1.31      0.00
    6  -13   11     -0.50      0.00
    7  -13   11      0.70      0.00
    8  -13   11      0.71      0.00
    9  -13   11     -0.52      0.00
   -6  -12   11     -0.12      0.00
   -5  -12   11      0.69      0.00
   -4  -12   11      0.17      0.00
   -3  -12   11      0.93      0.00
   -2  -12   11     -0.46      0.00
   -1  -12   11      0.19      0.00
    0  -12   11      0.31      0.00
    1  -12   11      0.91      0.00
    2  -12   11     -0.20      0.00
    3  -12   11      0.74      0.00
    4  -12   11      0.73      0.00
    5  -12   11      1.00      0.00
    6  -12   11     -0.19      0.00
    7  -12   11     -0.32      0.00
    8  -12   11      0.88      0.00
    9  -12   11     -0.77      0.00
   10  -12   11     -0.05      0.00
   -7  -11   11      0.50      0.00
   -6  -11   11     -0.66      0.00
   -5  -11   11      0.56      0.00
   -4  -11   11      0.34      0.00
   -3  -11   11      1.36      0.00
   -2  -11   11     -0.36      0.00
   -1  -11   11      0.88      0.00
    0  -11   11     -0.07      0.00
    1  -11   11      0.60      0.00
    2  -11   11     -0.22      0.00
    3  -11   11      1.05      0.00
    4  -11   11      0.53      0.00
    5  -11   11     -0.03      0.00
    6  -11   11      0.08      0.00
    7  -11   11     -0.70      0.00
    8  -11   11      0.02      0.00
    9  -11   11     -0.57      0.00
   10  -11   11     -0.33      0.00
   -8  -10   11     -0.66      0.00
   -7  -10   11     -0.43      0.00
   -6  -10   11     -0.87      0.00
   -5  -10   11      0.14      0.00
   -4  -10   11     -0.21      0.00
   -3  -10   11      1.04      0.00
   -2  -10   11      0.12      0.00
   -1  -10   11      1.11      0.00
    0  -10   11     -1.09      0.00
    1  -10   11      0.42      0.00
    2  -10   11     -0.71      0.00
    3  -10   11      0.50      0.00
    4  -10   11     -0.06      0.00
    5  -10   11     -0.82      0.00
    6  -10   11     -0.40      0.00
    7  -10   11     -0.32      0.00
    8  -10   11     -1.13      0.00
    9  -10   11     -0.31      0.00
   10  -10   11     -0.16      0.00
   -8   -9   11     -0.54      0.00
   -7   -9   11     -1.25      0.00
   -6   -9   11     -0.82      0.00
   -5   -9   11     -0.29      0.00
   -4   -9   11     -0.93      0.00
   -3   -9   11      0.38      0.00
   -2   -9   11      0.33      0.00
   -1   -9   11      0.63      0.00
    0   -9   11     -1.95      0.00
    1   -9   11      0.40      0.00
    2   -9   11     -1.16      0.00
    3   -9   11     -0.67      0.00
    4   -9   11     -0.85      0.00
    5   -9   11     -0.67      0.00
    6   -9   11     -1.32      0.00
    7   -9   11      0.34      0.00
    8   -9   11     -1.35      0.00
    9   -9   11     -0.40      0.00
   10   -9   11      0.29      0.00
   -9   -8   11     -0.84      0.00
   -8   -8   11     -0.33      0.00
   -7   -8   11     -1.58      0.00
   -6   -8   11     -0.94      0.00
   -5   -8   11     -0.47      0.00
   -4   -8   11     -1.23      0.00
   -3   -8   11      0.03      0.00
   -2   -8   11      0.02      0.00
   -1   -8   11     -0.30      0.00
    0   -8   11     -1.61      0.00
    1   -8   11      0.45      0.00
    2   -8   11     -1.06      0.00
    3   -8   11     -1.08      0.00
    4   -8   11     -1.04      0.00
    5   -8   11      0.07      0.00
    6   -8   11     -1.75      0.00
    7   -8   11      0.70      0.00
    8   -8   11     -0.64      0.00
    9   -8   11     -0.99      0.00
   10   -8   11      0.39      0.00
  -10   -7   11      0.03      0.00
   -9   -7   11     -0.66      0.00
   -8   -7   11     -0.27      0.00
   -7   -7   11     -1.29      0.00
   -6   -7   11     -1.17      0.00
   -5   -7   11     -0.18      0.00
   -4   -7   11     -0.96      0.00
   -3   -7   11      0.02      0.00
   -2   -7   11     -0.47      0.00
   -1   -7   11     -1.22      0.00
    0   -7   11     -0.24      0.00
    1   -7   11      0.10      0.00
    2   -7   11     -0.63      0.00
    3   -7   11     -0.12      0.00
    4   -7   11     -0.34      0.00
    5   -7   11      0.37      0.00
    6   -7   11     -1.50      0.00
    7   -7   11      0.55      0.00
    8   -7   11     -0.04      0.00
    9   -7   11     -1.64      0.00
   10   -7   11     -0.22      0.00
  -10   -6   11      0.00      0.00
   -9   -6   11     -0.54      0.00
   -8   -6   11     -0.49      0.00
   -7   -6   11     -0.55      0.00
   -6   -6   11     -0.86      0.00
   -5   -6   11      0.39      0.00
   -4   -6   11     -0.49      0.00
   -3   -6   11     -0.03      0.00
   -2   -6   11     -0.76      0.00
   -1   -6   11     -1.90      0.00
    0   -6   11      0.90      0.00
    1   -6   11     -1.19      0.00
    2   -6   11     -0.50      0.00
    3   -6   11      1.22      0.00
    4   -6   11      0.42      0.00
    5   -6   11     -0.17      0.00
    6   -6   11     -1.03      0.00
    7   -6   11      0.03      0.00
    8   -6   11     -0.05      0.00
    9   -6   11     -1.46      0.00
   10   -6   11     -1.04      0.00
  -10   -5   11      0.27      0.00
   -9   -5   11     -0.50      0.00
   -8   -5   11     -0.82      0.00
   -7   -5   11      0.25      0.00
   -6   -5   11      0.16      0.00
   -5   -5   11      0.64      0.00
   -4   -5   11     -0.36      0.00
   -3   -5   11     -0.08      0.00
   -2   -5   11     -0.69      0.00
   -1   -5   11     -2.28      0.00
    0   -5   11      1.25      0.00
    1   -5   11     -2.76      0.00
    2   -5   11     -0.65      0.00
    3   -5   11      1.78      0.00
    4   -5   11      0.39      0.00
    5   -5   11     -0.85      0.00
    6   -5   11     -0.44      0.00
    7   -5   11     -0.51      0.00
    8   -5   11     -0.20      0.00
    9   -5   11     -0.17      0.00
   10   -5   11     -1.29      0.00
  -11   -4   11      1.10      0.00
  -10   -4   11      0.50      0.00
   -9   -4   11     -0.41      0.00
   -8   -4   11     -0.83      0.00
   -7   -4   11      0.76      0.00
   -6   -4   11      1.11      0.00
   -5   -4   11      0.22      0.00
   -4   -4   11     -0.58      0.00
   -3   -4   11      0.27      0.00
   -2   -4   11     -0.19      0.00
   -1   -4   11     -2.16      0.00
    0   -4   11      1.32      0.00
    1   -4   11     -2.94      0.00
    2   -4   11     -0.36      0.00
    3   -4   11      1.53      0.00
    4   -4   11     -0.09      0.00
    5   -4   11     -0.78      0.00
    6   -4   11      0.45      0.00
    7   -4   11     -0.82      0.00
    8   -4   11     -0.05      0.00
    9   -4   11      1.22      0.00
  -11   -3   11      1.40      0.00
  -10   -3   11      0.37      0.00
   -9   -3   11     -0.05      0.00
   -8   -3   11     -0.25      0.00
   -7   -3   11      0.89      0.00
   -6   -3   11      1.19      0.00
   -5   -3   11     -0.50      0.00
   -4   -3   11     -0.50      0.00
   -3   -3   11      0.95      0.00
   -2   -3   11      0.38      0.00
   -1   -3   11     -1.27      0.00
    0   -3   11      1.33      0.00
    1   -3   11     -1.27      0.00
    2   -3   11      0.62      0.00
    3   -3   11      0.95      0.00
    4   -3   11     -0.21      0.00
    5   -3   11      0.05      0.00
    6   -3   11      1.28      0.00
    7   -3   11     -0.96      0.00
    8   -3   11      0.18      0.00
    9   -3   11      1.43      0.00
  -11   -2   11      0.85      0.00
  -10   -2   11      0.00      0.00
   -9   -2   11      0.61      0.00
   -8   -2   11      0.59      0.00
   -7   -2   11      0.69      0.00
   -6   -2   11      0.53      0.00
   -5   -2   11     -0.88      0.00
   -4   -2   11      0.22      0.00
   -3   -2   11      1.36      0.00
   -2   -2   11      0.27      0.00
   -1   -2   11      0.05      0.00
    0   -2   11      0.68      0.00
    1   -2   11      0.42      0.00
    2   -2   11      1.51      0.00
    3   -2   11      0.26      0.00
    4   -2   11      0.02      0.00
    5   -2   11      0.74      0.00
    6   -2   11      1.30      0.00
    7   -2   11     -0.97      0.00
    8   -2   11      0.11      0.00
  -11   -1   11     -0.14      0.00
  -10   -1   11     -0.15      0.00
   -9   -1   11      1.17      0.00
   -8   -1   11      0.98      0.00
   -7   -1   11      0.21      0.00
   -6   -1   11     -0.18      0.00
   -5   -1   11     -0.73      0.00
   -4   -1   11      0.90      0.00
   -3   -1   11      1.05      0.00
   -2   -1   11     -0.49      0.00
   -1   -1   11      0.78      0.00
    0   -1   11     -0.75      0.00
    1   -1   11      0.45      0.00
    2   -1   11      1.53      0.00
    3   -1   11     -0.40      0.00
    4   -1   11      0.06      0.00
    5   -1   11      0.63      0.00
    6   -1   11      0.36      0.00
    7   -1   11     -0.62      0.00
    8   -1   11     -0.21      0.00
  -11    0   11     -0.85      0.00
  -10    0   11      0.14      0.00
   -9    0   11      1.16      0.00
   -8    0   11      0.61      0.00
   -7    0   11     -0.22      0.00
   -6    0   11     -0.57      0.00
   -5    0   11     -0.37      0.00
   -4    0   11      0.82      0.00
   -3    0   11      0.29      0.00
   -2    0   11     -0.67      0.00
   -1    0   11      0.35      0.00
    0    0   11     -2.05      0.00
    1    0   11     -0.49      0.00
    2    0   11      0.94      0.00
    3    0   11     -0.78      0.00
    4    0   11     -0.19      0.00
    5    0   11     -0.05      0.00
    6    0   11     -0.88      0.00
    7    0   11      0.13      0.00
  -11    1   11     -0.89      0.00
  -10    1   11      0.54      0.00
   -9    1   11      0.65      0.00
   -8    1   11      0.03      0.00
   -7    1   11     -0.04      0.00
   -5    1   11     -0.09      0.00
   -4    1   11      0.41      0.00
   -3    1   11     -0.24      0.00
   -2    1   11      0.48      0.00
   -1    1   11     -0.58      0.00
    0    1   11     -2.33      0.00
    1    1   11     -0.80      0.00
    2    1   11      0.32      0.00
    3    1   11     -0.80      0.00
    4    1   11     -0.44      0.00
    5    1   11     -0.65      0.00
    6    1   11     -1.67      0.00
    7    1   11      0.69      0.00
  -11    2   11     -0.43      0.00
  -10    2   11      0.58      0.00
   -9    2   11      0.25      0.00
   -8    2   11     -0.04      0.00
   -7    2   11      0.78      0.00
   -6    2   11     -0.65      0.00
   -5    2   11      0.12      0.00
   -4    2   11      0.54      0.00
   -3    2   11     -0.12      0.00
   -2    2   11      1.79      0.00
   -1    2   11     -1.09      0.00
    0    2   11     -1.74      0.00
    1    2   11     -0.48      0.00
    2    2   11     -0.50      0.00
    3    2   11     -0.61      0.00
    4    2   11     -0.58      0.00
    5    2   11     -1.01      0.00
    6    2   11     -1.68      0.00
  -11    3   11      0.14      0.00
  -10    3   11      0.14      0.00
   -9    3   11      0.37      0.00
   -8    3   11      0.48      0.00
   -7    3   11      1.30      0.00
   -6    3   11     -0.40      0.00
   -5    3   11      0.45      0.00
   -4    3   11      1.08      0.00
   -3    3   11      0.55      0.00
   -2    3   11      1.62      0.00
   -1    3   11     -0.95      0.00
    0    3   11     -1.01      0.00
    1    3   11     -0.61      0.00
    2    3   11     -1.88      0.00
    3    3   11     -0.27      0.00
    4    3   11     -0.53      0.00
    5    3   11     -1.27      0.00
  -10    4   11     -0.38      0.00
   -9    4   11      0.81      0.00
   -8    4   11      0.97      0.00
   -7    4   11      0.74      0.00
   -6    4   11     -0.27      0.00
   -5    4   11      0.96      0.00
   -4    4   11      1.17      0.00
   -3    4   11      1.21      0.00
   -2    4   11      0.25      0.00
   -1    4   11     -0.49      0.00
    0    4   11     -0.45      0.00
    1    4   11     -1.28      0.00
    2    4   11     -3.08      0.00
    3    4   11      0.21      0.00
    4    4   11     -0.17      0.00
  -10    5   11     -0.57      0.00
   -9    5   11      1.11      0.00
   -8    5   11      0.89      0.00
   -7    5   11     -0.39      0.00
   -6    5   11     -0.53      0.00
   -5    5   11      1.34      0.00
   -4    5   11      0.61      0.00
   -3    5   11      1.40      0.00
   -2    5   11     -0.57      0.00
   -1    5   11      0.03      0.00
    0    5   11      0.07      0.00
    1    5   11     -1.58      0.00
    2    5   11     -2.84      0.00
    3    5   11      0.61      0.00
   -9    6   11      1.09      0.00
   -8    6   11      0.39      0.00
   -7    6   11     -0.90      0.00
   -6    6   11     -0.85      0.00
   -5    6   11      1.11      0.00
   -4    6   11     -0.02      0.00
   -3    6   11      1.05      0.00
   -2    6   11     -0.08      0.00
   -1    6   11      0.35      0.00
    0    6   11      0.61      0.00
    1    6   11     -1.14      0.00
   -8    7   11      0.03      0.00
   -7    7   11     -0.44      0.00
   -6    7   11     -0.78      0.00
   -5    7   11      0.27      0.00
   -4    7   11     -0.41      0.00
   -3    7   11      0.38      0.00
   -2    7   11      0.81      0.00
   -1    7   11      0.20      0.00
    0    7   11      0.89      0.00
   -5    8   11     -0.50      0.00
   -4    8   11     -0.65      0.00
   -1  -16   12     -0.23      0.00
    0  -16   12      0.55      0.00
    1  -16   12     -0.01      0.00
    2  -16   12     -0.52      0.00
    3  -16   12     -0.06      0.00
    4  -16   12     -0.54      0.00
    5  -16   12     -0.69      0.00
    6  -16   12     -0.38      0.00
   -2  -15   12      0.91      0.00
   -1  -15   12     -0.40      0.00
    0  -15   12      0.70      0.00
    1  -15   12      0.60      0.00
    2  -15   12     -0.19      0.00
    3  -15   12      0.05      0.00
    4  -15   12     -0.71      0.00
    5  -15   12     -0.22      0.00
    6  -15   12     -0.42      0.00
    7  -15   12      1.77      0.00
    8  -15   12     -0.10      0.00
   -4  -14   12     -0.64      0.00
   -3  -14   12     -0.18      0.00
   -2  -14   12      0.60      0.00
   -1  -14   12     -0.55      0.00
    0  -14   12      0.90      0.00
    1  -14   12      0.86      0.00
    2  -14   12      0.17      0.00
    3  -14   12      0.42      0.00
    4  -14   12     -0.34      0.00
    5  -14   12      0.92      0.00
    6  -14   12     -0.73      0.00
    7  -14   12      2.07      0.00
    8  -14   12      0.30      0.00
   -5  -13   12      0.45      0.00
   -4  -13   12      0.04      0.00
   -3  -13   12      0.41      0.00
   -2  -13   12     -0.29      0.00
   -1  -13   12     -0.58      0.00
    0  -13   12      1.04      0.00
    1  -13   12      0.60      0.00
    2  -13   12      0.41      0.00
    3  -13   12      1.32      0.00
    4  -13   12      0.35      0.00
    5  -13   12      1.91      0.00
    6  -13   12     -0.56      0.00
    7  -13   12      1.71      0.00
    8  -13   12      0.96      0.00
    9  -13   12      0.22      0.00
   -6  -12   12     -0.25      0.00
   -5  -12   12      0.77      0.00
   -4  -12   12      0.54      0.00
   -3  -12   12      0.96      0.00
   -2  -12   12     -1.01      0.00
   -1  -12   12     -0.47      0.00
    0  -12   12      0.88      0.00
    1  -12   12      0.21      0.00
    2  -12   12      0.31      0.00
    3  -12   12      2.21      0.00
    4  -12   12      0.87      0.00
    5  -12   12      1.75      0.00
    6  -12   12      0.14      0.00
    7  -12   12      0.97      0.00
    8  -12   12      1.00      0.00
    9  -12   12     -0.26      0.00
   -7  -11   12      1.41      0.00
   -6  -11   12     -0.38      0.00
   -5  -11   12      0.95      0.00
   -4  -11   12      0.32      0.00
   -3  -11   12      1.00      0.00
   -2  -11   12     -0.93      0.00
   -1  -11   12     -0.28      0.00
    0  -11   12      0.18      0.00
    1  -11   12      0.18      0.00
    2  -11   12     -0.10      0.00
    3  -11   12      1.96      0.00
    4  -11   12      0.86      0.00
    5  -11   12      0.53      0.00
    6  -11   12      0.57      0.00
    7  -11   12      0.43      0.00
    8  -11   12      0.21      0.00
    9  -11   12     -0.03      0.00
   -8  -10   12     -0.02      0.00
   -7  -10   12      1.29      0.00
   -6  -10   12     -0.18      0.00
   -5  -10   12      0.70      0.00
   -4  -10   12     -0.52      0.00
   -3  -10   12      0.56      0.00
   -2  -10   12     -0.37      0.00
   -1  -10   12     -0.04      0.00
    0  -10   12     -0.70      0.00
    1  -10   12      0.71      0.00
    2  -10   12     -0.37      0.00
    3  -10   12      0.49      0.00
    4  -10   12      0.42      0.00
    5  -10   12     -0.54      0.00
    6  -10   12      0.40      0.00
    7  -10   12      0.67      0.00
    8  -10   12     -0.68      0.00
    9  -10   12      0.67      0.00
   10  -10   12      0.18      0.00
   -8   -9   12      0.43      0.00
   -7   -9   12      0.91      0.00
   -6   -9   12     -0.28      0.00
   -5   -9   12      0.06      0.00
   -4   -9   12     -1.31      0.00
   -3   -9   12      0.19      0.00
   -2   -9   12     -0.01      0.00
   -1   -9   12      0.19      0.00
    0   -9   12     -1.05      0.00
    1   -9   12      1.45      0.00
    2   -9   12     -0.24      0.00
    3   -9   12     -0.79      0.00
    4   -9   12      0.08      0.00
    5   -9   12     -0.54      0.00
    6   -9   12      0.07      0.00
    7   -9   12      1.74      0.00
    8   -9   12     -1.02      0.00
    9   -9   12      0.99      0.00
   10   -9   12      0.25      0.00
   -9   -8   12     -0.17      0.00
   -8   -8   12      0.92      0.00
   -7   -8   12      0.49      0.00
   -6   -8   12     -0.90      0.00
   -5   -8   12     -0.28      0.00
   -4   -8   12     -1.30      0.00
   -3   -8   12      0.24      0.00
   -2   -8   12     -0.14      0.00
   -1   -8   12      0.34      0.00
    0   -8   12     -0.73      0.00
    1   -8   12      1.49      0.00
    2   -8   12     -0.19      0.00
    3   -8   12     -0.68      0.00
    4   -8   12      0.07      0.00
    5   -8   12     -0.02      0.00
    6   -8   12     -0.22      0.00
    7   -8   12      2.80      0.00
    8   -8   12     -0.89      0.00
    9   -8   12      0.41      0.00
   10   -8   12      0.03      0.00
   -9   -7   12     -0.29      0.00
   -8   -7   12      0.92      0.00
   -7   -7   12      0.23      0.00
   -6   -7   12     -1.47      0.00
   -5   -7   12      0.17      0.00
   -4   -7   12     -0.49      0.00
   -3   -7   12      0.49      0.00
   -2   -7   12     -0.48      0.00
   -1   -7   12      0.18      0.00
    0   -7   12     -0.33      0.00
    1   -7   12      0.09      0.00
    2   -7   12     -0.72      0.00
    3   -7   12      0.46      0.00
    4   -7   12     -0.04      0.00
    5   -7   12     -0.15      0.00
    6   -7   12     -0.76      0.00
    7   -7   12      2.61      0.00
    8   -7   12     -0.66      0.00
    9   -7   12     -0.34      0.00
  -10   -6   12      0.48      0.00
   -9   -6   12     -0.23      0.00
   -8   -6   12      0.14      0.00
   -7   -6   12      0.13      0.00
   -6   -6   12     -1.36      0.00
   -5   -6   12      0.79      0.00
   -4   -6   12      0.20      0.00
   -3   -6   12      0.57      0.00
   -2   -6   12     -0.65      0.00
   -1   -6   12     -0.52      0.00
    0   -6   12     -0.05      0.00
    1   -6   12     -2.13      0.00
    2   -6   12     -1.31      0.00
    3   -6   12      1.58      0.00
    4   -6   12     -0.55      0.00
    5   -6   12     -1.03      0.00
    6   -6   12     -1.36      0.00
    7   -6   12      0.94      0.00
    8   -6   12     -0.50      0.00
    9   -6   12     -0.12      0.00
  -10   -5   12      0.59      0.00
   -9   -5   12     -0.15      0.00
   -8   -5   12     -0.92      0.00
   -7   -5   12      0.17      0.00
   -6   -5   12     -0.62      0.00
   -5   -5   12      0.55      0.00
   -4   -5   12      0.03      0.00
   -3   -5   12      0.59      0.00
   -2   -5   12     -0.31      0.00
   -1   -5   12     -1.63      0.00
    0   -5   12      0.60      0.00
    1   -5   12     -3.19      0.00
    2   -5   12     -0.93      0.00
    3   -5   12      2.12      0.00
    4   -5   12     -0.89      0.00
    5   -5   12     -1.54      0.00
    6   -5   12     -1.13      0.00
    7   -5   12     -1.01      0.00
    8   -5   12     -0.28      0.00
    9   -5   12      0.94      0.00
  -10   -4   12      0.32      0.00
   -9   -4   12     -0.16      0.00
   -8   -4   12     -1.34      0.00
   -7   -4   12      0.41      0.00
   -6   -4   12      0.21      0.00
   -5   -4   12     -0.48      0.00
   -4   -4   12     -0.47      0.00
   -3   -4   12      0.72      0.00
   -2   -4   12      0.41      0.00
   -1   -4   12     -2.32      0.00
    0   -4   12      1.53      0.00
    1   -4   12     -2.05      0.00
    2   -4   12      0.50      0.00
    3   -4   12      1.88      0.00
    4   -4   12     -0.59      0.00
    5   -4   12     -0.97      0.00
    6   -4   12      0.18      0.00
    7   -4   12     -1.91      0.00
    8   -4   12      0.15      0.00
    9   -4   12      1.49      0.00
  -11   -3   12      0.59      0.00
  -10   -3   12     -0.26      0.00
   -9   -3   12     -0.07      0.00
   -8   -3   12     -0.74      0.00
   -7   -3   12      0.66      0.00
   -6   -3   12      0.69      0.00
   -5   -3   12     -1.25      0.00
   -4   -3   12     -0.18      0.00
   -3   -3   12      0.79      0.00
   -2   -3   12      0.74      0.00
   -1   -3   12     -1.81      0.00
    0   -3   12      1.70      0.00
    1   -3   12     -0.12      0.00
    2   -3   12      1.74      0.00
    3   -3   12      0.84      0.00
    4   -3   12     -0.15      0.00
    5   -3   12     -0.06      0.00
    6   -3   12      1.71      0.00
    7   -3   12     -1.59      0.00
    8   -3   12      0.80      0.00
  -11   -2   12     -0.13      0.00
  -10   -2   12     -0.71      0.00
   -9   -2   12      0.25      0.00
   -8   -2   12      0.23      0.00
   -7   -2   12      0.45      0.00
   -6   -2   12      0.63      0.00
   -5   -2   12     -1.23      0.00
   -4   -2   12      0.86      0.00
   -3   -2   12      0.49      0.00
   -2   -2   12      0.15      0.00
   -1   -2   12     -0.26      0.00
    0   -2   12      0.54      0.00
    1   -2   12      0.54      0.00
    2   -2   12      1.89      0.00
    3   -2   12     -0.44      0.00
    4   -2   12     -0.17      0.00
    5   -2   12      0.01      0.00
    6   -2   12      2.36      0.00
    7   -2   12     -0.74      0.00
    8   -2   12      1.32      0.00
  -11   -1   12     -0.85      0.00
  -10   -1   12     -0.68      0.00
   -9   -1   12      0.52      0.00
   -8   -1   12      0.68      0.00
   -7   -1   12     -0.27      0.00
   -6   -1   12      0.08      0.00
   -5   -1   12     -0.90      0.00
   -4   -1   12      1.43      0.00
   -3   -1   12     -0.02      0.00
   -2   -1   12     -0.57      0.00
   -1   -1   12      1.24      0.00
    0   -1   12     -0.92      0.00
    1   -1   12      0.00      0.00
    2   -1   12      1.49      0.00
    3   -1   12     -0.90      0.00
    4   -1   12     -0.26      0.00
    5   -1   12     -0.72      0.00
    6   -1   12      1.80      0.00
    7   -1   12      0.11      0.00
  -11    0   12     -1.02      0.00
  -10    0   12     -0.26      0.00
   -9    0   12      0.39      0.00
   -8    0   12      0.50      0.00
   -7    0   12     -0.67      0.00
   -5    0   12     -0.82      0.00
   -4    0   12      0.99      0.00
   -3    0   12     -0.22      0.00
   -2    0   12     -0.11      0.00
   -1    0   12      1.78      0.00
    0    0   12     -1.35      0.00
    1    0   12     -0.17      0.00
    2    0   12      1.39      0.00
    3    0   12     -0.27      0.00
    4    0   12      0.13      0.00
    5    0   12     -1.10      0.00
    6    0   12      0.45      0.00
  -11    1   12     -0.76      0.00
  -10    1   12      0.07      0.00
   -9    1   12     -0.03      0.00
   -8    1   12      0.32      0.00
   -7    1   12     -0.08      0.00
   -6    1   12     -0.56      0.00
   -5    1   12     -0.87      0.00
   -4    1   12      0.43      0.00
   -3    1   12      0.15      0.00
   -2    1   12      1.27      0.00
   -1    1   12      1.37      0.00
    0    1   12     -0.71      0.00
    1    1   12      0.50      0.00
    2    1   12      1.20      0.00
    3    1   12      0.62      0.00
    4    1   12      0.58      0.00
    5    1   12     -0.55      0.00
    6    1   12     -0.81      0.00
  -10    2   12     -0.07      0.00
   -9    2   12     -0.28      0.00
   -8    2   12      0.51      0.00
   -7    2   12      0.80      0.00
   -6    2   12      0.03      0.00
   -5    2   12     -0.65      0.00
   -4    2   12      0.54      0.00
   -3    2   12      0.86      0.00
   -2    2   12      1.88      0.00
   -1    2   12      0.67      0.00
    0    2   12     -0.02      0.00
    1    2   12      0.98      0.00
    2    2   12     -0.01      0.00
    3    2   12      0.93      0.00
    4    2   12      0.37      0.00
    5    2   12      0.17      0.00
  -10    3   12     -0.50      0.00
   -9    3   12     -0.12      0.00
   -8    3   12      0.81      0.00
   -7    3   12      0.62      0.00
   -6    3   12      0.56      0.00
   -5    3   12     -0.08      0.00
   -4    3   12      0.96      0.00
   -3    3   12      1.43      0.00
   -2    3   12      0.91      0.00
   -1    3   12      0.36      0.00
    0    3   12      0.09      0.00
    1    3   12      0.62      0.00
    2    3   12     -1.82      0.00
    3    3   12      0.70      0.00
    4    3   12     -0.26      0.00
  -10    4   12     -0.79      0.00
   -9    4   12      0.32      0.00
   -8    4   12      0.73      0.00
   -7    4   12     -0.63      0.00
   -6    4   12      0.43      0.00
   -5    4   12      0.51      0.00
   -4    4   12      0.98      0.00
   -3    4   12      1.62      0.00
   -2    4   12     -0.54      0.00
   -1    4   12      0.62      0.00
    0    4   12     -0.21      0.00
    1    4   12     -0.05      0.00
    2    4   12     -2.57      0.00
    3    4   12      0.38      0.00
   -9    5   12      0.74      0.00
   -8    5   12      0.24      0.00
   -7    5   12     -1.57      0.00
   -6    5   12     -0.07      0.00
   -5    5   12      0.68      0.00
   -4    5   12      0.55      0.00
   -3    5   12      1.43      0.00
   -2    5   12     -1.10      0.00
   -1    5   12      0.85      0.00
    0    5   12     -0.48      0.00
    1    5   12     -0.49      0.00
   -8    6   12     -0.26      0.00
   -7    6   12     -1.23      0.00
   -6    6   12     -0.21      0.00
   -5    6   12      0.31      0.00
   -4    6   12      0.01      0.00
   -3    6   12      0.85      0.00
   -2    6   12     -0.76      0.00
   -1    6   12      0.34      0.00
    0  -16   13      0.92      0.00
    1  -16   13      0.59      0.00
    2  -16   13      0.13      0.00
    3  -16   13      0.08      0.00
    4  -16   13     -1.25      0.00
    5  -16   13     -0.55      0.00
   -2  -15   13      0.63      0.00
   -1  -15   13     -0.79      0.00
    0  -15   13      0.88      0.00
    1  -15   13      0.81      0.00
    2  -15   13      0.50      0.00
    3  -15   13     -0.01      0.00
    4  -15   13     -1.15      0.00
    5  -15   13     -0.13      0.00
    6  -15   13     -0.67      0.00
    7  -15   13      0.79      0.00
   -3  -14   13     -0.45      0.00
   -2  -14   13     -0.12      0.00
   -1  -14   13     -1.06      0.00
    0  -14   13      0.72      0.00
    1  -14   13      0.33      0.00
    2  -14   13      0.48      0.00
    3  -14   13      0.45      0.00
    4  -14   13     -0.67      0.00
    5  -14   13      0.96      0.00
    6  -14   13     -0.97      0.00
    7  -14   13      1.22      0.00
    8  -14   13     -0.39      0.00
   -5  -13   13     -0.38      0.00
   -4  -13   13      0.52      0.00
   -3  -13   13      0.17      0.00
   -2  -13   13     -1.05      0.00
   -1  -13   13     -1.12      0.00
    0  -13   13      0.54      0.00
    1  -13   13     -0.52      0.00
    2  -13   13     -0.01      0.00
    3  -13   13      1.44      0.00
    4  -13   13     -0.24      0.00
    5  -13   13      1.60      0.00
    6  -13   13     -0.79      0.00
    7  -13   13      1.39      0.00
    8  -13   13     -0.07      0.00
   -6  -12   13     -0.55      0.00
   -5  -12   13      0.21      0.00
   -4  -12   13      0.74      0.00
   -3  -12   13      0.73      0.00
   -2  -12   13     -1.36      0.00
   -1  -12   13     -1.10      0.00
    0  -12   13      0.30      0.00
    1  -12   13     -0.99      0.00
    2  -12   13     -0.66      0.00
    3  -12   13      2.06      0.00
    4  -12   13      0.01      0.00
    5  -12   13      0.98      0.00
    6  -12   13     -0.48      0.00
    7  -12   13      0.96      0.00
    8  -12   13      0.00      0.00
    9  -12   13     -0.55      0.00
   -6  -11   13     -0.49      0.00
   -5  -11   13      0.47      0.00
   -4  -11   13      0.08      0.00
   -3  -11   13      0.75      0.00
   -2  -11   13     -0.91      0.00
   -1  -11   13     -1.11      0.00
    0  -11   13     -0.02      0.00
    1  -11   13     -0.58      0.00
    2  -11   13     -0.81      0.00
    3  -11   13      1.57      0.00
    4  -11   13      0.28      0.00
    5  -11   13     -0.33      0.00
    6  -11   13     -0.30      0.00
    7  -11   13      0.35      0.00
    8  -11   13     -0.28      0.00
    9  -11   13     -0.17      0.00
   -7  -10   13      1.21      0.00
   -6  -10   13     -0.37      0.00
   -5  -10   13     -0.14      0.00
   -4  -10   13     -1.15      0.00
   -3  -10   13      0.42      0.00
   -2  -10   13     -0.31      0.00
   -1  -10   13     -0.91      0.00
    0  -10   13     -0.15      0.00
    1  -10   13      0.56      0.00
    2  -10   13     -0.19      0.00
    3  -10   13      0.43      0.00
    4  -10   13      0.71      0.00
    5  -10   13     -1.15      0.00
    6  -10   13     -0.04      0.00
    7  -10   13      0.58      0.00
    8  -10   13     -0.82      0.00
    9  -10   13      0.79      0.00
   -8   -9   13      0.01      0.00
   -7   -9   13      1.06      0.00
   -6   -9   13     -0.66      0.00
   -5   -9   13     -0.99      0.00
   -4   -9   13     -1.96      0.00
   -3   -9   13      0.31      0.00
   -2   -9   13     -0.09      0.00
   -1   -9   13     -0.17      0.00
    0   -9   13      0.07      0.00
    1   -9   13      1.55      0.00
    2   -9   13      0.49      0.00
    3   -9   13     -0.24      0.00
    4   -9   13      1.05      0.00
    5   -9   13     -1.14      0.00
    6   -9   13      0.17      0.00
    7   -9   13      1.91      0.00
    8   -9   13     -1.48      0.00
    9   -9   13      1.22      0.00
   -8   -8   13      0.80      0.00
   -7   -8   13      0.65      0.00
   -6   -8   13     -1.38      0.00
   -5   -8   13     -0.94      0.00
   -4   -8   13     -1.70      0.00
   -3   -8   13      0.53      0.00
   -2   -8   13     -0.26      0.00
   -1   -8   13      0.96      0.00
    0   -8   13      0.26      0.00
    1   -8   13      1.33      0.00
    2   -8   13      0.42      0.00
    3   -8   13      0.08      0.00
    4   -8   13      0.77      0.00
    5   -8   13     -0.91      0.00
    6   -8   13     -0.19      0.00
    7   -8   13      3.07      0.00
    8   -8   13     -1.93      0.00
    9   -8   13      0.66      0.00
   -9   -7   13      0.14      0.00
   -8   -7   13      1.03      0.00
   -7   -7   13      0.23      0.00
   -6   -7   13     -2.10      0.00
   -5   -7   13     -0.04      0.00
   -4   -7   13     -0.87      0.00
   -3   -7   13      0.68      0.00
   -2   -7   13     -0.48      0.00
   -1   -7   13      1.68      0.00
    0   -7   13      0.11      0.00
    1   -7   13     -0.23      0.00
    2   -7   13     -0.18      0.00
    3   -7   13      1.20      0.00
    4   -7   13     -0.06      0.00
    5   -7   13     -0.89      0.00
    6   -7   13     -0.99      0.00
    7   -7   13      2.69      0.00
    8   -7   13     -1.84      0.00
    9   -7   13      0.01      0.00
   -9   -6   13      0.63      0.00
   -8   -6   13      0.29      0.00
   -7   -6   13      0.18      0.00
   -6   -6   13     -2.32      0.00
   -5   -6   13      0.48      0.00
   -4   -6   13     -0.55      0.00
   -3   -6   13      0.63      0.00
   -2   -6   13     -0.30      0.00
   -1   -6   13      1.17      0.00
    0   -6   13      0.07      0.00
    1   -6   13     -1.77      0.00
    2   -6   13     -0.29      0.00
    3   -6   13      2.46      0.00
    4   -6   13     -0.58      0.00
    5   -6   13     -0.78      0.00
    6   -6   13     -1.19      0.00
    7   -6   13      1.08      0.00
    8   -6   13     -1.25      0.00
  -10   -5   13      0.53      0.00
   -9   -5   13      0.77      0.00
   -8   -5   13     -0.86      0.00
   -7   -5   13      0.67      0.00
   -6   -5   13     -1.83      0.00
   -5   -5   13     -0.02      0.00
   -4   -5   13     -0.83      0.00
   -3   -5   13      0.70      0.00
   -2   -5   13      0.50      0.00
   -1   -5   13     -0.34      0.00
    0   -5   13      0.61      0.00
    1   -5   13     -1.89      0.00
    2   -5   13      0.39      0.00
    3   -5   13      2.82      0.00
    4   -5   13     -0.37      0.00
    5   -5   13     -0.40      0.00
    6   -5   13     -0.37      0.00
    7   -5   13     -0.25      0.00
    8   -5   13     -0.53      0.00
  -10   -4   13      0.12      0.00
   -9   -4   13      0.47      0.00
   -8   -4   13     -1.45      0.00
   -7   -4   13      1.33      0.00
   -6   -4   13     -0.89      0.00
   -5   -4   13     -0.75      0.00
   -4   -4   13     -0.70      0.00
   -3   -4   13      0.88      0.00
   -2   -4   13      1.38      0.00
   -1   -4   13     -1.58      0.00
    0   -4   13      1.22      0.00
    1   -4   13     -0.95      0.00
    2   -4   13      0.90      0.00
    3   -4   13      1.45      0.00
    4   -4   13     -0.27      0.00
    5   -4   13     -0.35      0.00
    6   -4   13      0.63      0.00
    7   -4   13     -0.63      0.00
    8   -4   13      0.15      0.00
  -10   -3   13     -0.31      0.00
   -9   -3   13      0.22      0.00
   -8   -3   13     -1.06      0.00
   -7   -3   13      1.29      0.00
   -6   -3   13     -0.20      0.00
   -5   -3   13     -0.89      0.00
   -4   -3   13      0.20      0.00
   -3   -3   13      0.60      0.00
   -2   -3   13      1.27      0.00
   -1   -3   13     -1.52      0.00
    0   -3   13      1.04      0.00
    1   -3   13     -0.55      0.00
    2   -3   13      0.52      0.00
    3   -3   13     -0.92      0.00
    4   -3   13     -1.09      0.00
    5   -3   13     -1.36      0.00
    6   -3   13      1.01      0.00
    7   -3   13     -0.63      0.00
  -10   -2   13     -0.39      0.00
   -9   -2   13      0.36      0.00
   -8   -2   13     -0.14      0.00
   -7   -2   13      0.26      0.00
   -6   -2   13     -0.22      0.00
   -5   -2   13     -0.63      0.00
   -4   -2   13      0.89      0.00
   -3   -2   13     -0.35      0.00
   -2   -2   13      0.07      0.00
   -1   -2   13     -0.39      0.00
    0   -2   13      0.11      0.00
    1   -2   13     -1.22      0.00
    2   -2   13     -0.20      0.00
    3   -2   13     -2.36      0.00
    4   -2   13     -1.99      0.00
    5   -2   13     -2.92      0.00
    6   -2   13      0.94      0.00
    7   -2   13     -0.67      0.00
  -10   -1   13     -0.10      0.00
   -9   -1   13      0.58      0.00
   -8   -1   13      0.68      0.00
   -7   -1   13     -0.81      0.00
   -6   -1   13     -0.56      0.00
   -5   -1   13     -0.55      0.00
   -4   -1   13      0.45      0.00
   -3   -1   13     -1.23      0.00
   -2   -1   13     -0.96      0.00
   -1   -1   13      0.75      0.00
    0   -1   13     -0.67      0.00
    1   -1   13     -1.83      0.00
    2   -1   13     -0.28      0.00
    3   -1   13     -1.94      0.00
    4   -1   13     -1.63      0.00
    5   -1   13     -3.51      0.00
    6   -1   13      0.81      0.00
  -10    0   13      0.23      0.00
   -9    0   13      0.46      0.00
   -8    0   13      1.18      0.00
   -7    0   13     -0.73      0.00
   -5    0   13     -0.65      0.00
   -4    0   13     -0.56      0.00
   -3    0   13     -1.12      0.00
   -2    0   13     -0.88      0.00
   -1    0   13      1.10      0.00
    0    0   13     -0.71      0.00
    1    0   13     -1.47      0.00
    2    0   13      0.07      0.00
    3    0   13     -0.72      0.00
    4    0   13     -0.34      0.00
    5    0   13     -2.30      0.00
  -10    1   13      0.25      0.00
   -9    1   13      0.05      0.00
   -8    1   13      1.37      0.00
   -7    1   13      0.18      0.00
   -6    1   13      0.28      0.00
   -5    1   13     -0.63      0.00
   -4    1   13     -1.00      0.00
   -3    1   13     -0.15      0.00
   -2    1   13     -0.32      0.00
   -1    1   13      0.72      0.00
    0    1   13     -0.25      0.00
    1    1   13     -0.47      0.00
    2    1   13     -0.17      0.00
    3    1   13     -0.04      0.00
    4    1   13      0.32      0.00
   -9    2   13     -0.22      0.00
   -8    2   13      1.29      0.00
   -7    2   13      0.44      0.00
   -6    2   13      0.78      0.00
   -5    2   13     -0.49      0.00
   -4    2   13     -0.69      0.00
   -3    2   13      0.75      0.00
   -2    2   13     -0.39      0.00
   -1    2   13      0.34      0.00
    0    2   13      0.19      0.00
    1    2   13      0.54      0.00
    2    2   13     -1.05      0.00
    3    2   13      0.08      0.00
    4    2   13     -0.12      0.00
   -9    3   13     -0.08      0.00
   -8    3   13      0.97      0.00
   -7    3   13     -0.54      0.00
   -6    3   13      0.55      0.00
   -5    3   13     -0.37      0.00
   -4    3   13     -0.19      0.00
   -3    3   13      1.04      0.00
   -2    3   13     -0.96      0.00
   -1    3   13      0.66      0.00
    0    3   13      0.27      0.00
    1    3   13      1.31      0.00
    2    3   13     -1.36      0.00
   -8    4   13      0.52      0.00
   -7    4   13     -1.65      0.00
   -6    4   13      0.11      0.00
   -5    4   13     -0.33      0.00
   -4    4   13      0.16      0.00
   -3    4   13      1.07      0.00
   -2    4   13     -1.11      0.00
   -1    4   13      1.49      0.00
    0    4   13      0.00      0.00
    1    4   13      1.55      0.00
   -7    5   13     -1.69      0.00
   -6    5   13      0.21      0.00
   -5    5   13     -0.32      0.00
   -4    5   13      0.40      0.00
   -3    5   13      1.22      0.00
   -2    5   13     -0.61      0.00
   -1    5   13      1.82      0.00
    1  -16   14      1.06      0.00
    2  -16   14      0.88      0.00
    3  -16   14      0.75      0.00
   -1  -15   14     -1.19      0.00
    0  -15   14      0.56      0.00
    1  -15   14      1.05      0.00
    2  -15   14      1.12      0.00
    3  -15   14      0.65      0.00
    4  -15   14      0.01      0.00
    5  -15   14      0.52      0.00
    6  -15   14      0.21      0.00
   -3  -14   14     -0.02      0.00
   -2  -14   14     -0.21      0.00
   -1  -14   14     -1.03      0.00
    0  -14   14      0.37      0.00
    1  -14   14      0.39      0.00
    2  -14   14      0.75      0.00
    3  -14   14      0.98      0.00
    4  -14   14      0.03      0.00
    5  -14   14      1.11      0.00
    6  -14   14      0.15      0.00
    7  -14   14      0.75      0.00
   -4  -13   14      1.51      0.00
   -3  -13   14      0.64      0.00
   -2  -13   14     -0.64      0.00
   -1  -13   14     -0.81      0.00
    0  -13   14      0.00      0.00
    1  -13   14     -0.56      0.00
    2  -13   14     -0.19      0.00
    3  -13   14      1.64      0.00
    4  -13   14     -0.21      0.00
    5  -13   14      1.04      0.00
    6  -13   14     -0.22      0.00
    7  -13   14      1.25      0.00
   -5  -12   14      0.45      0.00
   -4  -12   14      1.41      0.00
   -3  -12   14      1.12      0.00
   -2  -12   14     -0.46      0.00
   -1  -12   14     -0.89      0.00
    0  -12   14     -0.39      0.00
    1  -12   14     -1.15      0.00
    2  -12   14     -1.05      0.00
    3  -12   14      1.99      0.00
    4  -12   14     -0.20      0.00
    5  -12   14      0.35      0.00
    6  -12   14     -0.70      0.00
    7  -12   14      0.82      0.00
    8  -12   14      0.10      0.00
   -6  -11   14      0.12      0.00
   -5  -11   14      0.42      0.00
   -4  -11   14      0.47      0.00
   -3  -11   14      1.20      0.00
   -2  -11   14      0.20      0.00
   -1  -11   14     -1.08      0.00
    0  -11   14     -0.42      0.00
    1  -11   14     -0.95      0.00
    2  -11   14     -1.11      0.00
    3  -11   14      1.65      0.00
    4  -11   14      0.37      0.00
    5  -11   14     -0.38      0.00
    6  -11   14     -0.61      0.00
    7  -11   14      0.09      0.00
    8  -11   14      0.23      0.00
   -7  -10   14      0.78      0.00
   -6  -10   14      0.43      0.00
   -5  -10   14     -0.32      0.00
   -4  -10   14     -0.64      0.00
   -3  -10   14      1.19      0.00
   -2  -10   14      0.68      0.00
   -1  -10   14     -0.83      0.00
    0  -10   14      0.17      0.00
    1  -10   14     -0.15      0.00
    2  -10   14     -0.54      0.00
    3  -10   14      0.86      0.00
    4  -10   14      1.14      0.00
    5  -10   14     -0.88      0.00
    6  -10   14      0.14      0.00
    7  -10   14      0.31      0.00
    8  -10   14     -0.33      0.00
   -7   -9   14      0.81      0.00
   -6   -9   14      0.37      0.00
   -5   -9   14     -0.68      0.00
   -4   -9   14     -1.04      0.00
   -3   -9   14      1.29      0.00
   -2   -9   14      0.52      0.00
   -1   -9   14      0.16      0.00
    0   -9   14      0.84      0.00
    1   -9   14      0.31      0.00
    2   -9   14     -0.14      0.00
    3   -9   14      0.05      0.00
    4   -9   14      1.25      0.00
    6   -9   14      0.56      0.00
    7   -9   14      1.57      0.00
    8   -9   14     -1.34      0.00
   -8   -8   14      0.82      0.00
   -7   -8   14      0.28      0.00
   -6   -8   14     -0.24      0.00
   -5   -8   14      0.06      0.00
   -4   -8   14     -0.75      0.00
   -3   -8   14      1.27      0.00
   -2   -8   14     -0.15      0.00
   -1   -8   14      1.38      0.00
    0   -8   14      0.78      0.00
    1   -8   14     -0.35      0.00
    2   -8   14     -0.19      0.00
    3   -8   14     -0.26      0.00
    4   -8   14      0.41      0.00
    5   -8   14     -1.33      0.00
    6   -8   14      0.09      0.00
    7   -8   14      2.57      0.00
    8   -8   14     -1.85      0.00
   -8   -7   14      0.91      0.00
   -7   -7   14     -0.16      0.00
   -6   -7   14     -1.13      0.00
   -5   -7   14      1.07      0.00
   -4   -7   14     -0.60      0.00
   -3   -7   14      0.98      0.00
   -2   -7   14     -0.60      0.00
   -1   -7   14      1.93      0.00
    0   -7   14      0.02      0.00
    1   -7   14     -1.59      0.00
    2   -7   14     -0.15      0.00
    3   -7   14      0.29      0.00
    4   -7   14     -0.53      0.00
    5   -7   14     -0.96      0.00
    6   -7   14     -0.50      0.00
    7   -7   14      2.43      0.00
    8   -7   14     -1.31      0.00
   -9   -6   14      0.53      0.00
   -8   -6   14     -0.01      0.00
   -7   -6   14      0.18      0.00
   -6   -6   14     -1.76      0.00
   -5   -6   14      1.16      0.00
   -4   -6   14     -1.03      0.00
   -3   -6   14      0.89      0.00
   -2   -6   14     -0.12      0.00
   -1   -6   14      1.47      0.00
    0   -6   14     -0.49      0.00
    1   -6   14     -1.98      0.00
    2   -6   14      0.39      0.00
    3   -6   14      1.12      0.00
    4   -6   14     -0.52      0.00
    5   -6   14     -0.27      0.00
    6   -6   14     -0.38      0.00
    7   -6   14      1.70      0.00
   -9   -5   14      0.34      0.00
   -8   -5   14     -1.26      0.00
   -7   -5   14      1.22      0.00
   -6   -5   14     -1.83      0.00
   -5   -5   14      0.35      0.00
   -4   -5   14     -1.44      0.00
   -3   -5   14      1.21      0.00
   -2   -5   14      1.03      0.00
   -1   -5   14      0.48      0.00
    0   -5   14     -0.13      0.00
    1   -5   14     -1.07      0.00
    2   -5   14      0.92      0.00
    3   -5   14      1.01      0.00
    4   -5   14      0.20      0.00
    5   -5   14      0.06      0.00
    6   -5   14     -0.05      0.00
    7   -5   14      1.18      0.00
   -9   -4   14      0.15      0.00
   -8   -4   14     -1.85      0.00
   -7   -4   14      1.83      0.00
   -6   -4   14     -1.71      0.00
   -5   -4   14     -0.48      0.00
   -4   -4   14     -1.17      0.00
   -3   -4   14      1.28      0.00
   -2   -4   14      1.56      0.00
   -1   -4   14     -0.30      0.00
    0   -4   14      0.63      0.00
    1   -4   14     -0.05      0.00
    2   -4   14      0.79      0.00
    3   -4   14     -0.23      0.00
    4   -4   14      0.47      0.00
    5   -4   14     -0.48      0.00
    6   -4   14     -0.18      0.00
    7   -4   14      0.80      0.00
   -9   -3   14      0.32      0.00
   -8   -3   14     -1.47      0.00
   -7   -3   14      1.03      0.00
   -6   -3   14     -1.90      0.00
   -5   -3   14     -0.82      0.00
   -4   -3   14     -0.58      0.00
   -3   -3   14      0.40      0.00
   -2   -3   14      0.68      0.00
   -1   -3   14     -0.52      0.00
    0   -3   14      1.02      0.00
    1   -3   14     -0.14      0.00
    2   -3   14      0.14      0.00
    3   -3   14     -1.28      0.00
    4   -3   14      0.01      0.00
    5   -3   14     -1.64      0.00
    6   -3   14     -0.32      0.00
   -9   -2   14      0.54      0.00
   -8   -2   14     -0.61      0.00
   -7   -2   14     -0.72      0.00
   -6   -2   14     -2.17      0.00
   -5   -2   14     -0.72      0.00
   -4   -2   14     -0.37      0.00
   -3   -2   14     -0.80      0.00
   -2   -2   14     -0.69      0.00
   -1   -2   14     -0.26      0.00
    0   -2   14      0.87      0.00
    1   -2   14     -0.99      0.00
    2   -2   14     -0.32      0.00
    3   -2   14     -1.17      0.00
    4   -2   14     -0.28      0.00
    5   -2   14     -2.54      0.00
    6   -2   14      0.24      0.00
   -9   -1   14      0.27      0.00
   -8   -1   14      0.08      0.00
   -7   -1   14     -1.85      0.00
   -5   -1   14     -0.31      0.00
   -4   -1   14     -0.54      0.00
   -3   -1   14     -0.94      0.00
   -2   -1   14     -1.19      0.00
   -1   -1   14      0.21      0.00
    0   -1   14      0.50      0.00
    1   -1   14     -1.45      0.00
    2   -1   14     -0.41      0.00
    3   -1   14     -0.65      0.00
    4   -1   14      0.01      0.00
    5   -1   14     -2.40      0.00
   -9    0   14     -0.42      0.00
   -8    0   14      0.41      0.00
   -7    0   14     -1.64      0.00
   -6    0   14     -0.82      0.00
   -5    0   14      0.22      0.00
   -4    0   14     -0.62      0.00
   -3    0   14      0.26      0.00
   -2    0   14     -0.89      0.00
   -1    0   14      0.46      0.00
    0    0   14      0.29      0.00
    1    0   14     -1.11      0.00
    2    0   14     -0.58      0.00
    3    0   14     -0.76      0.00
    4    0   14      0.17      0.00
   -9    1   14     -0.84      0.00
   -8    1   14      0.56      0.00
   -7    1   14     -0.91      0.00
   -6    1   14     -0.03      0.00
   -5    1   14      0.52      0.00
   -4    1   14     -0.56      0.00
   -3    1   14      1.43      0.00
   -2    1   14     -0.89      0.00
   -1    1   14      0.24      0.00
    0    1   14      0.31      0.00
    1    1   14     -0.24      0.00
    2    1   14     -1.03      0.00
    3    1   14     -1.08      0.00
   -8    2   14      0.70      0.00
   -7    2   14     -0.70      0.00
   -6    2   14     -0.03      0.00
   -5    2   14      0.39      0.00
   -4    2   14     -0.58      0.00
   -3    2   14      1.35      0.00
   -2    2   14     -1.43      0.00
   -1    2   14     -0.08      0.00
    0    2   14      0.34      0.00
    1    2   14      0.75      0.00
    2    2   14     -1.16      0.00
   -7    3   14     -0.95      0.00
   -6    3   14     -0.33      0.00
   -5    3   14     -0.01      0.00
   -4    3   14     -0.57      0.00
   -3    3   14      0.45      0.00
   -2    3   14     -1.63      0.00
   -1    3   14      0.13      0.00
    0    3   14      0.08      0.00
   -6    4   14     -0.18      0.00
   -5    4   14     -0.46      0.00
   -4    4   14     -0.37      0.00
   -3    4   14     -0.04      0.00
   -2    4   14     -1.12      0.00
    0  -15   15      0.11      0.00
    1  -15   15      0.75      0.00
    2  -15   15      0.57      0.00
    3  -15   15      0.12      0.00
    4  -15   15      0.13      0.00
   -2  -14   15     -0.12      0.00
   -1  -14   15     -0.72      0.00
    0  -14   15     -0.15      0.00
    1  -14   15      0.33      0.00
    2  -14   15      0.30      0.00
    3  -14   15      0.41      0.00
    4  -14   15     -0.20      0.00
    5  -14   15     -0.16      0.00
    6  -14   15      0.30      0.00
   -3  -13   15      0.35      0.00
   -2  -13   15     -0.09      0.00
   -1  -13   15     -0.42      0.00
    0  -13   15     -0.64      0.00
    1  -13   15     -0.40      0.00
    2  -13   15     -0.45      0.00
    3  -13   15      0.93      0.00
    4  -13   15     -0.49      0.00
    5  -13   15     -0.04      0.00
    6  -13   15     -0.39      0.00
   -4  -12   15      0.75      0.00
   -3  -12   15      0.57      0.00
   -2  -12   15      0.49      0.00
   -1  -12   15     -0.35      0.00
    0  -12   15     -0.88      0.00
    1  -12   15     -0.89      0.00
    2  -12   15     -1.03      0.00
    3  -12   15      1.48      0.00
    4  -12   15     -0.27      0.00
    5  -12   15      0.42      0.00
    6  -12   15     -0.53      0.00
    7  -12   15      0.20      0.00
   -5  -11   15     -0.38      0.00
   -4  -11   15     -0.09      0.00
   -3  -11   15      0.65      0.00
   -2  -11   15      1.09      0.00
   -1  -11   15     -0.43      0.00
    0  -11   15     -0.41      0.00
    1  -11   15     -0.78      0.00
    2  -11   15     -1.03      0.00
    3  -11   15      1.83      0.00
    4  -11   15      0.49      0.00
    5  -11   15      0.75      0.00
    6  -11   15      0.52      0.00
    7  -11   15      0.02      0.00
   -6  -10   15      0.53      0.00
   -5  -10   15     -0.94      0.00
   -4  -10   15     -0.55      0.00
   -3  -10   15      0.76      0.00
   -2  -10   15      1.03      0.00
   -1  -10   15     -0.34      0.00
    0  -10   15      0.57      0.00
    1  -10   15     -0.41      0.00
    2  -10   15     -0.78      0.00
    3  -10   15      1.56      0.00
    4  -10   15      1.17      0.00
    5  -10   15      0.35      0.00
    6  -10   15      1.82      0.00
    7  -10   15      0.63      0.00
   -7   -9   15     -0.10      0.00
   -6   -9   15      0.68      0.00
   -5   -9   15     -0.51      0.00
   -4   -9   15     -0.30      0.00
   -3   -9   15      0.87      0.00
   -2   -9   15      0.20      0.00
   -1   -9   15      0.09      0.00
    0   -9   15      1.25      0.00
    1   -9   15     -0.52      0.00
    2   -9   15     -0.51      0.00
    3   -9   15      0.62      0.00
    4   -9   15      1.06      0.00
    5   -9   15     -0.53      0.00
    6   -9   15      1.89      0.00
    7   -9   15      1.58      0.00
   -7   -8   15     -0.68      0.00
   -6   -8   15      0.55      0.00
   -5   -8   15      0.82      0.00
   -4   -8   15     -0.03      0.00
   -3   -8   15      0.79      0.00
   -2   -8   15     -0.68      0.00
   -1   -8   15      0.69      0.00
    0   -8   15      1.03      0.00
    1   -8   15     -1.21      0.00
    2   -8   15      0.04      0.00
    3   -8   15     -0.27      0.00
    6   -8   15      0.77      0.00
    7   -8   15      1.88      0.00
   -8   -7   15      0.91      0.00
   -7   -7   15     -0.87      0.00
   -6   -7   15      0.13      0.00
   -5   -7   15      1.81      0.00
   -4   -7   15     -0.54      0.00
   -3   -7   15      0.69      0.00
   -2   -7   15     -0.75      0.00
    0   -7   15      0.19      0.00
    1   -7   15     -1.57      0.00
    2   -7   15      0.98      0.00
    3   -7   15     -0.59      0.00
    4   -7   15     -0.27      0.00
    5   -7   15     -0.84      0.00
    6   -7   15     -0.26      0.00
    7   -7   15      1.35      0.00
   -8   -6   15      0.00      0.00
   -7   -6   15     -0.05      0.00
   -6   -6   15     -0.36      0.00
   -5   -6   15      1.69      0.00
   -4   -6   15     -1.50      0.00
   -3   -6   15      1.00      0.00
   -1   -6   15      1.08      0.00
    0   -6   15     -0.63      0.00
    1   -6   15     -1.01      0.00
    2   -6   15      1.62      0.00
    3   -6   15     -0.92      0.00
    4   -6   15      0.04      0.00
    5   -6   15     -0.53      0.00
    6   -6   15     -0.70      0.00
   -8   -5   15     -1.03      0.00
   -7   -5   15      1.29      0.00
   -6   -5   15     -0.82      0.00
   -5   -5   15      0.84      0.00
   -4   -5   15     -1.95      0.00
   -3   -5   15      1.47      0.00
   -2   -5   15      0.24      0.00
   -1   -5   15      0.40      0.00
    0   -5   15     -1.15      0.00
    1   -5   15     -0.29      0.00
    2   -5   15      1.18      0.00
    3   -5   15     -1.89      0.00
    4   -5   15      0.66      0.00
    5   -5   15     -0.58      0.00
    6   -5   15     -1.05      0.00
   -8   -4   15     -1.33      0.00
   -7   -4   15      1.91      0.00
   -6   -4   15     -1.32      0.00
   -5   -4   15      0.08      0.00
   -4   -4   15     -1.58      0.00
   -3   -4   15      1.35      0.00
   -2   -4   15     -0.57      0.00
   -1   -4   15     -0.70      0.00
    0   -4   15     -1.36      0.00
    1   -4   15     -0.53      0.00
    2   -4   15     -0.21      0.00
    3   -4   15     -2.79      0.00
    4   -4   15      0.76      0.00
    5   -4   15     -0.92      0.00
    6   -4   15     -1.33      0.00
   -8   -3   15     -0.83      0.00
   -7   -3   15      1.20      0.00
   -6   -3   15     -1.71      0.00
   -5   -3   15     -0.15      0.00
   -4   -3   15     -0.81      0.00
   -3   -3   15      0.63      0.00
   -2   -3   15     -1.64      0.00
   -1   -3   15     -1.47      0.00
    0   -3   15     -1.22      0.00
    1   -3   15     -1.47      0.00
    2   -3   15     -1.53      0.00
    3   -3   15     -2.59      0.00
    4   -3   15      0.37      0.00
    5   -3   15     -1.26      0.00
   -8   -2   15     -0.14      0.00
   -7   -2   15     -0.11      0.00
   -6   -2   15     -1.60      0.00
   -5   -2   15      0.12      0.00
   -4   -2   15     -0.07      0.00
   -3   -2   15      0.36      0.00
   -2   -2   15     -1.53      0.00
   -1   -2   15     -1.16      0.00
    0   -2   15     -0.73      0.00
    1   -2   15     -1.75      0.00
    2   -2   15     -1.92      0.00
    3   -2   15     -1.68      0.00
    4   -2   15      0.01      0.00
   -8   -1   15      0.27      0.00
   -7   -1   15     -0.89      0.00
   -6   -1   15     -1.01      0.00
   -5   -1   15      0.57      0.00
   -4   -1   15      0.48      0.00
   -3   -1   15      1.24      0.00
   -2   -1   15     -0.41      0.00
   -1   -1   15     -0.02      0.00
    0   -1   15     -0.13      0.00
    1   -1   15     -0.86      0.00
    2   -1   15     -1.51      0.00
    3   -1   15     -1.27      0.00
   -8    0   15      0.43      0.00
   -7    0   15     -0.91      0.00
   -6    0   15     -0.57      0.00
   -5    0   15      0.84      0.00
   -4    0   15      0.63      0.00
   -3    0   15      2.45      0.00
   -2    0   15      0.19      0.00
   -1    0   15      0.75      0.00
    0    0   15      0.33      0.00
    1    0   15      0.41      0.00
    2    0   15     -0.96      0.00
    3    0   15     -1.42      0.00
   -7    1   15     -0.64      0.00
   -6    1   15     -0.69      0.00
   -5    1   15      0.88      0.00
   -4    1   15      0.35      0.00
   -3    1   15      2.61      0.00
   -2    1   15     -0.27      0.00
   -1    1   15      0.49      0.00
    0    1   15      0.59      0.00
    1    1   15      1.20      0.00
   -6    2   15     -0.92      0.00
   -5    2   15      0.86      0.00
   -4    2   15      0.06      0.00
   -3    2   15      1.52      0.00
   -2    2   15     -0.77      0.00
   -1    2   15     -0.14      0.00
    0    2   15      0.59      0.00
   -4    3   15      0.09      0.00
   -3    3   15      0.30      0.00
   -1  -14   16     -0.74      0.00
    0  -14   16     -0.79      0.00
    1  -14   16      0.06      0.00
    2  -14   16      0.10      0.00
    3  -14   16      0.01      0.00
    4  -14   16      0.25      0.00
   -2  -13   16      0.00      0.00
   -1  -13   16     -0.36      0.00
    0  -13   16     -1.07      0.00
    1  -13   16     -0.26      0.00
    2  -13   16     -0.06      0.00
    3  -13   16      0.19      0.00
    4  -13   16     -0.21      0.00
    5  -13   16      0.21      0.00
   -4  -12   16      0.19      0.00
   -3  -12   16     -0.19      0.00
   -2  -12   16      0.73      0.00
   -1  -12   16     -0.07      0.00
    0  -12   16     -0.98      0.00
    1  -12   16     -0.44      0.00
    2  -12   16     -0.19      0.00
    3  -12   16      0.78      0.00
    4  -12   16     -0.60      0.00
    5  -12   16      0.83      0.00
   -5  -11   16     -0.51      0.00
   -4  -11   16      0.05      0.00
   -3  -11   16      0.09      0.00
   -2  -11   16      1.27      0.00
   -1  -11   16      0.00      0.00
    0  -11   16     -0.36      0.00
    1  -11   16     -0.50      0.00
    2  -11   16     -0.54      0.00
    3  -11   16      1.36      0.00
    4  -11   16     -0.69      0.00
    5  -11   16      0.59      0.00
    6  -11   16      1.34      0.00
   -5  -10   16     -0.57      0.00
   -4  -10   16      0.69      0.00
   -3  -10   16      0.62      0.00
   -2  -10   16      1.21      0.00
   -1  -10   16      0.00      0.00
    0  -10   16      0.58      0.00
    1  -10   16     -0.59      0.00
    2  -10   16     -0.97      0.00
    3  -10   16      1.29      0.00
    4  -10   16     -0.43      0.00
    5  -10   16     -0.50      0.00
    6  -10   16      1.96      0.00
   -6   -9   16      0.58      0.00
   -5   -9   16      0.34      0.00
   -4   -9   16      1.47      0.00
   -3   -9   16      0.90      0.00
   -2   -9   16      0.62      0.00
   -1   -9   16      0.10      0.00
    1   -9   16     -0.74      0.00
    2   -9   16     -0.67      0.00
    3   -9   16      0.66      0.00
    4   -9   16      0.05      0.00
    5   -9   16     -1.23      0.00
    6   -9   16      1.42      0.00
   -6   -8   16      1.12      0.00
   -5   -8   16      1.57      0.00
   -4   -8   16      1.20      0.00
   -3   -8   16      0.65      0.00
    0   -8   16      1.51      0.00
    1   -8   16     -0.60      0.00
    2   -8   16      0.79      0.00
    3   -8   16      0.10      0.00
    4   -8   16      0.59      0.00
    5   -8   16     -0.83      0.00
    6   -8   16      0.59      0.00
   -7   -7   16     -1.23      0.00
   -6   -7   16      1.36      0.00
   -5   -7   16      2.20      0.00
   -4   -7   16     -0.17      0.00
   -2   -7   16      0.00      0.00
   -1   -7   16      0.37      0.00
    0   -7   16      0.83      0.00
    1   -7   16      0.10      0.00
    2   -7   16      2.49      0.00
    3   -7   16     -0.45      0.00
    4   -7   16      1.15      0.00
    5   -7   16      0.00      0.00
   -7   -6   16     -0.34      0.00
   -6   -6   16      1.07      0.00
   -5   -6   16      1.96      0.00
   -4   -6   16     -1.40      0.00
   -3   -6   16      0.85      0.00
   -2   -6   16     -0.08      0.00
   -1   -6   16      0.17      0.00
    0   -6   16     -0.56      0.00
    1   -6   16      0.72      0.00
    2   -6   16      2.94      0.00
    3   -6   16     -1.60      0.00
    4   -6   16      1.57      0.00
   -7   -5   16      0.87      0.00
   -6   -5   16      0.31      0.00
   -5   -5   16      1.22      0.00
   -4   -5   16     -1.57      0.00
   -3   -5   16      1.70      0.00
   -2   -5   16     -0.76      0.00
   -1   -5   16     -0.43      0.00
    0   -5   16     -2.03      0.00
    1   -5   16      0.22      0.00
    2   -5   16      1.69      0.00
    3   -5   16     -2.93      0.00
    4   -5   16      1.57      0.00
   -6   -4   16     -0.46      0.00
   -5   -4   16      0.54      0.00
   -4   -4   16     -0.86      0.00
   -3   -4   16      2.16      0.00
   -2   -4   16     -1.67      0.00
   -1   -4   16     -1.14      0.00
    0   -4   16     -2.77      0.00
    1   -4   16     -1.23      0.00
    2   -4   16     -0.28      0.00
    3   -4   16     -3.16      0.00
    4   -4   16      1.11      0.00
   -7   -3   16      1.14      0.00
   -6   -3   16     -0.69      0.00
   -5   -3   16      0.26      0.00
   -4   -3   16      0.01      0.00
   -3   -3   16      1.99      0.00
   -2   -3   16     -1.70      0.00
   -1   -3   16     -1.32      0.00
    0   -3   16     -2.60      0.00
    1   -3   16     -2.14      0.00
    2   -3   16     -1.65      0.00
    3   -3   16     -2.06      0.00
   -7   -2   16      0.59      0.00
   -6   -2   16     -0.36      0.00
   -5   -2   16      0.27      0.00
   -4   -2   16      0.57      0.00
   -3   -2   16      1.66      0.00
   -2   -2   16     -0.82      0.00
   -1   -2   16     -0.78      0.00
    0   -2   16     -2.12      0.00
    1   -2   16     -1.51      0.00
    2   -2   16     -1.88      0.00
   -7   -1   16      0.24      0.00
   -6   -1   16     -0.14      0.00
   -5   -1   16      0.20      0.00
   -4   -1   16      0.62      0.00
   -3   -1   16      1.54      0.00
   -2   -1   16     -0.29      0.00
   -1   -1   16     -0.15      0.00
    0   -1   16     -1.82      0.00
    1   -1   16     -0.08      0.00
   -6    0   16     -0.58      0.00
   -5    0   16     -0.02      0.00
   -4    0   16      0.21      0.00
   -3    0   16      1.38      0.00
   -2    0   16     -0.72      0.00
   -1    0   16     -0.19      0.00
    0    0   16     -1.54      0.00
   -5    1   16     -0.06      0.00
   -4    1   16     -0.20      0.00
   -3    1   16      0.88      0.00
   -2    1   16     -1.17      0.00
    0  -13   17     -1.05      0.00
    1  -13   17     -0.06      0.00
    2  -13   17      0.90      0.00
    3  -13   17     -0.36      0.00
   -2  -12   17     -0.01      0.00
   -1  -12   17     -0.30      0.00
    0  -12   17     -1.14      0.00
    1  -12   17     -0.39      0.00
    2  -12   17      1.07      0.00
    3  -12   17      0.38      0.00
    4  -12   17     -0.89      0.00
   -3  -11   17     -0.10      0.00
   -2  -11   17      0.70      0.00
   -1  -11   17      0.03      0.00
    0  -11   17     -0.57      0.00
    1  -11   17     -0.59      0.00
    2  -11   17      0.32      0.00
    3  -11   17      1.06      0.00
    4  -11   17     -1.24      0.00
   -4  -10   17      1.53      0.00
    0  -10   17      0.40      0.00
    1  -10   17     -0.63      0.00
    2  -10   17     -0.68      0.00
    3  -10   17      1.13      0.00
    4  -10   17     -0.72      0.00
   -5   -9   17      0.53      0.00
   -4   -9   17      1.93      0.00
   -2   -9   17      0.52      0.00
   -1   -9   17     -0.16      0.00
    0   -9   17      1.07      0.00
    1   -9   17     -0.52      0.00
    2   -9   17     -0.71      0.00
    3   -9   17      0.75      0.00
    4   -9   17      0.31      0.00
   -5   -8   17      1.35      0.00
   -4   -8   17      1.15      0.00
   -3   -8   17     -0.68      0.00
   -2   -8   17      0.01      0.00
   -1   -8   17     -0.92      0.00
    0   -8   17      0.85      0.00
    1   -8   17     -0.07      0.00
    2   -8   17      0.46      0.00
    3   -8   17      0.17      0.00
    4   -8   17      1.04      0.00
   -6   -7   17      1.87      0.00
   -5   -7   17      1.89      0.00
   -4   -7   17     -0.08      0.00
   -3   -7   17     -0.74      0.00
   -2   -7   17     -0.19      0.00
   -1   -7   17     -1.59      0.00
    0   -7   17     -0.30      0.00
    1   -7   17      0.57      0.00
    2   -7   17      1.81      0.00
    3   -7   17     -0.74      0.00
    4   -7   17      1.20      0.00
   -6   -6   17      1.47      0.00
   -5   -6   17      1.79      0.00
   -4   -6   17     -0.74      0.00
   -3   -6   17      0.23      0.00
   -2   -6   17     -0.44      0.00
   -1   -6   17     -1.73      0.00
    0   -6   17     -1.68      0.00
    1   -6   17      0.70      0.00
    2   -6   17      2.32      0.00
    3   -6   17     -1.78      0.00
    4   -6   17      1.07      0.00
   -6   -5   17      0.62      0.00
   -5   -5   17      1.14      0.00
   -4   -5   17     -0.65      0.00
   -3   -5   17      1.46      0.00
   -2   -5   17     -0.94      0.00
   -1   -5   17     -1.37      0.00
    0   -5   17     -2.36      0.00
    1   -5   17     -0.14      0.00
    2   -5   17      1.81      0.00
    3   -5   17     -2.02      0.00
   -6   -4   17      0.11      0.00
   -5   -4   17      0.56      0.00
   -4   -4   17     -0.16      0.00
   -3   -4   17      2.08      0.00
   -2   -4   17     -1.08      0.00
   -1   -4   17     -0.72      0.00
    0   -4   17     -2.07      0.00
    1   -4   17     -1.21      0.00
    2   -4   17      0.77      0.00
   -6   -3   17      0.29      0.00
   -5   -3   17      0.50      0.00
   -4   -3   17      0.46      0.00
   -3   -3   17      1.98      0.00
   -2   -3   17     -0.44      0.00
   -1   -3   17      0.03      0.00
    0   -3   17     -1.54      0.00
    1   -3   17     -1.34      0.00
   -5   -2   17      0.70      0.00
   -4   -2   17      0.98      0.00
   -3   -2   17      1.61      0.00
   -2   -2   17      0.26      0.00
   -1   -2   17      0.61      0.00
    0   -2   17     -1.49      0.00
   -4   -1   17      1.09      0.00
   -3   -1   17      1.26      0.00
   -2   -1   17      0.11      0.00
   -1  -11   18      0.56      0.00
    0  -11   18     -0.15      0.00
    1  -11   18     -0.52      0.00
   -2  -10   18      0.12      0.00
   -1  -10   18      0.54      0.00
    0  -10   18      0.78      0.00
    1  -10   18      0.01      0.00
    2  -10   18     -0.13      0.00
   -3   -9   18     -0.93      0.00
   -2   -9   18     -0.11      0.00
   -1   -9   18     -0.09      0.00
    0   -9   18      1.17      0.00
    1   -9   18      0.58      0.00
    2   -9   18     -0.31      0.00
   -4   -8   18      0.63      0.00
   -3   -8   18     -1.31      0.00
   -2   -8   18      0.10      0.00
   -1   -8   18     -1.00      0.00
    0   -8   18      0.65      0.00
    1   -8   18      1.08      0.00
    2   -8   18      0.30      0.00
   -4   -7   18     -0.08      0.00
   -3   -7   18     -1.02      0.00
   -2   -7   18      0.41      0.00
   -1   -7   18     -1.70      0.00
    0   -7   18     -0.56      0.00
    1   -7   18      1.21      0.00
    2   -7   18      1.08      0.00
   -4   -6   18     -0.51      0.00
   -3   -6   18     -0.39      0.00
   -2   -6   18      0.05      0.00
   -1   -6   18     -1.94      0.00
    0   -6   18     -1.62      0.00
    1   -6   18      0.49      0.00
   -4   -5   18     -0.53      0.00
   -3   -5   18      0.10      0.00
   -2   -5   18     -0.75      0.00
   -1   -5   18     -1.70      0.00
    0   -5   18     -1.81      0.00
   -3   -4   18      0.37      0.00
   -2   -4   18     -0.96      0.00
   -1   -4   18     -1.05      0.00
    3  -16    1      0.50      0.00
    7  -16    1      0.43      0.00
   13  -11    1      0.10      0.00
  -11   -5    1     -0.47      0.00
    0   -2    1      6.44      0.00
  -13   10    1     -3.98      0.00
  -12   12    1      0.68      0.00
    4   12    1     -0.67      0.00
  -10   14    1      0.48      0.00
    8  -16    2     -0.36      0.00
   -1  -15    2     -0.49      0.00
   10  -15    2      0.73      0.00
   -3  -14    2      0.38      0.00
   12  -13    2     -0.20      0.00
   13  -11    2      0.28      0.00
  -13   -1    2     -0.96      0.00
   13   -1    2     -0.85      0.00
    1    1    2     -3.98      0.00
  -13   10    2     -3.96      0.00
   -9   14    2     -1.04      0.00
   12  -13    3      0.24      0.00
   -6  -12    3      0.09      0.00
   13  -11    3     -0.14      0.00
   -8  -10    3      0.57      0.00
  -12   -4    3      0.85      0.00
   13   -2    3      0.46      0.00
    9    6    3     -0.43      0.00
  -12   11    3      1.19      0.00
    4   11    3      0.13      0.00
  -10   13    3      0.43      0.00
    4  -17    4      0.79      0.00
    5  -17    4     -0.06      0.00
    6  -17    4     -0.54      0.00
    0  -16    4      0.16      0.00
    9  -16    4      0.16      0.00
   -4  -14    4      0.13      0.00
   12  -13    4      0.11      0.00
   13  -11    4     -0.80      0.00
   13   -3    4      0.71      0.00
   12    0    4     -0.47      0.00
   11    2    4      0.59      0.00
    3   11    4     -0.12      0.00
    1   12    4      0.12      0.00
   -1   13    4      0.35      0.00
    2  -17    5      0.17      0.00
    7  -17    5     -0.41      0.00
    0  -16    5     -0.48      0.00
   12  -13    5     -0.07      0.00
   13  -10    5     -0.37      0.00
  -10   -8    5     -0.57      0.00
   13   -5    5     -0.58      0.00
   12   -1    5     -0.02      0.00
   10    3    5      0.16      0.00
    7    7    5      0.32      0.00
    6    8    5     -0.75      0.00
    2   11    5      1.11      0.00
    0   12    5      0.11      0.00
   -6   13    5      0.33      0.00
   -4   13    5      1.42      0.00
    7  -17    6     -1.48      0.00
   -3  -15    6      0.03      0.00
   13   -9    6     -0.03      0.00
  -10   -8    6     -0.24      0.00
   13   -8    6      0.17      0.00
   13   -7    6      0.14      0.00
    3   -6    6     -0.09      0.00
    0   -5    6     -0.44      0.00
    4   -3    6      0.72      0.00
    3   -2    6     -0.80      0.00
    8    5    6      0.07      0.00
    4    9    6      0.99      0.00
  -11   10    6     -1.03      0.00
  -10   11    6     -0.19      0.00
   -8   12    6     -0.36      0.00
   -2   12    6      0.96      0.00
    1  -17    7      0.14      0.00
   11  -14    7      0.01      0.00
   -7  -12    7     -0.47      0.00
   12  -12    7     -0.53      0.00
  -13   -1    7     -0.42      0.00
  -13    5    7      0.13      0.00
  -10   10    7      0.17      0.00
   -1   11    7      0.55      0.00
    9  -16    8     -0.57      0.00
   10  -15    8      0.05      0.00
   -6  -13    8      0.01      0.00
    2  -13    8     -1.55      0.00
   -7  -12    8     -0.21      0.00
   12  -11    8     -0.54      0.00
  -12   -4    8     -0.90      0.00
   11   -2    8     -0.39      0.00
  -13    0    8     -0.14      0.00
   10    0    8     -0.32      0.00
  -13    1    8      0.11      0.00
  -13    2    8      0.17      0.00
  -13    3    8      0.30      0.00
   -8   10    8     -0.04      0.00
    7  -17    9     -0.41      0.00
   -6  -13    9     -0.19      0.00
   11  -13    9      0.84      0.00
   -7  -12    9     -0.02      0.00
  -10   -8    9     -0.63      0.00
  -11   -6    9      0.33      0.00
    0   -2    9     -1.39      0.00
  -11    7    9      0.75      0.00
   -9    9    9     -0.58      0.00
    0    9    9     -0.67      0.00
   -6   10    9      0.27      0.00
   -5   10    9     -0.25      0.00
   -4   10    9     -0.21      0.00
   -6  -13   10     -0.09      0.00
   -7  -12   10      0.89      0.00
   11  -12   10      1.48      0.00
   11   -6   10      0.22      0.00
    8    1   10     -0.37      0.00
   -5    3   10      1.24      0.00
  -10    7   10     -0.12      0.00
    2    7   10     -0.42      0.00
   -9    8   10     -0.13      0.00
    0    8   10      0.60      0.00
   -6    9   10     -0.27      0.00
   -3    9   10      0.28      0.00
    1  -17   11     -0.57      0.00
    6  -17   11     -0.34      0.00
    9  -15   11      0.73      0.00
   10  -13   11      0.27      0.00
   -9   -9   11     -0.98      0.00
  -11   -5   11      0.30      0.00
    9   -2   11      0.63      0.00
   -6    1   11     -0.72      0.00
  -11    4   11      0.59      0.00
    2    6   11     -1.23      0.00
   -6    8   11     -0.41      0.00
   -3    8   11     -0.31      0.00
    2  -17   12     -0.66      0.00
    3  -17   12     -0.08      0.00
    4  -17   12     -0.04      0.00
    7  -16   12      0.98      0.00
   -3  -15   12     -0.38      0.00
    9  -14   12      0.91      0.00
   10  -11   12      0.11      0.00
   10   -7   12     -0.45      0.00
   -6    0   12     -0.52      0.00
    7    0   12      0.71      0.00
  -11    2   12     -0.47      0.00
    2    5   12     -1.68      0.00
    0    6   12     -0.50      0.00
   -6    7   12      0.09      0.00
   -5    7   12     -0.22      0.00
   -4    7   12     -0.45      0.00
   -3    7   12     -0.04      0.00
    6  -16   13     -0.19      0.00
   -4  -14   13     -0.15      0.00
   -7  -11   13      1.03      0.00
   -9   -8   13     -0.19      0.00
    9   -6   13      0.24      0.00
   -6    0   13     -0.42      0.00
    6    0   13      0.52      0.00
    5    1   13     -0.27      0.00
  -10    2   13     -0.04      0.00
    3    3   13      0.19      0.00
   -9    4   13      0.32      0.00
   -4    6   13      0.47      0.00
    4  -16   14     -0.34      0.00
   -2  -15   14      0.28      0.00
    8  -13   14     -0.26      0.00
   -8   -9   14      0.06      0.00
    5   -9   14     -1.22      0.00
   -9   -7   14      0.32      0.00
    8   -6   14     -0.31      0.00
  -10   -3   14      0.03      0.00
  -10   -2   14      0.13      0.00
  -10   -1   14      0.02      0.00
   -6   -1   14     -1.82      0.00
   -9    2   14     -0.60      0.00
   -8    3   14      0.76      0.00
    1    3   14      1.33      0.00
   -7    4   14     -1.05      0.00
   -1    4   14      0.74      0.00
   -1  -15   15     -1.00      0.00
    5  -15   15     -0.12      0.00
   -4  -13   15      1.12      0.00
    7  -13   15      0.46      0.00
   -5  -12   15      0.10      0.00
   -6  -11   15      0.26      0.00
    4   -8   15      0.27      0.00
    5   -8   15     -1.02      0.00
   -1   -7   15      1.12      0.00
   -2   -6   15     -0.07      0.00
    7   -6   15      0.74      0.00
   -9   -4   15     -0.01      0.00
   -9   -3   15      0.43      0.00
   -9   -2   15      0.56      0.00
    5   -2   15     -1.43      0.00
   -9   -1   15      0.13      0.00
    4   -1   15     -0.14      0.00
   -8    1   15      0.57      0.00
    2    1   15     -0.65      0.00
   -7    2   15     -0.38      0.00
   -5    3   15      0.75      0.00
   -2    3   15     -0.54      0.00
   -3  -13   16     -0.23      0.00
    6  -12   16      0.21      0.00
   -6  -10   16      0.18      0.00
    0   -9   16      1.35      0.00
   -7   -8   16     -1.20      0.00
   -2   -8   16      0.09      0.00
   -1   -8   16      0.28      0.00
   -3   -7   16      0.41      0.00
    6   -7   16      0.34      0.00
    5   -6   16      0.33      0.00
   -8   -5   16     -0.31      0.00
    5   -5   16      0.12      0.00
   -8   -4   16     -0.33      0.00
   -7   -4   16      1.44      0.00
   -8   -3   16     -0.13      0.00
    4   -3   16      0.54      0.00
    3   -2   16     -1.00      0.00
    2   -1   16     -1.39      0.00
   -7    0   16      0.04      0.00
    1    0   16      0.84      0.00
   -1    1   16     -0.70      0.00
   -1  -13   17     -0.48      0.00
   -3  -12   17     -0.68      0.00
   -4  -11   17      0.50      0.00
   -3  -10   17      0.36      0.00
   -2  -10   17      0.93      0.00
   -1  -10   17      0.19      0.00
    5  -10   17     -1.35      0.00
   -3   -9   17      0.03      0.00
    5   -9   17     -1.09      0.00
   -6   -8   17      1.42      0.00
    5   -8   17     -0.25      0.00
    3   -4   17     -1.03      0.00
    2   -3   17     -0.17      0.00
   -6   -2   17      0.63      0.00
    1   -2   17     -0.38      0.00
   -5   -1   17      0.66      0.00
   -1   -1   17      0.66      0.00
    0  -12   18     -0.95      0.00
    1  -12   18     -0.76      0.00
   -2  -11   18      0.21      0.00
    2  -11   18      0.75      0.00
   -3  -10   18     -0.19      0.00
    3  -10   18      0.78      0.00
    3   -9   18      0.66      0.00
    3   -8   18      0.37      0.00
    2   -6   18      1.40      0.00
    1   -5   18     -0.87      0.00
   -4   -4   18     -0.16      0.00
    0   -4   18     -1.25      0.00
   -2   -3   18     -0.37      0.00
    0    0    0      0.00      0.00
# SQUEEZE RESULTS (Version = 201115)
# Note: Data are Listed for all Voids in the P1 Unit Cell
# i.e. Centre of Gravity, Solvent Accessible Volume,
# Recovered number of Electrons in the Void and
# Details about the Squeezed Material
loop_
  _platon_squeeze_void_nr
  _platon_squeeze_void_average_x
  _platon_squeeze_void_average_y
  _platon_squeeze_void_average_z
  _platon_squeeze_void_volume
  _platon_squeeze_void_count_electrons
  _platon_squeeze_void_content
   1 -0.018  0.000  0.000       532       -39 ' '
   2  0.041 -0.022  0.434        18        -2 ' '
   3  0.032  0.132  0.683         8        -1 ' '
   4  0.953  0.017  0.562        16        -2 ' '
   5  0.960  0.857  0.306         6        -1 ' '
# Missing Reflections Below sin(th)/lambda = 0.25
loop_
  _platon_missing_refln_index_h
  _platon_missing_refln_index_k
  _platon_missing_refln_index_l
  _platon_missing_refln_theta
    0   -2    1     5.879
    1    1    2    10.090
    3   -6    6    21.398
    0   -5    6    18.036
    3   -2    6    20.989
_platon_squeeze_void_probe_radius                  1.20
_platon_squeeze_details
)
TITL shelx     P -1         R = 0.07
CELL   12.5793   15.7491   16.7679    116.32     93.69    106.97
SPGR P-1
# Solvent Accessible Volume =       578
# Electrons Found in S.A.V. =         0
# Note: Atoms in Void as Cxxx and Qxxx all others
Q101 0.451 0.858 0.326 !       2.28 eA-3
Q102 0.483 0.760 0.391 !       2.27 eA-3
Q103 0.375 0.756 0.175 !       2.09 eA-3
Q104 0.253 0.532 0.319 !       2.02 eA-3
Q105 0.190 0.735 0.314 !       1.98 eA-3
Q106 0.527 0.640 0.330 !       1.94 eA-3
Q107 0.232 0.616 0.248 !       1.91 eA-3
Q108 0.174 0.532 0.107 !       1.87 eA-3
Q109 0.456 0.572 0.183 !       1.75 eA-3
Q110 0.781 0.476 0.375 !       1.66 eA-3
Q111 0.252 0.834 0.468 !       1.65 eA-3
Q112 0.458 0.155 0.466 !       1.61 eA-3
Q113 0.566 0.619 0.254 !       1.61 eA-3
Q114 0.326 0.634 0.468 !       1.57 eA-3
Q115 0.380 0.580 0.233 !       1.51 eA-3
Q116 0.278 0.579 0.152 !       1.41 eA-3
Q117 0.347 0.829 0.313 !       1.41 eA-3
Q118 0.359 0.612 0.341 !       1.38 eA-3
Q119 0.427 0.575 0.297 !       1.36 eA-3
Q120 0.406 0.585 0.064 !       1.34 eA-3
Q121 0.137 0.545 0.182 !       1.31 eA-3
Q122 0.480 0.811 0.243 !       1.19 eA-3
Q123 0.701 0.835 0.349 !       1.18 eA-3
Q124 0.294 0.766 0.342 !       1.18 eA-3
Q125 0.562 0.225 0.495 !       1.18 eA-3
Q126 0.260 0.632 0.211 !       1.16 eA-3
Q127 0.227 0.551 0.409 !       1.15 eA-3
Q128 0.438 0.017 0.452 !       1.14 eA-3
Q129 0.131 0.767 0.167 !       1.14 eA-3
Q130 0.299 0.780 0.214 !       1.08 eA-3
Q131 0.078 0.247 0.036 !       1.08 eA-3
Q132 0.566 0.872 0.452 !       1.07 eA-3
Q133 0.107 0.528 0.111 !       1.07 eA-3
Q134 0.157 0.673 0.360 !       1.06 eA-3
Q135 0.158 0.600 0.251 !       1.05 eA-3
Q136 0.160 0.524 0.328 !       1.04 eA-3
Q137 0.580 0.616 0.452 !       1.02 eA-3
Q138 0.293 0.804 0.363 !       1.00 eA-3
Q139 0.313 0.641 0.407 !       0.99 eA-3
Q140 0.495 0.018 0.411 !       0.97 eA-3
Q141 0.485 0.613 0.248 !       0.96 eA-3
Q142 0.359 0.750 0.293 !       0.95 eA-3
Q143 0.438 0.751 0.250 !       0.94 eA-3
Q144 0.964 0.439 0.271 !       0.94 eA-3
Q145 0.156 0.752 0.389 !       0.93 eA-3
Q146 0.152 0.748 0.426 !       0.92 eA-3
Q147 0.011 0.538 0.330 !       0.90 eA-3
Q148 0.127 0.456 0.077 !       0.89 eA-3
Q149 0.391 0.856 0.260 !       0.89 eA-3
Q150 0.405 0.816 0.434 !       0.88 eA-3
Q151 0.328 0.780 0.412 !       0.88 eA-3
Q152 0.278 0.514 0.188 !       0.85 eA-3
Q153 0.341 0.752 0.229 !       0.85 eA-3
Q154 0.625 0.308 0.441 !       0.85 eA-3
Q155 0.517 0.228 0.502 !       0.85 eA-3
Q156 0.218 0.630 0.393 !       0.84 eA-3
Q157 0.265 0.372 0.190 !       0.82 eA-3
Q158 0.279 0.392 0.303 !       0.82 eA-3
Q159 0.422 0.625 0.418 !       0.81 eA-3
Q160 0.232 0.739 0.392 !       0.81 eA-3
Q161 0.028 0.418 0.221 !       0.80 eA-3
Q162 0.688 0.660 0.264 !       0.80 eA-3
Q163 0.328 0.762 0.466 !       0.80 eA-3
Q164 0.687 0.204 0.407 !       0.80 eA-3
C165 0.314 0.059 0.045 !       0.79 eA-3
Q166 0.969 0.724 0.034 !       0.79 eA-3
Q167 0.271 0.735 0.266 !       0.79 eA-3
C168 0.420 1.004 0.077 !       0.78 eA-3
Q169 0.606 0.078 0.412 !       0.78 eA-3
Q170 0.281 0.714 0.374 !       0.78 eA-3
Q171 0.625 0.934 0.155 !       0.78 eA-3
Q172 0.435 0.664 0.255 !       0.77 eA-3
Q173 0.734 0.856 0.489 !       0.77 eA-3
Q174 0.702 0.989 0.450 !       0.77 eA-3
Q175 0.341 0.018 0.269 !       0.76 eA-3
Q176 0.068 0.674 0.197 !       0.76 eA-3
Q177 0.348 0.560 0.089 !       0.76 eA-3
Q178 0.419 0.876 0.095 !       0.75 eA-3
Q179 0.441 0.088 0.376 !       0.75 eA-3
Q180 0.515 0.820 0.456 !       0.75 eA-3
Q181 0.793 0.439 0.445 !       0.75 eA-3
Q182 0.286 0.456 0.266 !       0.74 eA-3
Q183 0.689 0.671 0.375 !       0.74 eA-3
Q184 0.256 0.477 0.218 !       0.74 eA-3
C185 0.252 0.179 0.109 !       0.74 eA-3
Q186 0.471 0.901 0.405 !       0.73 eA-3
Q187 0.295 0.938 0.481 !       0.73 eA-3
Q188 0.593 0.604 0.373 !       0.73 eA-3
Q189 0.434 0.766 0.127 !       0.73 eA-3
Q190 0.232 0.772 0.267 !       0.73 eA-3
Q191 0.330 0.555 0.394 !       0.73 eA-3
Q192 0.016 0.537 0.060 !       0.73 eA-3
Q193 0.189 0.820 0.274 !       0.72 eA-3
Q194 0.394 0.206 0.476 !       0.72 eA-3
Q195 0.424 0.500 0.234 !       0.72 eA-3
Q196 0.495 0.594 0.366 !       0.71 eA-3
Q197 0.411 0.702 0.231 !       0.71 eA-3
Q198 0.278 0.478 0.377 !       0.71 eA-3
Q199 0.234 0.718 0.433 !       0.71 eA-3
)
;
_shelx_fab_checksum              66030
loop_
_space_group_symop_operation_xyz
'x, y, z'
'-x, -y, -z'
loop_
_atom_site_label
_atom_site_type_symbol
_atom_site_fract_x
_atom_site_fract_y
_atom_site_fract_z
_atom_site_U_iso_or_equiv
_atom_site_adp_type
_atom_site_occupancy
_atom_site_site_symmetry_order
_atom_site_calc_flag
_atom_site_refinement_flags_posn
_atom_site_refinement_flags_adp
_atom_site_refinement_flags_occupancy
Zr3 Zr 0.78052(7) 0.22604(7) 0.61519(7) 0.0328(3) Uani 1 1 d . . .
Zr4 Zr 0.70646(7) 0.42136(7) 0.61042(7) 0.0345(3) Uani 1 1 d . . .
Zr1 Zr 0.48936(7) 0.19121(7) 0.54130(7) 0.0317(3) Uani 1 1 d . . .
Zr2 Zr 0.58571(7) 0.20100(7) 0.75197(7) 0.0324(3) Uani 1 1 d . . .
Zr6 Zr 0.79761(7) 0.43579(7) 0.82047(7) 0.0359(3) Uani 1 1 d . . .
Zr5 Zr 0.51089(7) 0.39692(7) 0.74704(7) 0.0335(3) Uani 1 1 d . . .
O9 O 0.3328(6) 0.3387(6) 0.6709(6) 0.0382(18) Uani 1 1 d . . .
O3 O 0.6812(5) 0.4584(5) 0.7422(5) 0.0322(16) Uani 1 1 d . . .
O4 O 0.6229(5) 0.3784(5) 0.8384(5) 0.0319(16) Uani 1 1 d . . .
H4O H 0.6135 0.4034 0.9014 0.048 Uiso 1 1 calc R U .
O8 O 0.5226(5) 0.3636(5) 0.6068(5) 0.0342(17) Uani 1 1 d . . .
H8O H 0.4730 0.3836 0.5764 0.051 Uiso 1 1 calc R U .
O29 O 0.4699(6) 0.2260(5) 0.4286(5) 0.0373(18) Uani 1 1 d . . .
O1 O 0.5973(5) 0.1299(5) 0.6028(5) 0.0290(15) Uani 1 1 d . . .
H1O H 0.5780 0.0562 0.5709 0.044 Uiso 1 1 calc R U .
O6 O 0.7387(6) 0.2819(5) 0.7400(5) 0.0361(17) Uani 1 1 d . . .
O17 O 0.6364(6) -0.0474(5) 0.4810(5) 0.0375(18) Uani 1 1 d . . .
O14 O 0.4918(6) -0.0653(5) 0.5814(5) 0.0370(18) Uani 1 1 d . . .
O26 O 0.8074(7) 0.5800(6) 0.9484(6) 0.050(2) Uani 1 1 d . . .
O22 O 0.8306(6) 0.3998(6) 0.5223(5) 0.0405(19) Uani 1 1 d . . .
O18 O 0.7607(5) 0.0899(5) 0.4880(5) 0.0371(18) Uani 1 1 d . . .
O31 O 0.8188(6) 0.3992(6) 0.9320(5) 0.0423(18) Uani 1 1 d . . .
O16 O 0.8035(6) 0.1135(6) 0.6550(5) 0.0381(18) Uani 1 1 d . . .
O19 O 0.9546(6) 0.2878(6) 0.6941(6) 0.0393(18) Uani 1 1 d . . .
O27 O 0.4854(6) 0.5376(6) 0.7494(6) 0.048(2) Uani 1 1 d . . .
O13 O 0.4554(6) 0.0512(5) 0.7012(5) 0.0391(18) Uani 1 1 d . . .
O7 O 0.8396(6) 0.4055(5) 0.6875(5) 0.0396(18) Uani 1 1 d . . .
H7O H 0.9184 0.4417 0.6893 0.059 Uiso 1 1 calc R U .
O2 O 0.6633(5) 0.2686(5) 0.5629(5) 0.0349(17) Uani 1 1 d . . .
O20 O 0.9650(6) 0.4189(6) 0.8293(5) 0.0454(19) Uani 1 1 d . . .
O12 O 0.4510(6) 0.2205(5) 0.8301(5) 0.0395(18) Uani 1 1 d . . .
O5 O 0.4957(6) 0.2478(5) 0.6796(5) 0.0371(18) Uani 1 1 d . . .
O24 O 0.6714(7) 0.5583(6) 0.6188(6) 0.052(2) Uani 1 1 d . . .
O10 O 0.3207(6) 0.2093(5) 0.5350(5) 0.0400(18) Uani 1 1 d . . .
O32 O 0.6745(6) 0.2526(6) 0.8912(5) 0.0395(18) Uani 1 1 d . . .
O11 O 0.4000(6) 0.3439(5) 0.8273(5) 0.0374(17) Uani 1 1 d . . .
O28 O 0.5369(6) 0.5412(6) 0.8781(6) 0.0444(19) Uani 1 1 d . . .
O21 O 0.8804(6) 0.2758(5) 0.5287(5) 0.0392(18) Uani 1 1 d . . .
O15 O 0.6792(6) 0.0975(6) 0.7416(5) 0.0422(19) Uani 1 1 d . . .
O30 O 0.6143(7) 0.3716(6) 0.4687(6) 0.0417(19) Uani 1 1 d . . .
O25 O 0.9231(7) 0.5924(6) 0.8576(6) 0.049(2) Uani 1 1 d . . .
O23 O 0.8453(6) 0.5812(6) 0.6752(6) 0.052(2) Uani 1 1 d . U .
C21 C 0.5275(10) 0.2960(9) 0.4131(9) 0.042(3) Uani 1 1 d . . .
C11 C 1.0059(10) 0.3568(10) 0.7729(9) 0.044(3) Uani 1 1 d . . .
C1 C 0.2814(10) 0.2721(9) 0.5905(9) 0.040(3) Uani 1 1 d . . .
C3 C 0.3900(9) 0.2738(8) 0.8469(8) 0.035(3) Uani 1 1 d . . .
C5 C 0.4420(8) -0.0403(8) 0.6464(8) 0.035(3) Uani 1 1 d . . .
C13 C 0.8858(9) 0.3393(9) 0.5025(8) 0.040(3) Uani 1 1 d . . .
C23 C 0.7593(9) 0.3296(10) 0.9462(9) 0.046(3) Uani 1 1 d . . .
C9 C 0.7185(9) -0.0044(8) 0.4558(8) 0.039(3) Uani 1 1 d . . .
C6 C 0.3646(10) -0.1190(9) 0.6643(9) 0.043(3) Uani 1 1 d . . .
H6A H 0.3357 -0.1829 0.6090 0.064 Uiso 1 1 calc R U .
H6B H 0.3021 -0.0992 0.6854 0.064 Uiso 1 1 calc R U .
H6C H 0.4063 -0.1254 0.7101 0.064 Uiso 1 1 calc R U .
C17 C 0.8907(11) 0.6343(11) 0.9306(10) 0.059(3) Uani 1 1 d . U .
C14 C 0.9709(10) 0.3491(9) 0.4446(9) 0.047(3) Uani 1 1 d . . .
H14A H 1.0201 0.3132 0.4464 0.071 Uiso 1 1 calc R U .
H14B H 1.0157 0.4195 0.4678 0.071 Uiso 1 1 calc R U .
H14C H 0.9309 0.3209 0.3826 0.071 Uiso 1 1 calc R U .
C19 C 0.5128(10) 0.5872(10) 0.8373(10) 0.051(3) Uani 1 1 d . . .
C2 C 0.1593(9) 0.2597(10) 0.5579(9) 0.053(3) Uani 1 1 d . . .
H2A H 0.1125 0.2422 0.5952 0.079 Uiso 1 1 calc R U .
H2B H 0.1306 0.2068 0.4955 0.079 Uiso 1 1 calc R U .
H2C H 0.1579 0.3222 0.5624 0.079 Uiso 1 1 calc R U .
C22 C 0.4884(10) 0.2869(9) 0.3230(9) 0.048(3) Uani 1 1 d . . .
H22A H 0.4556 0.3373 0.3315 0.072 Uiso 1 1 calc R U .
H22B H 0.4323 0.2206 0.2840 0.072 Uiso 1 1 calc R U .
H22C H 0.5523 0.2968 0.2955 0.072 Uiso 1 1 calc R U .
C10 C 0.7732(9) -0.0657(9) 0.3840(9) 0.046(3) Uani 1 1 d . . .
H10A H 0.8047 -0.0296 0.3525 0.069 Uiso 1 1 calc R U .
H10B H 0.7166 -0.1303 0.3410 0.069 Uiso 1 1 calc R U .
H10C H 0.8329 -0.0760 0.4131 0.069 Uiso 1 1 calc R U .
C7 C 0.7566(9) 0.0758(9) 0.7022(8) 0.044(3) Uani 1 1 d . . .
C15 C 0.7741(10) 0.6188(9) 0.6596(9) 0.047(3) Uani 1 1 d . U .
C12 C 1.1280(10) 0.3734(11) 0.8089(9) 0.061(4) Uani 1 1 d . . .
H12A H 1.1349 0.3092 0.7939 0.092 Uiso 1 1 calc R U .
H12B H 1.1484 0.4159 0.8740 0.092 Uiso 1 1 calc R U .
H12C H 1.1780 0.4056 0.7815 0.092 Uiso 1 1 calc R U .
C4 C 0.2971(9) 0.2535(10) 0.8947(9) 0.050(3) Uani 1 1 d . . .
H4A H 0.2930 0.1953 0.9014 0.075 Uiso 1 1 calc R U .
H4B H 0.2256 0.2409 0.8595 0.075 Uiso 1 1 calc R U .
H4C H 0.3132 0.3114 0.9539 0.075 Uiso 1 1 calc R U .
C24 C 0.7935(11) 0.3379(10) 1.0360(9) 0.057(3) Uani 1 1 d . . .
H24A H 0.7434 0.3616 1.0741 0.085 Uiso 1 1 calc R U .
H24B H 0.8704 0.3849 1.0645 0.085 Uiso 1 1 calc R U .
H24C H 0.7889 0.2725 1.0279 0.085 Uiso 1 1 calc R U .
C8 C 0.7927(10) -0.0043(10) 0.7078(10) 0.056(4) Uani 1 1 d . . .
H8A H 0.7566 -0.0675 0.6525 0.084 Uiso 1 1 calc R U .
H8B H 0.7707 -0.0119 0.7587 0.084 Uiso 1 1 calc R U .
H8C H 0.8741 0.0152 0.7159 0.084 Uiso 1 1 calc R U .
C16 C 0.8075(12) 0.7283(9) 0.6871(12) 0.072(4) Uani 1 1 d . . .
H16A H 0.7698 0.7357 0.6403 0.108 Uiso 1 1 calc R U .
H16B H 0.8886 0.7572 0.6956 0.108 Uiso 1 1 calc R U .
H16C H 0.7858 0.7626 0.7432 0.108 Uiso 1 1 calc R U .
C20 C 0.5122(13) 0.6909(9) 0.8880(10) 0.064(4) Uani 1 1 d . . .
H20A H 0.4497 0.6965 0.8572 0.096 Uiso 1 1 calc R U .
H20B H 0.5827 0.7384 0.8911 0.096 Uiso 1 1 calc R U .
H20C H 0.5038 0.7053 0.9487 0.096 Uiso 1 1 calc R U .
C18 C 0.9503(15) 0.7460(12) 0.9996(13) 0.098(5) Uani 1 1 d . U .
H18A H 0.8975 0.7807 1.0056 0.147 Uiso 1 1 calc R U .
H18B H 1.0135 0.7750 0.9792 0.147 Uiso 1 1 calc R U .
H18C H 0.9775 0.7528 1.0578 0.147 Uiso 1 1 calc R U .
C25 C 1.1197(15) 0.5870(14) 0.7237(12) 0.069(5) Uani 0.8 1 d D . P
C26 C 1.2326(14) 0.6089(18) 0.6954(16) 0.093(6) Uani 0.8 1 d D U P
H26A H 1.2733 0.6808 0.7257 0.139 Uiso 0.8 1 calc R U P
H26B H 1.2772 0.5768 0.7121 0.139 Uiso 0.8 1 calc R U P
H26C H 1.2185 0.5829 0.6305 0.139 Uiso 0.8 1 calc R U P
O33 O 1.0584(10) 0.4986(12) 0.6907(10) 0.078(4) Uani 0.8 1 d D . P
O34 O 1.0915(10) 0.6560(11) 0.7750(10) 0.084(4) Uani 0.8 1 d D . P
H34 H 1.0284 0.6324 0.7832 0.126 Uiso 0.8 1 calc R U P
O1W O 0.3848(7) 0.4364(6) 0.5473(6) 0.057(2) Uani 1 1 d . . .
O2W O 0.6247(7) 0.4656(6) 1.0152(6) 0.055(2) Uani 1 1 d . . .
loop_
_atom_site_aniso_label
_atom_site_aniso_U_11
_atom_site_aniso_U_22
_atom_site_aniso_U_33
_atom_site_aniso_U_23
_atom_site_aniso_U_13
_atom_site_aniso_U_12
Zr3 0.0327(5) 0.0377(5) 0.0438(6) 0.0262(5) 0.0161(4) 0.0218(4)
Zr4 0.0363(5) 0.0366(5) 0.0478(7) 0.0282(5) 0.0183(4) 0.0214(4)
Zr1 0.0340(5) 0.0351(5) 0.0428(6) 0.0260(5) 0.0162(4) 0.0217(4)
Zr2 0.0353(5) 0.0364(5) 0.0403(6) 0.0244(5) 0.0153(4) 0.0218(4)
Zr6 0.0345(5) 0.0393(5) 0.0451(7) 0.0250(5) 0.0157(4) 0.0193(4)
Zr5 0.0370(5) 0.0357(5) 0.0449(6) 0.0263(5) 0.0187(4) 0.0227(4)
O9 0.044(4) 0.046(5) 0.046(6) 0.033(4) 0.017(4) 0.026(4)
O3 0.034(4) 0.033(4) 0.041(5) 0.022(4) 0.019(3) 0.018(3)
O4 0.038(4) 0.037(4) 0.026(4) 0.014(3) 0.010(3) 0.020(3)
O8 0.036(4) 0.040(4) 0.042(5) 0.026(4) 0.022(3) 0.022(3)
O29 0.043(4) 0.047(4) 0.048(5) 0.033(4) 0.021(4) 0.032(4)
O1 0.037(4) 0.035(4) 0.033(4) 0.025(3) 0.017(3) 0.023(3)
O6 0.045(4) 0.039(4) 0.042(5) 0.023(4) 0.027(4) 0.031(3)
O17 0.040(4) 0.040(4) 0.058(5) 0.034(4) 0.024(4) 0.030(4)
O14 0.041(4) 0.037(4) 0.054(5) 0.031(4) 0.019(4) 0.026(3)
O26 0.052(5) 0.047(5) 0.061(6) 0.028(4) 0.022(4) 0.024(4)
O22 0.042(4) 0.053(5) 0.056(5) 0.038(4) 0.027(4) 0.033(4)
O18 0.037(4) 0.034(4) 0.058(5) 0.031(4) 0.022(4) 0.019(3)
O31 0.041(4) 0.051(5) 0.043(5) 0.027(4) 0.015(4) 0.019(4)
O16 0.040(4) 0.051(5) 0.050(5) 0.036(4) 0.018(4) 0.032(4)
O19 0.045(4) 0.045(5) 0.045(5) 0.028(4) 0.017(4) 0.027(4)
O27 0.054(5) 0.050(5) 0.062(6) 0.035(5) 0.023(4) 0.034(4)
O13 0.043(4) 0.040(4) 0.053(5) 0.028(4) 0.024(4) 0.028(4)
O7 0.031(4) 0.044(4) 0.056(5) 0.029(4) 0.017(3) 0.020(3)
O2 0.031(4) 0.045(4) 0.033(4) 0.017(4) 0.011(3) 0.021(3)
O20 0.049(4) 0.055(5) 0.044(5) 0.026(4) 0.021(4) 0.027(4)
O12 0.051(4) 0.041(4) 0.048(5) 0.032(4) 0.027(4) 0.025(4)
O5 0.038(4) 0.044(4) 0.059(5) 0.041(4) 0.026(4) 0.025(3)
O24 0.062(5) 0.046(5) 0.079(7) 0.048(5) 0.031(5) 0.030(4)
O10 0.043(4) 0.044(4) 0.056(5) 0.034(4) 0.020(4) 0.028(4)
O32 0.041(4) 0.046(5) 0.048(5) 0.031(4) 0.013(4) 0.025(4)
O11 0.037(4) 0.036(4) 0.052(5) 0.026(4) 0.017(4) 0.022(3)
O28 0.055(5) 0.049(5) 0.054(5) 0.036(4) 0.024(4) 0.030(4)
O21 0.036(4) 0.042(4) 0.062(6) 0.037(4) 0.020(4) 0.022(3)
O15 0.048(4) 0.049(5) 0.054(5) 0.032(4) 0.027(4) 0.035(4)
O30 0.051(5) 0.043(5) 0.063(6) 0.043(5) 0.025(4) 0.030(4)
O25 0.053(5) 0.048(5) 0.056(6) 0.026(4) 0.029(4) 0.025(4)
O23 0.048(4) 0.042(5) 0.083(7) 0.037(5) 0.030(4) 0.023(4)
C21 0.056(7) 0.035(7) 0.059(9) 0.032(7) 0.027(7) 0.031(6)
C11 0.041(6) 0.059(8) 0.050(9) 0.039(7) 0.017(6) 0.021(6)
C1 0.048(7) 0.044(7) 0.060(9) 0.037(7) 0.027(7) 0.037(6)
C3 0.043(6) 0.033(6) 0.038(7) 0.019(5) 0.016(5) 0.021(5)
C5 0.027(5) 0.043(7) 0.043(7) 0.022(6) 0.012(5) 0.022(5)
C13 0.037(6) 0.048(7) 0.049(8) 0.033(6) 0.019(5) 0.019(5)
C23 0.028(6) 0.069(9) 0.061(9) 0.042(8) 0.015(6) 0.029(6)
C9 0.036(6) 0.033(6) 0.053(8) 0.020(6) 0.010(5) 0.018(5)
C6 0.053(7) 0.043(7) 0.057(8) 0.034(6) 0.030(6) 0.030(6)
C17 0.057(8) 0.070(6) 0.054(9) 0.029(6) 0.023(7) 0.027(7)
C14 0.059(7) 0.055(7) 0.063(9) 0.044(7) 0.037(7) 0.036(6)
C19 0.054(7) 0.064(8) 0.056(10) 0.036(8) 0.029(7) 0.036(7)
C2 0.046(7) 0.059(8) 0.066(9) 0.027(7) 0.017(6) 0.039(6)
C22 0.054(7) 0.056(8) 0.056(9) 0.042(7) 0.016(6) 0.025(6)
C10 0.043(6) 0.050(7) 0.062(9) 0.035(7) 0.027(6) 0.024(6)
C7 0.040(6) 0.051(7) 0.050(8) 0.031(7) 0.012(6) 0.018(6)
C15 0.047(7) 0.045(7) 0.069(9) 0.036(7) 0.035(6) 0.025(6)
C12 0.054(7) 0.085(10) 0.047(9) 0.024(8) 0.011(6) 0.039(7)
C4 0.043(6) 0.062(8) 0.081(10) 0.055(8) 0.031(6) 0.032(6)
C24 0.063(8) 0.066(9) 0.053(9) 0.037(7) 0.014(7) 0.026(7)
C8 0.055(7) 0.069(9) 0.080(11) 0.050(8) 0.029(7) 0.045(7)
C16 0.075(9) 0.039(7) 0.116(14) 0.044(9) 0.029(9) 0.029(7)
C20 0.105(11) 0.044(8) 0.065(10) 0.034(7) 0.031(8) 0.041(8)
C18 0.096(8) 0.069(6) 0.102(9) 0.018(5) 0.053(7) 0.024(6)
C25 0.088(15) 0.093(16) 0.064(14) 0.052(13) 0.028(11) 0.056(14)
C26 0.064(10) 0.121(14) 0.114(15) 0.082(12) 0.010(10) 0.023(10)
O33 0.057(7) 0.106(11) 0.108(12) 0.083(10) 0.026(7) 0.028(8)
O34 0.055(7) 0.125(12) 0.109(12) 0.081(10) 0.046(7) 0.037(8)
O1W 0.060(5) 0.061(5) 0.079(7) 0.051(5) 0.016(5) 0.032(4)
O2W 0.062(5) 0.065(6) 0.056(6) 0.036(5) 0.018(4) 0.035(4)
loop_
_atom_type_symbol
_atom_type_description
_atom_type_scat_dispersion_real
_atom_type_scat_dispersion_imag
_atom_type_scat_source
C C 0.0181 0.0091 'International Tables Vol C Tables 4.2.6.8 and 6.1.1.4'
H H 0.0000 0.0000 'International Tables Vol C Tables 4.2.6.8 and 6.1.1.4'
O O 0.0492 0.0322 'International Tables Vol C Tables 4.2.6.8 and 6.1.1.4'
Zr Zr -0.1862 2.2449 'International Tables Vol C Tables 4.2.6.8 and 6.1.1.4'
loop_
_geom_angle_atom_site_label_1
_geom_angle_atom_site_label_2
_geom_angle_atom_site_label_3
_geom_angle
_geom_angle_site_symmetry_1
_geom_angle_site_symmetry_3
O6 Zr3 O2 91.3(3) . .
O6 Zr3 O19 85.0(3) . .
O2 Zr3 O19 140.9(3) . .
O6 Zr3 O18 145.7(3) . .
O2 Zr3 O18 96.2(3) . .
O19 Zr3 O18 108.5(3) . .
O6 Zr3 O21 141.7(3) . .
O2 Zr3 O21 81.3(2) . .
O19 Zr3 O21 78.1(3) . .
O18 Zr3 O21 72.6(3) . .
O6 Zr3 O16 81.1(3) . .
O2 Zr3 O16 145.4(3) . .
O19 Zr3 O16 72.3(3) . .
O18 Zr3 O16 73.7(3) . .
O21 Zr3 O16 124.4(2) . .
O6 Zr3 O1 70.2(3) . .
O2 Zr3 O1 69.3(2) . .
O19 Zr3 O1 142.6(2) . .
O18 Zr3 O1 81.2(2) . .
O21 Zr3 O1 138.0(3) . .
O16 Zr3 O1 76.4(2) . .
O6 Zr3 O7 69.3(3) . .
O2 Zr3 O7 69.8(3) . .
O19 Zr3 O7 72.6(2) . .
O18 Zr3 O7 144.4(2) . .
O21 Zr3 O7 72.9(2) . .
O16 Zr3 O7 135.4(3) . .
O1 Zr3 O7 120.3(2) . .
O6 Zr3 Zr6 31.26(19) . .
O2 Zr3 Zr6 83.21(19) . .
O19 Zr3 Zr6 73.68(19) . .
O18 Zr3 Zr6 176.66(16) . .
O21 Zr3 Zr6 110.48(19) . .
O16 Zr3 Zr6 104.9(2) . .
O1 Zr3 Zr6 95.49(17) . .
O7 Zr3 Zr6 38.33(17) . .
O6 Zr3 Zr4 81.65(18) . .
O2 Zr3 Zr4 31.9(2) . .
O19 Zr3 Zr4 109.47(18) . .
O18 Zr3 Zr4 120.28(18) . .
O21 Zr3 Zr4 72.31(16) . .
O16 Zr3 Zr4 162.45(18) . .
O1 Zr3 Zr4 94.52(15) . .
O7 Zr3 Zr4 38.07(17) . .
Zr6 Zr3 Zr4 60.47(3) . .
O6 Zr3 Zr2 31.0(2) . .
O2 Zr3 Zr2 82.98(18) . .
O19 Zr3 Zr2 110.19(19) . .
O18 Zr3 Zr2 116.99(16) . .
O21 Zr3 Zr2 162.43(16) . .
O16 Zr3 Zr2 73.22(17) . .
O1 Zr3 Zr2 39.53(17) . .
O7 Zr3 Zr2 94.32(16) . .
Zr6 Zr3 Zr2 59.69(3) . .
Zr4 Zr3 Zr2 90.18(3) . .
O6 Zr3 Zr1 81.0(2) . .
O2 Zr3 Zr1 30.53(18) . .
O19 Zr3 Zr1 162.8(2) . .
O18 Zr3 Zr1 88.70(17) . .
O21 Zr3 Zr1 107.16(18) . .
O16 Zr3 Zr1 115.01(18) . .
O1 Zr3 Zr1 38.77(15) . .
O7 Zr3 Zr1 92.97(16) . .
Zr6 Zr3 Zr1 89.17(3) . .
Zr4 Zr3 Zr1 58.59(2) . .
Zr2 Zr3 Zr1 60.49(2) . .
O2 Zr4 O3 96.7(3) . .
O2 Zr4 O7 74.2(3) . .
O3 Zr4 O7 70.0(2) . .
O2 Zr4 O8 74.4(2) . .
O3 Zr4 O8 69.6(3) . .
O7 Zr4 O8 124.5(3) . .
O2 Zr4 O22 83.4(2) . .
O3 Zr4 O22 145.0(3) . .
O7 Zr4 O22 76.5(3) . .
O8 Zr4 O22 141.9(3) . .
O2 Zr4 O30 83.6(3) . .
O3 Zr4 O30 142.1(2) . .
O7 Zr4 O30 143.9(3) . .
O8 Zr4 O30 74.1(3) . .
O22 Zr4 O30 72.9(3) . .
O2 Zr4 O24 152.6(3) . .
O3 Zr4 O24 91.2(3) . .
O7 Zr4 O24 132.9(3) . .
O8 Zr4 O24 84.0(3) . .
O22 Zr4 O24 104.7(3) . .
O30 Zr4 O24 74.3(3) . .
O2 Zr4 O23 149.3(2) . .
O3 Zr4 O23 86.7(3) . .
O7 Zr4 O23 78.5(3) . .
O8 Zr4 O23 134.2(2) . .
O22 Zr4 O23 76.8(3) . .
O30 Zr4 O23 112.0(3) . .
O24 Zr4 O23 57.0(3) . .
O2 Zr4 C15 174.4(3) . .
O3 Zr4 C15 88.5(3) . .
O7 Zr4 C15 105.8(4) . .
O8 Zr4 C15 109.5(3) . .
O22 Zr4 C15 91.2(3) . .
O30 Zr4 C15 93.6(3) . .
O24 Zr4 C15 28.5(3) . .
O23 Zr4 C15 28.5(3) . .
O2 Zr4 Zr1 33.35(17) . .
O3 Zr4 Zr1 85.76(18) . .
O7 Zr4 Zr1 99.81(19) . .
O8 Zr4 Zr1 41.26(17) . .
O22 Zr4 Zr1 110.1(2) . .
O30 Zr4 Zr1 73.75(19) . .
O24 Zr4 Zr1 122.2(2) . .
O23 Zr4 Zr1 172.4(2) . .
C15 Zr4 Zr1 150.0(3) . .
O2 Zr4 Zr3 32.41(18) . .
O3 Zr4 Zr3 86.05(17) . .
O7 Zr4 Zr3 41.95(19) . .
O8 Zr4 Zr3 99.15(17) . .
O22 Zr4 Zr3 75.37(17) . .
O30 Zr4 Zr3 110.46(17) . .
O24 Zr4 Zr3 174.8(2) . .
O23 Zr4 Zr3 118.32(19) . .
C15 Zr4 Zr3 146.8(3) . .
Zr1 Zr4 Zr3 62.07(2) . .
O2 Zr4 Zr6 82.9(2) . .
O3 Zr4 Zr6 33.38(17) . .
O7 Zr4 Zr6 36.75(18) . .
O8 Zr4 Zr6 94.88(18) . .
O22 Zr4 Zr6 113.00(19) . .
O30 Zr4 Zr6 164.49(19) . .
O24 Zr4 Zr6 116.0(2) . .
O23 Zr4 Zr6 83.5(2) . .
C15 Zr4 Zr6 100.4(3) . .
Zr1 Zr4 Zr6 90.75(3) . .
Zr3 Zr4 Zr6 59.75(3) . .
O5 Zr1 O2 92.9(3) . .
O5 Zr1 O17 87.9(3) . 2_656
O2 Zr1 O17 143.4(2) . 2_656
O5 Zr1 O29 142.7(2) . .
O2 Zr1 O29 85.2(3) . .
O17 Zr1 O29 115.1(3) 2_656 .
O5 Zr1 O14 143.7(2) . 2_656
O2 Zr1 O14 86.9(3) . 2_656
O17 Zr1 O14 71.8(2) 2_656 2_656
O29 Zr1 O14 73.5(2) . 2_656
O5 Zr1 O10 84.4(3) . .
O2 Zr1 O10 142.6(3) . .
O17 Zr1 O10 73.9(2) 2_656 .
O29 Zr1 O10 75.4(2) . .
O14 Zr1 O10 116.6(3) 2_656 .
O5 Zr1 O1 69.3(2) . .
O2 Zr1 O1 69.0(2) . .
O17 Zr1 O1 77.3(2) 2_656 .
O29 Zr1 O1 141.4(2) . .
O14 Zr1 O1 76.9(2) 2_656 .
O10 Zr1 O1 141.4(2) . .
O5 Zr1 O8 71.4(2) . .
O2 Zr1 O8 71.4(2) . .
O17 Zr1 O8 141.8(2) 2_656 .
O29 Zr1 O8 72.8(3) . .
O14 Zr1 O8 141.0(2) 2_656 .
O10 Zr1 O8 72.4(2) . .
O1 Zr1 O8 121.3(3) . .
O5 Zr1 Zr5 32.73(17) . .
O2 Zr1 Zr5 84.03(19) . .
O17 Zr1 Zr5 113.41(19) 2_656 .
O29 Zr1 Zr5 110.40(18) . .
O14 Zr1 Zr5 169.72(18) 2_656 .
O10 Zr1 Zr5 73.7(2) . .
O1 Zr1 Zr5 95.31(17) . .
O8 Zr1 Zr5 38.83(17) . .
O5 Zr1 Zr4 84.07(19) . .
O2 Zr1 Zr4 32.68(18) . .
O17 Zr1 Zr4 170.5(2) 2_656 .
O29 Zr1 Zr4 74.4(2) . .
O14 Zr1 Zr4 112.30(17) 2_656 .
O10 Zr1 Zr4 110.22(18) . .
O1 Zr1 Zr4 95.08(17) . .
O8 Zr1 Zr4 38.90(15) . .
Zr5 Zr1 Zr4 61.17(3) . .
O5 Zr1 Zr2 30.98(17) . .
O2 Zr1 Zr2 81.29(19) . .
O17 Zr1 Zr2 80.9(2) 2_656 .
O29 Zr1 Zr2 164.0(2) . .
O14 Zr1 Zr2 114.02(17) 2_656 .
O10 Zr1 Zr2 110.99(19) . .
O1 Zr1 Zr2 38.34(16) . .
O8 Zr1 Zr2 94.73(18) . .
Zr5 Zr1 Zr2 59.84(3) . .
Zr4 Zr1 Zr2 89.59(3) . .
O5 Zr1 Zr3 81.63(18) . .
O2 Zr1 Zr3 30.41(18) . .
O17 Zr1 Zr3 114.47(16) 2_656 .
O29 Zr1 Zr3 111.18(17) . .
O14 Zr1 Zr3 80.11(18) 2_656 .
O10 Zr1 Zr3 163.3(2) . .
O1 Zr1 Zr3 38.59(15) . .
O8 Zr1 Zr3 94.41(16) . .
Zr5 Zr1 Zr3 89.62(3) . .
Zr4 Zr1 Zr3 59.34(2) . .
Zr2 Zr1 Zr3 58.77(2) . .
O6 Zr2 O5 91.4(3) . .
O6 Zr2 O13 145.7(2) . .
O5 Zr2 O13 95.7(3) . .
O6 Zr2 O32 85.9(3) . .
O5 Zr2 O32 140.3(3) . .
O13 Zr2 O32 108.5(3) . .
O6 Zr2 O12 141.7(3) . .
O5 Zr2 O12 81.1(2) . .
O13 Zr2 O12 72.6(3) . .
O32 Zr2 O12 77.1(3) . .
O6 Zr2 O15 81.3(2) . .
O5 Zr2 O15 145.6(3) . .
O13 Zr2 O15 73.9(3) . .
O32 Zr2 O15 73.1(3) . .
O12 Zr2 O15 124.2(2) . .
O6 Zr2 O1 70.5(3) . .
O5 Zr2 O1 69.4(2) . .
O13 Zr2 O1 80.7(2) . .
O32 Zr2 O1 143.9(2) . .
O12 Zr2 O1 137.6(3) . .
O15 Zr2 O1 76.5(2) . .
O6 Zr2 O4 69.9(2) . .
O5 Zr2 O4 69.3(3) . .
O13 Zr2 O4 143.5(2) . .
O32 Zr2 O4 72.6(2) . .
O12 Zr2 O4 72.4(2) . .
O15 Zr2 O4 136.2(3) . .
O1 Zr2 O4 120.7(2) . .
O6 Zr2 Zr6 31.40(18) . .
O5 Zr2 Zr6 83.19(19) . .
O13 Zr2 Zr6 176.64(19) . .
O32 Zr2 Zr6 74.07(19) . .
O12 Zr2 Zr6 110.35(19) . .
O15 Zr2 Zr6 105.2(2) . .
O1 Zr2 Zr6 95.92(16) . .
O4 Zr2 Zr6 38.85(15) . .
O6 Zr2 Zr5 81.43(17) . .
O5 Zr2 Zr5 31.6(2) . .
O13 Zr2 Zr5 119.92(17) . .
O32 Zr2 Zr5 109.24(18) . .
O12 Zr2 Zr5 72.55(17) . .
O15 Zr2 Zr5 162.39(18) . .
O1 Zr2 Zr5 94.26(15) . .
O4 Zr2 Zr5 37.75(16) . .
Zr6 Zr2 Zr5 60.31(2) . .
O6 Zr2 Zr3 31.0(2) . .
O5 Zr2 Zr3 83.11(16) . .
O13 Zr2 Zr3 116.94(18) . .
O32 Zr2 Zr3 111.20(18) . .
O12 Zr2 Zr3 162.36(17) . .
O15 Zr2 Zr3 73.40(18) . .
O1 Zr2 Zr3 39.88(16) . .
O4 Zr2 Zr3 94.78(15) . .
Zr6 Zr2 Zr3 59.81(3) . .
Zr5 Zr2 Zr3 89.87(3) . .
O6 Zr2 Zr1 81.2(2) . .
O5 Zr2 Zr1 30.52(19) . .
O13 Zr2 Zr1 88.1(2) . .
O32 Zr2 Zr1 163.2(2) . .
O12 Zr2 Zr1 106.85(19) . .
O15 Zr2 Zr1 115.2(2) . .
O1 Zr2 Zr1 38.85(15) . .
O4 Zr2 Zr1 92.76(16) . .
Zr6 Zr2 Zr1 89.37(3) . .
Zr5 Zr2 Zr1 58.27(3) . .
Zr3 Zr2 Zr1 60.74(2) . .
O6 Zr6 O3 94.7(3) . .
O6 Zr6 O7 73.1(3) . .
O3 Zr6 O7 69.4(2) . .
O6 Zr6 O20 83.5(3) . .
O3 Zr6 O20 142.5(3) . .
O7 Zr6 O20 74.3(3) . .
O6 Zr6 O31 83.4(3) . .
O3 Zr6 O31 143.6(2) . .
O7 Zr6 O31 142.0(2) . .
O20 Zr6 O31 73.7(3) . .
O6 Zr6 O4 73.7(2) . .
O3 Zr6 O4 69.8(2) . .
O7 Zr6 O4 124.0(3) . .
O20 Zr6 O4 142.8(3) . .
O31 Zr6 O4 74.8(2) . .
O6 Zr6 O25 149.8(3) . .
O3 Zr6 O25 88.0(3) . .
O7 Zr6 O25 79.8(3) . .
O20 Zr6 O25 76.4(3) . .
O31 Zr6 O25 111.6(3) . .
O4 Zr6 O25 134.4(2) . .
O6 Zr6 O26 152.1(3) . .
O3 Zr6 O26 90.4(3) . .
O7 Zr6 O26 133.8(3) . .
O20 Zr6 O26 108.5(3) . .
O31 Zr6 O26 76.4(3) . .
O4 Zr6 O26 82.5(3) . .
O25 Zr6 O26 57.6(3) . .
O6 Zr6 C17 175.0(3) . .
O3 Zr6 C17 90.1(4) . .
O7 Zr6 C17 107.2(3) . .
O20 Zr6 C17 91.7(3) . .
O31 Zr6 C17 93.7(4) . .
O4 Zr6 C17 109.6(3) . .
O25 Zr6 C17 28.6(3) . .
O26 Zr6 C17 29.1(3) . .
O6 Zr6 Zr2 31.61(17) . .
O3 Zr6 Zr2 86.22(17) . .
O7 Zr6 Zr2 98.44(19) . .
O20 Zr6 Zr2 108.6(2) . .
O31 Zr6 Zr2 73.2(2) . .
O4 Zr6 Zr2 42.46(17) . .
O25 Zr6 Zr2 174.2(2) . .
O26 Zr6 Zr2 122.0(2) . .
C17 Zr6 Zr2 150.9(3) . .
O6 Zr6 Zr3 31.44(18) . .
O3 Zr6 Zr3 85.77(18) . .
O7 Zr6 Zr3 42.01(18) . .
O20 Zr6 Zr3 73.3(2) . .
O31 Zr6 Zr3 108.3(2) . .
O4 Zr6 Zr3 98.71(18) . .
O25 Zr6 Zr3 119.43(19) . .
O26 Zr6 Zr3 175.3(2) . .
C17 Zr6 Zr3 148.0(3) . .
Zr2 Zr6 Zr3 60.50(3) . .
O6 Zr6 Zr5 81.41(18) . .
O3 Zr6 Zr5 33.33(16) . .
O7 Zr6 Zr5 94.58(18) . .
O20 Zr6 Zr5 163.4(2) . .
O31 Zr6 Zr5 111.31(18) . .
O4 Zr6 Zr5 36.63(17) . .
O25 Zr6 Zr5 114.3(2) . .
O26 Zr6 Zr5 88.1(2) . .
C17 Zr6 Zr5 103.5(3) . .
Zr2 Zr6 Zr5 60.13(2) . .
Zr3 Zr6 Zr5 90.16(3) . .
O5 Zr5 O3 96.9(2) . .
O5 Zr5 O4 74.4(3) . .
O3 Zr5 O4 70.6(2) . .
O5 Zr5 O8 74.5(2) . .
O3 Zr5 O8 69.7(3) . .
O4 Zr5 O8 125.2(2) . .
O5 Zr5 O9 84.0(3) . .
O3 Zr5 O9 142.8(3) . .
O4 Zr5 O9 143.1(2) . .
O8 Zr5 O9 74.8(3) . .
O5 Zr5 O11 82.4(2) . .
O3 Zr5 O11 143.7(3) . .
O4 Zr5 O11 74.3(2) . .
O8 Zr5 O11 142.3(3) . .
O9 Zr5 O11 73.5(3) . .
O5 Zr5 O28 150.9(3) . .
O3 Zr5 O28 89.4(3) . .
O4 Zr5 O28 81.1(3) . .
O8 Zr5 O28 133.8(2) . .
O9 Zr5 O28 107.7(3) . .
O11 Zr5 O28 75.9(3) . .
O5 Zr5 O27 151.4(3) . .
O3 Zr5 O27 87.4(2) . .
O4 Zr5 O27 133.0(3) . .
O8 Zr5 O27 80.7(3) . .
O9 Zr5 O27 75.9(3) . .
O11 Zr5 O27 110.4(2) . .
O28 Zr5 O27 56.9(3) . .
O5 Zr5 C19 175.1(3) . .
O3 Zr5 C19 88.0(3) . .
O4 Zr5 C19 107.2(4) . .
O8 Zr5 C19 107.7(3) . .
O9 Zr5 C19 92.3(3) . .
O11 Zr5 C19 93.5(3) . .
O28 Zr5 C19 28.3(3) . .
O27 Zr5 C19 28.7(3) . .
O5 Zr5 Zr1 33.16(19) . .
O3 Zr5 Zr1 86.01(19) . .
O4 Zr5 Zr1 100.05(17) . .
O8 Zr5 Zr1 41.50(17) . .
O9 Zr5 Zr1 74.5(2) . .
O11 Zr5 Zr1 109.45(19) . .
O28 Zr5 Zr1 174.63(18) . .
O27 Zr5 Zr1 119.9(2) . .
C19 Zr5 Zr1 148.3(3) . .
O5 Zr5 Zr2 32.5(2) . .
O3 Zr5 Zr2 85.87(17) . .
O4 Zr5 Zr2 41.91(18) . .
O8 Zr5 Zr2 99.10(17) . .
O9 Zr5 Zr2 110.94(18) . .
O11 Zr5 Zr2 74.16(16) . .
O28 Zr5 Zr2 120.66(19) . .
O27 Zr5 Zr2 172.9(2) . .
C19 Zr5 Zr2 148.5(3) . .
Zr1 Zr5 Zr2 61.90(3) . .
O5 Zr5 Zr6 83.19(19) . .
O3 Zr5 Zr6 33.55(18) . .
O4 Zr5 Zr6 37.22(17) . .
O8 Zr5 Zr6 95.22(17) . .
O9 Zr5 Zr6 165.5(2) . .
O11 Zr5 Zr6 111.37(18) . .
O28 Zr5 Zr6 86.74(19) . .
O27 Zr5 Zr6 113.4(2) . .
C19 Zr5 Zr6 100.8(3) . .
Zr1 Zr5 Zr6 91.04(3) . .
Zr2 Zr5 Zr6 59.56(2) . .
C1 O9 Zr5 132.8(6) . .
Zr4 O3 Zr5 114.2(3) . .
Zr4 O3 Zr6 113.6(3) . .
Zr5 O3 Zr6 113.1(3) . .
Zr5 O4 Zr6 106.1(3) . .
Zr5 O4 Zr2 100.3(3) . .
Zr6 O4 Zr2 98.7(2) . .
Zr5 O4 H4O 116.4 . .
Zr6 O4 H4O 116.4 . .
Zr2 O4 H4O 116.4 . .
Zr5 O8 Zr4 106.1(3) . .
Zr5 O8 Zr1 99.7(2) . .
Zr4 O8 Zr1 99.8(2) . .
Zr5 O8 H8O 116.3 . .
Zr4 O8 H8O 116.3 . .
Zr1 O8 H8O 116.3 . .
C21 O29 Zr1 134.0(8) . .
Zr2 O1 Zr3 100.6(3) . .
Zr2 O1 Zr1 102.8(2) . .
Zr3 O1 Zr1 102.6(2) . .
Zr2 O1 H1O 116.2 . .
Zr3 O1 H1O 116.2 . .
Zr1 O1 H1O 116.2 . .
Zr6 O6 Zr3 117.3(3) . .
Zr6 O6 Zr2 117.0(3) . .
Zr3 O6 Zr2 118.0(4) . .
C9 O17 Zr1 147.1(7) . 2_656
C5 O14 Zr1 146.8(7) . 2_656
C17 O26 Zr6 91.0(7) . .
C13 O22 Zr4 130.2(6) . .
C9 O18 Zr3 137.9(7) . .
C23 O31 Zr6 132.7(8) . .
C7 O16 Zr3 134.1(6) . .
C11 O19 Zr3 134.2(7) . .
C19 O27 Zr5 91.8(7) . .
C5 O13 Zr2 137.4(6) . .
Zr4 O7 Zr6 106.7(3) . .
Zr4 O7 Zr3 100.0(3) . .
Zr6 O7 Zr3 99.7(3) . .
Zr4 O7 H7O 116.0 . .
Zr6 O7 H7O 116.0 . .
Zr3 O7 H7O 116.0 . .
Zr4 O2 Zr3 115.7(3) . .
Zr4 O2 Zr1 114.0(3) . .
Zr3 O2 Zr1 119.1(3) . .
C11 O20 Zr6 132.7(8) . .
C3 O12 Zr2 135.5(6) . .
Zr5 O5 Zr1 114.1(3) . .
Zr5 O5 Zr2 115.8(4) . .
Zr1 O5 Zr2 118.5(3) . .
C15 O24 Zr4 93.6(6) . .
C1 O10 Zr1 133.3(8) . .
C23 O32 Zr2 132.6(7) . .
C3 O11 Zr5 131.8(6) . .
C19 O28 Zr5 94.3(8) . .
C13 O21 Zr3 135.0(6) . .
C7 O15 Zr2 134.3(7) . .
C21 O30 Zr4 133.1(7) . .
C17 O25 Zr6 92.1(7) . .
C15 O23 Zr4 91.9(7) . .
O30 C21 O29 124.5(11) . .
O30 C21 C22 118.8(10) . .
O29 C21 C22 116.7(11) . .
O19 C11 O20 125.8(10) . .
O19 C11 C12 119.7(11) . .
O20 C11 C12 114.5(12) . .
O9 C1 O10 125.1(10) . .
O9 C1 C2 118.1(9) . .
O10 C1 C2 116.6(12) . .
O12 C3 O11 125.7(9) . .
O12 C3 C4 117.7(9) . .
O11 C3 C4 116.6(9) . .
O14 C5 O13 123.2(9) . .
O14 C5 C6 120.7(10) . .
O13 C5 C6 116.1(9) . .
O21 C13 O22 127.1(9) . .
O21 C13 C14 116.4(9) . .
O22 C13 C14 116.5(9) . .
O32 C23 O31 126.8(11) . .
O32 C23 C24 116.3(11) . .
O31 C23 C24 116.9(12) . .
O18 C9 O17 123.1(10) . .
O18 C9 C10 115.7(9) . .
O17 C9 C10 121.3(9) . .
C5 C6 H6A 109.5 . .
C5 C6 H6B 109.5 . .
H6A C6 H6B 109.5 . .
C5 C6 H6C 109.5 . .
H6A C6 H6C 109.5 . .
H6B C6 H6C 109.5 . .
O25 C17 O26 119.2(12) . .
O25 C17 C18 121.8(12) . .
O26 C17 C18 119.0(12) . .
O25 C17 Zr6 59.3(7) . .
O26 C17 Zr6 59.9(7) . .
C18 C17 Zr6 174.6(12) . .
C13 C14 H14A 109.5 . .
C13 C14 H14B 109.5 . .
H14A C14 H14B 109.5 . .
C13 C14 H14C 109.5 . .
H14A C14 H14C 109.5 . .
H14B C14 H14C 109.5 . .
O28 C19 O27 117.0(11) . .
O28 C19 C20 121.8(13) . .
O27 C19 C20 121.2(11) . .
O28 C19 Zr5 57.5(6) . .
O27 C19 Zr5 59.5(6) . .
C20 C19 Zr5 178.8(9) . .
C1 C2 H2A 109.5 . .
C1 C2 H2B 109.5 . .
H2A C2 H2B 109.5 . .
C1 C2 H2C 109.5 . .
H2A C2 H2C 109.5 . .
H2B C2 H2C 109.5 . .
C21 C22 H22A 109.5 . .
C21 C22 H22B 109.5 . .
H22A C22 H22B 109.5 . .
C21 C22 H22C 109.5 . .
H22A C22 H22C 109.5 . .
H22B C22 H22C 109.5 . .
C9 C10 H10A 109.5 . .
C9 C10 H10B 109.5 . .
H10A C10 H10B 109.5 . .
C9 C10 H10C 109.5 . .
H10A C10 H10C 109.5 . .
H10B C10 H10C 109.5 . .
O15 C7 O16 125.0(10) . .
O15 C7 C8 117.7(10) . .
O16 C7 C8 117.2(9) . .
O24 C15 O23 117.4(10) . .
O24 C15 C16 120.3(11) . .
O23 C15 C16 122.2(12) . .
O24 C15 Zr4 57.9(5) . .
O23 C15 Zr4 59.5(6) . .
C16 C15 Zr4 178.0(8) . .
C11 C12 H12A 109.5 . .
C11 C12 H12B 109.5 . .
H12A C12 H12B 109.5 . .
C11 C12 H12C 109.5 . .
H12A C12 H12C 109.5 . .
H12B C12 H12C 109.5 . .
C3 C4 H4A 109.5 . .
C3 C4 H4B 109.5 . .
H4A C4 H4B 109.5 . .
C3 C4 H4C 109.5 . .
H4A C4 H4C 109.5 . .
H4B C4 H4C 109.5 . .
C23 C24 H24A 109.5 . .
C23 C24 H24B 109.5 . .
H24A C24 H24B 109.5 . .
C23 C24 H24C 109.5 . .
H24A C24 H24C 109.5 . .
H24B C24 H24C 109.5 . .
C7 C8 H8A 109.5 . .
C7 C8 H8B 109.5 . .
H8A C8 H8B 109.5 . .
C7 C8 H8C 109.5 . .
H8A C8 H8C 109.5 . .
H8B C8 H8C 109.5 . .
C15 C16 H16A 109.5 . .
C15 C16 H16B 109.5 . .
H16A C16 H16B 109.5 . .
C15 C16 H16C 109.5 . .
H16A C16 H16C 109.5 . .
H16B C16 H16C 109.5 . .
C19 C20 H20A 109.5 . .
C19 C20 H20B 109.5 . .
H20A C20 H20B 109.5 . .
C19 C20 H20C 109.5 . .
H20A C20 H20C 109.5 . .
H20B C20 H20C 109.5 . .
C17 C18 H18A 109.5 . .
C17 C18 H18B 109.5 . .
H18A C18 H18B 109.5 . .
C17 C18 H18C 109.5 . .
H18A C18 H18C 109.5 . .
H18B C18 H18C 109.5 . .
O33 C25 O34 122.1(16) . .
O33 C25 C26 117.1(16) . .
O34 C25 C26 120.8(17) . .
C25 C26 H26A 109.5 . .
C25 C26 H26B 109.5 . .
H26A C26 H26B 109.5 . .
C25 C26 H26C 109.5 . .
H26A C26 H26C 109.5 . .
H26B C26 H26C 109.5 . .
C25 O34 H34 109.5 . .
loop_
_geom_bond_atom_site_label_1
_geom_bond_atom_site_label_2
_geom_bond_distance
_geom_bond_site_symmetry_2
Zr3 O6 2.051(7) .
Zr3 O2 2.079(6) .
Zr3 O19 2.176(8) .
Zr3 O18 2.184(7) .
Zr3 O21 2.227(7) .
Zr3 O16 2.234(6) .
Zr3 O1 2.295(6) .
Zr3 O7 2.373(7) .
Zr3 Zr6 3.4946(14) .
Zr3 Zr4 3.4955(11) .
Zr3 Zr2 3.5189(12) .
Zr3 Zr1 3.5904(12) .
Zr4 O2 2.050(7) .
Zr4 O3 2.092(7) .
Zr4 O7 2.188(7) .
Zr4 O8 2.211(6) .
Zr4 O22 2.213(6) .
Zr4 O30 2.251(8) .
Zr4 O24 2.272(7) .
Zr4 O23 2.308(8) .
Zr4 C15 2.677(11) .
Zr4 Zr1 3.4682(13) .
Zr4 Zr6 3.5198(14) .
Zr1 O5 2.070(7) .
Zr1 O2 2.086(6) .
Zr1 O17 2.204(7) 2_656
Zr1 O29 2.207(7) .
Zr1 O14 2.223(7) 2_656
Zr1 O10 2.224(6) .
Zr1 O1 2.304(6) .
Zr1 O8 2.321(7) .
Zr1 Zr5 3.4535(14) .
Zr1 Zr2 3.5817(13) .
Zr2 O6 2.053(7) .
Zr2 O5 2.098(7) .
Zr2 O13 2.181(7) .
Zr2 O32 2.193(8) .
Zr2 O12 2.218(6) .
Zr2 O15 2.228(6) .
Zr2 O1 2.279(6) .
Zr2 O4 2.384(7) .
Zr2 Zr6 3.4904(13) .
Zr2 Zr5 3.5106(11) .
Zr6 O6 2.041(7) .
Zr6 O3 2.114(7) .
Zr6 O7 2.199(7) .
Zr6 O20 2.202(7) .
Zr6 O31 2.210(7) .
Zr6 O4 2.215(6) .
Zr6 O25 2.281(8) .
Zr6 O26 2.293(8) .
Zr6 C17 2.649(15) .
Zr6 Zr5 3.5171(12) .
Zr5 O5 2.046(7) .
Zr5 O3 2.101(6) .
Zr5 O4 2.185(6) .
Zr5 O8 2.196(7) .
Zr5 O9 2.211(8) .
Zr5 O11 2.239(7) .
Zr5 O28 2.268(8) .
Zr5 O27 2.313(7) .
Zr5 C19 2.683(13) .
O9 C1 1.254(14) .
O4 H4O 0.9800 .
O8 H8O 0.9800 .
O29 C21 1.273(12) .
O1 H1O 0.9800 .
O17 C9 1.267(12) .
O17 Zr1 2.204(7) 2_656
O14 C5 1.259(12) .
O14 Zr1 2.223(7) 2_656
O26 C17 1.288(15) .
O22 C13 1.279(12) .
O18 C9 1.253(12) .
O31 C23 1.263(14) .
O16 C7 1.265(12) .
O19 C11 1.245(14) .
O27 C19 1.288(15) .
O13 C5 1.270(12) .
O7 H7O 0.9800 .
O20 C11 1.285(14) .
O12 C3 1.251(11) .
O24 C15 1.278(15) .
O10 C1 1.271(12) .
O32 C23 1.260(15) .
O11 C3 1.260(12) .
O28 C19 1.274(14) .
O21 C13 1.245(12) .
O15 C7 1.257(12) .
O30 C21 1.267(14) .
O25 C17 1.268(14) .
O23 C15 1.280(13) .
C21 C22 1.488(16) .
C11 C12 1.516(16) .
C1 C2 1.523(15) .
C3 C4 1.496(14) .
C5 C6 1.496(14) .
C13 C14 1.511(14) .
C23 C24 1.476(17) .
C9 C10 1.523(15) .
C6 H6A 0.9600 .
C6 H6B 0.9600 .
C6 H6C 0.9600 .
C17 C18 1.52(2) .
C14 H14A 0.9600 .
C14 H14B 0.9600 .
C14 H14C 0.9600 .
C19 C20 1.472(17) .
C2 H2A 0.9600 .
C2 H2B 0.9600 .
C2 H2C 0.9600 .
C22 H22A 0.9600 .
C22 H22B 0.9600 .
C22 H22C 0.9600 .
C10 H10A 0.9600 .
C10 H10B 0.9600 .
C10 H10C 0.9600 .
C7 C8 1.497(15) .
C15 C16 1.486(16) .
C12 H12A 0.9600 .
C12 H12B 0.9600 .
C12 H12C 0.9600 .
C4 H4A 0.9600 .
C4 H4B 0.9600 .
C4 H4C 0.9600 .
C24 H24A 0.9600 .
C24 H24B 0.9600 .
C24 H24C 0.9600 .
C8 H8A 0.9600 .
C8 H8B 0.9600 .
C8 H8C 0.9600 .
C16 H16A 0.9600 .
C16 H16B 0.9600 .
C16 H16C 0.9600 .
C20 H20A 0.9600 .
C20 H20B 0.9600 .
C20 H20C 0.9600 .
C18 H18A 0.9600 .
C18 H18B 0.9600 .
C18 H18C 0.9600 .
C25 O33 1.215(15) .
C25 O34 1.217(14) .
C25 C26 1.518(16) .
C26 H26A 0.9600 .
C26 H26B 0.9600 .
C26 H26C 0.9600 .
O34 H34 0.8200 .
