#------------------------------------------------------------------------------
#$Date: 2018-02-28 05:06:44 +0200 (Wed, 28 Feb 2018) $
#$Revision: 206679 $
#$URL: file:///home/coder/svn-repositories/cod/cif/7/12/13/7121337.cif $
#------------------------------------------------------------------------------
#
# This file is available in the Crystallography Open Database (COD),
# http://www.crystallography.net/
#
# All data on this site have been placed in the public domain by the
# contributors.
#
data_7121337
loop_
_publ_author_name
'Zhou, Mi'
'Ju, Zhanfeng'
'Yuan, Daqiang'
_publ_section_title
;
 A new metal-organic framework constructed from cationic nodes and
 cationic linkers for highly efficient anion exchange
;
_journal_name_full               'Chemical Communications'
_journal_paper_doi               10.1039/C8CC01225C
_journal_year                    2018
_chemical_formula_moiety
'C15 H14 Cu In0.50 N2 O3.67, N O3 [+ solvent]'
_chemical_formula_sum            'C15 H14 Cu In0.5 N3 O6.67'
_chemical_formula_weight         463.91
_space_group_crystal_system      hexagonal
_space_group_IT_number           194
_space_group_name_Hall           '-P 6c 2c'
_space_group_name_H-M_alt        'P 63/m m c'
_symmetry_space_group_name_Hall  '-P 6c 2c'
_symmetry_space_group_name_H-M   'P 63/m m c'
_atom_sites_solution_hydrogens   difmap
_audit_creation_method           SHELXL-2017/1
_audit_update_record
;
2017-11-21 deposited with the CCDC.
2018-02-27 downloaded from the CCDC.
;
_cell_angle_alpha                90
_cell_angle_beta                 90
_cell_angle_gamma                120
_cell_formula_units_Z            12
_cell_length_a                   21.8599(3)
_cell_length_b                   21.8599(3)
_cell_length_c                   30.9566(2)
_cell_measurement_reflns_used    18492
_cell_measurement_temperature    200.0(1)
_cell_measurement_theta_max      72.8750
_cell_measurement_theta_min      3.6550
_cell_volume                     12810.9(3)
_computing_cell_refinement       'CrysAlisPro 1.171.39.6a (Rigaku OD, 2015)'
_computing_data_collection       'CrysAlisPro 1.171.39.6a (Rigaku OD, 2015)'
_computing_data_reduction        'CrysAlisPro 1.171.39.6a (Rigaku OD, 2015)'
_computing_structure_refinement  'SHELXL-2017/1 (Sheldrick, 2017)'
_computing_structure_solution    'SHELXT 2014/5 (Sheldrick, 2014)'
_diffrn_ambient_temperature      200.0(1)
_diffrn_detector_area_resol_mean 10.5594
_diffrn_measured_fraction_theta_full 0.996
_diffrn_measured_fraction_theta_max 0.982
_diffrn_measurement_device_type  'SuperNova, Dual, Cu at home/near, Atlas'
_diffrn_measurement_method       '\w scans'
_diffrn_radiation_type           CuK\a
_diffrn_radiation_wavelength     1.54184
_diffrn_reflns_av_R_equivalents  0.0653
_diffrn_reflns_av_unetI/netI     0.0281
_diffrn_reflns_Laue_measured_fraction_full 0.996
_diffrn_reflns_Laue_measured_fraction_max 0.982
_diffrn_reflns_limit_h_max       18
_diffrn_reflns_limit_h_min       -26
_diffrn_reflns_limit_k_max       25
_diffrn_reflns_limit_k_min       -27
_diffrn_reflns_limit_l_max       26
_diffrn_reflns_limit_l_min       -37
_diffrn_reflns_number            50173
_diffrn_reflns_point_group_measured_fraction_full 0.996
_diffrn_reflns_point_group_measured_fraction_max 0.982
_diffrn_reflns_theta_full        67.684
_diffrn_reflns_theta_max         73.485
_diffrn_reflns_theta_min         4.045
_diffrn_source                   'micro-focus sealed X-ray tube'
_exptl_absorpt_coefficient_mu    2.986
_exptl_absorpt_correction_T_max  1.00000
_exptl_absorpt_correction_T_min  0.54114
_exptl_absorpt_correction_type   multi-scan
_exptl_absorpt_process_details
;
CrysAlisPro 1.171.39.6a (Rigaku Oxford Diffraction, 2015)
Empirical absorption correction using spherical harmonics,
 implemented in SCALE3 ABSPACK scaling algorithm.
;
_exptl_crystal_colour            black
_exptl_crystal_density_diffrn    0.722
_exptl_crystal_description       prism
_exptl_crystal_F_000             2782
_exptl_crystal_size_max          0.22
_exptl_crystal_size_mid          0.15
_exptl_crystal_size_min          0.12
_refine_diff_density_max         1.202
_refine_diff_density_min         -0.580
_refine_diff_density_rms         0.105
_refine_ls_extinction_method     none
_refine_ls_goodness_of_fit_ref   1.052
_refine_ls_hydrogen_treatment    constr
_refine_ls_matrix_type           full
_refine_ls_number_parameters     207
_refine_ls_number_reflns         4674
_refine_ls_number_restraints     212
_refine_ls_restrained_S_all      1.191
_refine_ls_R_factor_all          0.1016
_refine_ls_R_factor_gt           0.0758
_refine_ls_shift/su_max          0.001
_refine_ls_shift/su_mean         0.000
_refine_ls_structure_factor_coef Fsqd
_refine_ls_weighting_details
'w=1/[\s^2^(Fo^2^)+(0.1337P)^2^+42.0815P] where P=(Fo^2^+2Fc^2^)/3'
_refine_ls_weighting_scheme      calc
_refine_ls_wR_factor_gt          0.2052
_refine_ls_wR_factor_ref         0.2486
_reflns_Friedel_coverage         0.000
_reflns_number_gt                3472
_reflns_number_total             4674
_reflns_threshold_expression     'I > 2\s(I)'
_cod_data_source_file            c8cc01225c2.cif
_cod_data_source_block           FJI-Y6
_cod_original_cell_volume        12810.9(4)
_cod_original_formula_sum        'C15 H14 Cu In0.50 N3 O6.67'
_cod_database_code               7121337
_shelx_shelxl_version_number     2017/1
_shelx_space_group_comment
;
The symmetry employed for this shelxl refinement is uniquely defined
by the following loop, which should always be used as a source of
symmetry information in preference to the above space-group names.
They are only intended as comments.
;
_shelx_res_file
;
TITL F:\ZM2015~1\struct\tmp\zm201504032_a.res in P6(3)/mmc
    F:\FJI-Y6\FJI-Y6.res
    created by SHELXL-2017/1 at 22:17:40 on 21-Nov-2017
CELL 1.54184 21.8599 21.8599 30.9566 90.000 90.000 120.000
ZERR 12.0000 0.0003 0.0003 0.0002 0.000 0.000 0.000
LATT 1
SYMM X-Y, X, 0.5+Z
SYMM -Y, X-Y, Z
SYMM -X, -Y, 0.5+Z
SYMM -X+Y, -X, Z
SYMM Y, -X+Y, 0.5+Z
SYMM X-Y, -Y, -Z
SYMM -X, -X+Y, -Z
SYMM Y, X, -Z
SYMM -Y, -X, 0.5-Z
SYMM -X+Y, Y, 0.5-Z
SYMM X, X-Y, 0.5-Z
SFAC C H N O CU IN
UNIT 180 168 36 80.0004 12 6
ISOR 0.01 $C $O $N $In
ISOR 0.005 Cu1
ABIN
BOND
SIMU 0.01 C1 C2 C3 C4 C5 C6
SADI 0.01 C1 N2 C6 N1
DFIX 1.25 0.01 N3 O7
OMIT 0 5 4
OMIT -1 3 7
OMIT -2 4 6
OMIT 0 2 1
OMIT 0 3 5
OMIT 0 1 2
OMIT 0 1 4
OMIT 0 3 1
OMIT -1 2 4
OMIT 0 3 2
OMIT 0 1 5
OMIT 0 2 6
OMIT 0 2 4
OMIT -3 7 37
OMIT -1 4 1
OMIT 0 0 6
OMIT -2 4 0
ACTA
FMAP 2 1 53
PLAN 5 0 0
LIST 4 1
L.S. 15 0 77
WGHT    0.133700   42.081501
FVAR       0.13194
IN1   6    0.720416    0.279584    0.750000    10.25000    0.05611    0.05611 =
         0.00538    0.00000    0.00000    0.02737
CU1   5    0.452965    0.037969    0.483748    10.50000    0.09762    0.18417 =
         0.08722   -0.10730   -0.05521    0.09414
O1    4    0.654746    0.206415    0.700242    11.00000    0.07722    0.07432 =
         0.02991   -0.02345   -0.01619    0.03780
O2    4    0.666667    0.333333    0.750000    10.08333    0.04511    0.04511 =
         0.01577    0.00000    0.00000    0.02255
O3    4    0.776909    0.223091    0.750000    10.25000    0.08098    0.08098 =
         0.04566    0.00000    0.00000    0.05541
O4    4    0.536668    0.073337    0.518055    10.25000    0.08847    0.11509 =
         0.07355   -0.05118   -0.02559    0.05755
O5    4    0.502718    0.005437    0.448825    10.25000    0.08913    0.11399 =
         0.07438   -0.05983   -0.02992    0.05700
O7    4    0.814709    0.185291    0.613766    10.50000    0.21077    0.21077 =
         0.12551   -0.04062    0.04062    0.05183
O8    4    0.861586    0.232378    0.671374    11.00000    0.28793    0.18468 =
         0.27402   -0.00157   -0.08260    0.08340
N1    3    0.401094    0.058497    0.525747    10.50000    0.07083    0.10071 =
         0.06913   -0.05027   -0.02443    0.05442
N2    3    0.367544   -0.011728    0.451984    10.50000    0.07877    0.10151 =
         0.06412   -0.05013   -0.02288    0.04798
N3    3    0.815131    0.184869    0.653334    10.50000    0.15388    0.15388 =
         0.13209    0.00501   -0.00501    0.05272
AFIX   9
C1    1    0.309938   -0.011415    0.479471    10.50000    0.06409    0.11501 =
         0.08865   -0.05473   -0.01492    0.05920
AFIX   3
H1    2    0.299659   -0.047935    0.500221    10.50000   -1.20000
AFIX   5
C2    1    0.238035   -0.036477    0.460350    10.50000    0.08871    0.13484 =
         0.10457   -0.04434   -0.01084    0.05697
AFIX   3
H2B   2    0.223539   -0.079110    0.444846    10.50000   -1.20000
H2C   2    0.240448   -0.002113    0.440529    10.50000   -1.20000
AFIX   5
C3    1    0.184388   -0.049010    0.494707    10.50000    0.09614    0.14027 =
         0.10976   -0.02499   -0.00648    0.05135
AFIX   3
H3B   2    0.177564   -0.087505    0.512367    10.50000   -1.20000
H3C   2    0.140459   -0.061348    0.481437    10.50000   -1.20000
AFIX   5
C4    1    0.207473    0.015355    0.522413    10.50000    0.06584    0.11456 =
         0.08904   -0.03233   -0.01260    0.05778
AFIX   3
H4A   2    0.174189    0.004566    0.545048    10.50000   -1.20000
H4B   2    0.208506    0.052128    0.505453    10.50000   -1.20000
AFIX   5
C5    1    0.279376    0.040417    0.541534    10.50000    0.07933    0.12271 =
         0.09157   -0.05134   -0.01440    0.05788
AFIX   3
H5A   2    0.276943    0.006053    0.561364    10.50000   -1.20000
H5B   2    0.293863    0.083070    0.557037    10.50000   -1.20000
AFIX   5
C6    1    0.333014    0.052960    0.507177    10.50000    0.09225    0.12729 =
         0.09493   -0.03393   -0.01694    0.04869
AFIX   3
H6    2    0.342478    0.092805    0.489996    10.50000   -1.20000
AFIX   0
C7    1    0.594845    0.189690    0.685255    10.50000    0.07025    0.05985 =
         0.02547   -0.01398   -0.00699    0.02993
C8    1    0.578828    0.157655    0.642705    10.25000    0.06773    0.04757 =
         0.04478   -0.01029   -0.00514    0.02379
C9    1    0.513592    0.138231    0.621669    10.50000    0.06329    0.04895 =
         0.03366   -0.01806   -0.00730    0.02735
AFIX   3
H9    2    0.479492    0.146201    0.636319    10.50000   -1.20000
AFIX   0
C10   1    0.427244    0.087125    0.563659    10.50000    0.07107    0.07462 =
         0.04530   -0.03570   -0.01250    0.04240
AFIX   3
H10   2    0.397104    0.094975    0.582619    10.50000   -1.20000
AFIX   0
C11   1    0.497309    0.106820    0.579184    10.50000    0.07480    0.07205 =
         0.05137   -0.03149   -0.01525    0.03566
C12   1    0.548228    0.096455    0.557449    10.25000    0.06718    0.07843 =
         0.05531   -0.02906   -0.01453    0.03921
C13   1    0.432679   -0.134642    0.350376    10.25000    0.06832    0.03974 =
         0.02840   -0.02135   -0.01067    0.01987
C14   1    0.391304   -0.111410    0.366735    10.50000    0.05963    0.06199 =
         0.04820   -0.02223   -0.00939    0.02413
AFIX   3
H14   2    0.347084   -0.124920    0.352815    10.50000   -1.20000
AFIX   0
C15   1    0.477870   -0.044260    0.419209    10.25000    0.07319    0.08134 =
         0.06336   -0.03407   -0.01703    0.04067
C16   1    0.409298   -0.069687    0.402450    10.50000    0.06772    0.07846 =
         0.05221   -0.03016   -0.01076    0.03461
C17   1    0.358489   -0.048801    0.419140    10.50000    0.08470    0.09788 =
         0.07611   -0.03814   -0.01553    0.05069
AFIX   3
H17   2    0.314909   -0.065561    0.403680    10.50000   -1.20000
AFIX   0
HKLF 4




REM  F:\ZM2015~1\struct\tmp\zm201504032_a.res in P6(3)/mmc
REM R1 =  0.0758 for    3472 Fo > 4sig(Fo)  and  0.1016 for all    4674 data
REM    207 parameters refined using    212 restraints

END

WGHT      0.1336     41.7438

REM Highest difference peak  1.202,  deepest hole -0.580,  1-sigma level  0.105
Q1    1   0.4358  0.0000  0.5000  10.50000  0.05    1.20
Q2    1   0.6937  0.3063  0.7500  10.25000  0.05    1.02
Q3    1   0.3276  0.0314  0.4632  11.00000  0.05    0.96
Q4    1   0.4917  0.0823  0.4797  11.00000  0.05    0.90
Q5    1   0.5585  0.1170  0.7500  10.25000  0.05    0.62
;
_shelx_res_checksum              44863
_shelx_fab_file
;
   -1    2    0    182.05      0.00
    0    2    0     49.72      0.00
   -1    3    0     -3.58      0.00
    0    3    0     69.42      0.00
   -2    4    0     -6.89      0.00
   -1    4    0    -45.41      0.00
    0    4    0     40.01      0.00
   -2    5    0     41.96      0.00
   -1    5    0     26.74      0.00
    0    5    0     10.50      0.00
   -3    6    0     83.94      0.00
   -2    6    0    -18.08      0.00
   -1    6    0     -6.10      0.00
    0    6    0     57.41      0.00
   -3    7    0     19.70      0.00
   -2    7    0     12.82      0.00
   -1    7    0      4.78      0.00
    0    7    0      2.35      0.00
   -4    8    0     37.53      0.00
   -3    8    0    -15.16      0.00
   -2    8    0     31.43      0.00
   -1    8    0      2.17      0.00
    0    8    0     25.25      0.00
   -4    9    0     21.63      0.00
   -3    9    0    -19.85      0.00
   -2    9    0      7.00      0.00
   -1    9    0     -9.59      0.00
    0    9    0     -9.89      0.00
   -5   10    0     20.49      0.00
   -4   10    0     -8.41      0.00
   -3   10    0     19.01      0.00
   -2   10    0     -4.09      0.00
   -1   10    0      5.79      0.00
    0   10    0      0.74      0.00
   -5   11    0      1.25      0.00
   -4   11    0      9.79      0.00
   -3   11    0      0.26      0.00
   -2   11    0     -0.46      0.00
   -1   11    0     15.37      0.00
    0   11    0      1.83      0.00
   -6   12    0     27.39      0.00
   -5   12    0     -2.99      0.00
   -4   12    0     -6.50      0.00
   -3   12    0     -0.97      0.00
   -2   12    0      2.56      0.00
   -1   12    0      6.83      0.00
    0   12    0      4.80      0.00
   -6   13    0     -1.70      0.00
   -5   13    0     -0.49      0.00
   -4   13    0     11.64      0.00
   -3   13    0      6.94      0.00
   -2   13    0     -5.35      0.00
   -1   13    0      2.68      0.00
    0   13    0     -5.58      0.00
   -7   14    0      2.73      0.00
   -6   14    0      6.06      0.00
   -5   14    0     -8.06      0.00
   -4   14    0     -9.18      0.00
   -3   14    0      1.80      0.00
   -2   14    0     -0.62      0.00
   -1   14    0      2.83      0.00
    0   14    0      5.03      0.00
   -7   15    0     -4.74      0.00
   -6   15    0      4.01      0.00
   -5   15    0      4.98      0.00
   -4   15    0     -6.29      0.00
   -3   15    0      0.47      0.00
   -2   15    0      2.63      0.00
   -1   15    0      0.41      0.00
    0   15    0     -7.81      0.00
   -8   16    0      6.34      0.00
   -7   16    0     -9.14      0.00
   -6   16    0     -1.87      0.00
   -5   16    0      0.79      0.00
   -4   16    0      2.13      0.00
   -3   16    0     -2.37      0.00
   -2   16    0      5.47      0.00
   -1   16    0     -0.81      0.00
    0   16    0     -0.06      0.00
   -8   17    0     -3.21      0.00
   -7   17    0     -0.89      0.00
   -6   17    0     -1.29      0.00
   -5   17    0      3.02      0.00
   -4   17    0      4.59      0.00
   -3   17    0      2.04      0.00
   -2   17    0     -1.50      0.00
   -1   17    0     -2.95      0.00
    0   17    0      0.85      0.00
   -9   18    0      1.36      0.00
   -8   18    0     -7.68      0.00
   -7   18    0      1.07      0.00
   -6   18    0      0.67      0.00
   -5   18    0     -3.84      0.00
   -4   18    0     -1.86      0.00
   -3   18    0     -5.00      0.00
   -2   18    0     -2.83      0.00
   -1   18    0      2.04      0.00
    0   18    0      3.68      0.00
   -9   19    0     -5.97      0.00
   -8   19    0      2.12      0.00
   -7   19    0      2.53      0.00
   -6   19    0      1.75      0.00
   -5   19    0      1.94      0.00
   -4   19    0      2.08      0.00
   -3   19    0     -6.14      0.00
   -2   19    0      1.97      0.00
   -1   19    0     -6.71      0.00
    0   19    0      0.33      0.00
  -10   20    0      6.69      0.00
   -9   20    0      2.52      0.00
   -8   20    0      4.74      0.00
   -7   20    0      0.42      0.00
   -6   20    0     -1.85      0.00
   -5   20    0      0.55      0.00
   -4   20    0      4.09      0.00
   -3   20    0      1.84      0.00
   -2   20    0      0.00      0.00
   -1   20    0      0.42      0.00
    0   20    0     -3.01      0.00
  -10   21    0      1.34      0.00
   -9   21    0      4.02      0.00
   -8   21    0      1.31      0.00
   -7   21    0      3.62      0.00
   -6   21    0      1.02      0.00
   -5   21    0      4.79      0.00
   -4   21    0      7.38      0.00
   -3   21    0     -3.92      0.00
   -2   21    0     -0.81      0.00
   -1   21    0     -0.01      0.00
    0   21    0     -2.81      0.00
  -11   22    0     -1.07      0.00
  -10   22    0     -2.69      0.00
   -9   22    0      1.84      0.00
   -8   22    0     -0.64      0.00
   -7   22    0     -2.89      0.00
   -6   22    0      0.93      0.00
   -5   22    0      2.42      0.00
   -4   22    0     -2.08      0.00
   -3   22    0     -0.08      0.00
   -2   22    0      0.08      0.00
   -1   22    0      3.27      0.00
    0   22    0     -0.14      0.00
  -11   23    0     -4.02      0.00
  -10   23    0      1.70      0.00
   -9   23    0      0.08      0.00
   -8   23    0      4.22      0.00
   -7   23    0      2.93      0.00
   -6   23    0      0.83      0.00
   -5   23    0     -0.16      0.00
   -4   23    0     -2.75      0.00
   -3   23    0     -2.38      0.00
   -2   23    0     -2.94      0.00
   -1   23    0      2.04      0.00
    0   23    0     -3.77      0.00
  -12   24    0      0.88      0.00
  -11   24    0     -4.35      0.00
  -10   24    0      0.91      0.00
   -9   24    0     -2.24      0.00
   -8   24    0     -0.39      0.00
   -7   24    0     -1.59      0.00
   -6   24    0     -4.25      0.00
   -5   24    0      2.58      0.00
   -4   24    0      1.77      0.00
   -3   24    0      4.21      0.00
   -2   24    0      0.66      0.00
  -12   25    0     -2.09      0.00
  -11   25    0     -0.08      0.00
  -10   25    0     -0.73      0.00
   -9   25    0      5.12      0.00
   -8   25    0     -1.48      0.00
   -7   25    0      4.75      0.00
   -6   25    0     -2.01      0.00
   -5   25    0     -3.43      0.00
   -4   25    0     -3.83      0.00
  -13   26    0      1.98      0.00
  -12   26    0     -1.30      0.00
  -11   26    0      3.09      0.00
  -10   26    0     -3.65      0.00
   -9   26    0     -6.68      0.00
   -8   26    0      2.89      0.00
   -7   26    0     -2.92      0.00
  -12   27    0     -3.65      0.00
    0    2    1     47.14      0.00
   -1    3    1     46.37      0.00
    0    3    1     43.36      0.00
   -1    4    1     -7.13      0.00
    0    4    1     57.03      0.00
   -2    5    1     10.42      0.00
   -1    5    1    -21.70      0.00
    0    5    1     30.28      0.00
   -2    6    1    -16.18      0.00
   -1    6    1    -19.87      0.00
    0    6    1     -7.41      0.00
   -3    7    1      8.30      0.00
   -2    7    1      8.91      0.00
   -1    7    1      0.59      0.00
    0    7    1     -2.55      0.00
   -3    8    1     -2.22      0.00
   -2    8    1      6.99      0.00
   -1    8    1    -11.73      0.00
    0    8    1     -3.87      0.00
   -4    9    1     -1.54      0.00
   -3    9    1      2.86      0.00
   -2    9    1     -0.88      0.00
   -1    9    1      3.04      0.00
    0    9    1     -7.38      0.00
   -4   10    1      2.17      0.00
   -3   10    1     -1.49      0.00
   -2   10    1      0.79      0.00
   -1   10    1     -0.84      0.00
    0   10    1      5.05      0.00
   -5   11    1     -0.59      0.00
   -4   11    1      1.53      0.00
   -3   11    1      1.32      0.00
   -2   11    1      6.72      0.00
   -1   11    1      0.18      0.00
    0   11    1      4.35      0.00
   -5   12    1     -1.16      0.00
   -4   12    1      3.62      0.00
   -3   12    1      1.42      0.00
   -2   12    1      4.63      0.00
   -1   12    1     -7.65      0.00
    0   12    1      0.84      0.00
   -6   13    1      0.89      0.00
   -5   13    1     -2.14      0.00
   -4   13    1      1.15      0.00
   -3   13    1     -3.17      0.00
   -2   13    1      1.04      0.00
   -1   13    1     -2.79      0.00
    0   13    1     -1.99      0.00
   -6   14    1      2.34      0.00
   -5   14    1      1.14      0.00
   -4   14    1     -7.24      0.00
   -3   14    1     -5.83      0.00
   -2   14    1      1.88      0.00
   -1   14    1      3.43      0.00
    0   14    1      4.85      0.00
   -7   15    1     -0.12      0.00
   -6   15    1      1.79      0.00
   -5   15    1     -2.75      0.00
   -4   15    1      2.76      0.00
   -3   15    1     -6.01      0.00
   -2   15    1      5.24      0.00
   -1   15    1      3.02      0.00
    0   15    1     -0.48      0.00
   -7   16    1     -0.02      0.00
   -6   16    1     -2.15      0.00
   -5   16    1      2.12      0.00
   -4   16    1     -0.19      0.00
   -3   16    1      3.03      0.00
   -2   16    1     -2.32      0.00
   -1   16    1     -0.45      0.00
    0   16    1     -1.55      0.00
   -8   17    1     -4.91      0.00
   -7   17    1      1.89      0.00
   -6   17    1     -0.20      0.00
   -5   17    1     -4.93      0.00
   -4   17    1      0.44      0.00
   -3   17    1     -3.89      0.00
   -2   17    1     -0.19      0.00
   -1   17    1      0.24      0.00
    0   17    1      2.57      0.00
   -8   18    1     -3.63      0.00
   -7   18    1      5.81      0.00
   -6   18    1     -1.13      0.00
   -5   18    1      0.31      0.00
   -4   18    1     -3.17      0.00
   -3   18    1     -0.07      0.00
   -2   18    1      2.53      0.00
   -1   18    1      0.66      0.00
    0   18    1      2.03      0.00
   -9   19    1      3.59      0.00
   -8   19    1      1.93      0.00
   -7   19    1      1.26      0.00
   -6   19    1     -2.94      0.00
   -5   19    1     -3.23      0.00
   -4   19    1     -3.66      0.00
   -3   19    1     -1.59      0.00
   -2   19    1      2.04      0.00
   -1   19    1     -2.31      0.00
    0   19    1      0.31      0.00
   -9   20    1     -1.75      0.00
   -8   20    1      2.55      0.00
   -7   20    1     -1.37      0.00
   -6   20    1      1.08      0.00
   -5   20    1     -2.44      0.00
   -4   20    1      5.19      0.00
   -3   20    1      3.72      0.00
   -2   20    1      0.45      0.00
   -1   20    1      5.91      0.00
    0   20    1     -0.74      0.00
  -10   21    1     -5.59      0.00
   -9   21    1      0.90      0.00
   -8   21    1      0.64      0.00
   -7   21    1      1.89      0.00
   -6   21    1      2.83      0.00
   -5   21    1     -4.54      0.00
   -4   21    1      0.11      0.00
   -3   21    1     -1.15      0.00
   -2   21    1      1.12      0.00
   -1   21    1      1.23      0.00
    0   21    1     -5.00      0.00
  -10   22    1      1.34      0.00
   -9   22    1     -2.04      0.00
   -8   22    1      5.99      0.00
   -7   22    1     -2.67      0.00
   -6   22    1      2.03      0.00
   -5   22    1     -4.60      0.00
   -4   22    1      1.93      0.00
   -3   22    1      3.08      0.00
   -2   22    1     -3.70      0.00
   -1   22    1      0.96      0.00
    0   22    1     -3.66      0.00
  -11   23    1      1.79      0.00
  -10   23    1      4.21      0.00
   -9   23    1      5.43      0.00
   -8   23    1      5.19      0.00
   -7   23    1     -2.63      0.00
   -6   23    1     -1.32      0.00
   -5   23    1     -2.30      0.00
   -4   23    1      0.94      0.00
   -3   23    1      0.23      0.00
   -2   23    1     -0.88      0.00
   -1   23    1      3.84      0.00
    0   23    1      1.78      0.00
  -11   24    1     -0.63      0.00
  -10   24    1     -0.80      0.00
   -9   24    1      0.21      0.00
   -8   24    1      0.93      0.00
   -7   24    1     -2.59      0.00
   -6   24    1      4.17      0.00
   -5   24    1     -3.44      0.00
   -4   24    1      0.84      0.00
   -3   24    1     -1.19      0.00
   -2   24    1     -4.06      0.00
  -12   25    1      2.03      0.00
  -11   25    1      3.13      0.00
  -10   25    1      2.58      0.00
   -9   25    1      1.67      0.00
   -8   25    1     -0.20      0.00
   -7   25    1     -5.97      0.00
   -6   25    1     -4.38      0.00
   -5   25    1     -0.28      0.00
   -4   25    1     -2.07      0.00
  -12   26    1      0.48      0.00
  -11   26    1     -2.13      0.00
  -10   26    1      0.81      0.00
   -9   26    1     -1.33      0.00
   -8   26    1      0.54      0.00
   -7   26    1     -0.37      0.00
  -13   27    1     -3.21      0.00
  -12   27    1      3.59      0.00
    0    1    2   -136.66      0.00
   -1    2    2    186.62      0.00
    0    2    2    -92.02      0.00
   -1    3    2    111.41      0.00
    0    3    2    -70.03      0.00
   -2    4    2     24.62      0.00
   -1    4    2     22.56      0.00
    0    4    2     19.88      0.00
   -2    5    2     -8.42      0.00
   -1    5    2     47.57      0.00
    0    5    2      7.36      0.00
   -3    6    2     35.15      0.00
   -2    6    2    -25.95      0.00
   -1    6    2     14.76      0.00
    0    6    2     30.43      0.00
   -3    7    2     17.85      0.00
   -2    7    2      9.67      0.00
   -1    7    2     10.04      0.00
    0    7    2    -13.80      0.00
   -4    8    2     -2.78      0.00
   -3    8    2     -8.43      0.00
   -2    8    2     25.13      0.00
   -1    8    2    -13.16      0.00
    0    8    2      8.87      0.00
   -4    9    2     20.89      0.00
   -3    9    2     -2.95      0.00
   -2    9    2      6.51      0.00
   -1    9    2     -0.85      0.00
    0    9    2      7.92      0.00
   -5   10    2     10.39      0.00
   -4   10    2     -9.11      0.00
   -3   10    2     11.70      0.00
   -2   10    2     -0.17      0.00
   -1   10    2      7.70      0.00
    0   10    2     -5.20      0.00
   -5   11    2     -0.86      0.00
   -4   11    2      9.85      0.00
   -3   11    2     -0.83      0.00
   -2   11    2     -0.19      0.00
   -1   11    2      0.83      0.00
    0   11    2     -3.20      0.00
   -6   12    2      6.27      0.00
   -5   12    2      0.23      0.00
   -4   12    2     -2.79      0.00
   -3   12    2      1.11      0.00
   -2   12    2      1.69      0.00
   -1   12    2     -0.08      0.00
    0   12    2      1.22      0.00
   -6   13    2     -7.41      0.00
   -5   13    2     -0.56      0.00
   -4   13    2      8.39      0.00
   -3   13    2     -2.16      0.00
   -2   13    2     -1.51      0.00
   -1   13    2     -2.87      0.00
    0   13    2     -3.48      0.00
   -7   14    2     -0.10      0.00
   -6   14    2      4.58      0.00
   -5   14    2     -2.54      0.00
   -4   14    2     -5.43      0.00
   -3   14    2      1.36      0.00
   -2   14    2     -0.62      0.00
   -1   14    2      0.43      0.00
    0   14    2     -0.57      0.00
   -7   15    2      0.05      0.00
   -6   15    2     -3.87      0.00
   -5   15    2      1.09      0.00
   -4   15    2      2.57      0.00
   -3   15    2     -0.69      0.00
   -2   15    2      1.52      0.00
   -1   15    2     -3.22      0.00
    0   15    2      1.54      0.00
   -8   16    2     -2.97      0.00
   -7   16    2      1.76      0.00
   -6   16    2     -0.02      0.00
   -5   16    2      2.26      0.00
   -4   16    2     -4.09      0.00
   -3   16    2      0.85      0.00
   -2   16    2     -3.55      0.00
   -1   16    2      2.53      0.00
    0   16    2      2.19      0.00
   -8   17    2     -4.31      0.00
   -7   17    2      3.46      0.00
   -6   17    2     -1.77      0.00
   -5   17    2     -1.10      0.00
   -4   17    2     -1.38      0.00
   -3   17    2     -4.16      0.00
   -2   17    2      0.24      0.00
   -1   17    2     -1.12      0.00
    0   17    2     -3.47      0.00
   -9   18    2      3.39      0.00
   -8   18    2     -1.66      0.00
   -7   18    2      0.31      0.00
   -6   18    2     -0.02      0.00
   -5   18    2      3.47      0.00
   -4   18    2     -1.39      0.00
   -3   18    2      4.28      0.00
   -2   18    2     -1.46      0.00
   -1   18    2     -1.32      0.00
    0   18    2     -1.72      0.00
   -9   19    2      1.96      0.00
   -8   19    2     -2.03      0.00
   -7   19    2      2.52      0.00
   -6   19    2     -4.65      0.00
   -5   19    2     -1.57      0.00
   -4   19    2      1.60      0.00
   -3   19    2      2.45      0.00
   -2   19    2      1.93      0.00
   -1   19    2      0.78      0.00
    0   19    2      3.59      0.00
  -10   20    2     -1.51      0.00
   -9   20    2     -5.99      0.00
   -8   20    2     -2.17      0.00
   -7   20    2     -0.56      0.00
   -6   20    2      1.70      0.00
   -5   20    2     -1.07      0.00
   -4   20    2      1.59      0.00
   -3   20    2     -1.79      0.00
   -2   20    2      0.23      0.00
   -1   20    2     -0.50      0.00
    0   20    2      1.63      0.00
  -10   21    2     -1.74      0.00
   -9   21    2     -3.44      0.00
   -8   21    2     -4.68      0.00
   -7   21    2      1.31      0.00
   -6   21    2     -1.90      0.00
   -5   21    2     -2.96      0.00
   -4   21    2     -3.60      0.00
   -3   21    2      3.84      0.00
   -2   21    2      2.46      0.00
   -1   21    2     -0.86      0.00
    0   21    2      0.53      0.00
  -11   22    2     -0.27      0.00
  -10   22    2     -0.71      0.00
   -9   22    2      0.82      0.00
   -8   22    2      1.37      0.00
   -7   22    2      0.86      0.00
   -6   22    2      2.39      0.00
   -5   22    2     -3.35      0.00
   -4   22    2      1.75      0.00
   -3   22    2      2.05      0.00
   -2   22    2     -0.17      0.00
   -1   22    2     -1.71      0.00
    0   22    2     -0.11      0.00
  -11   23    2      1.88      0.00
  -10   23    2     -0.20      0.00
   -9   23    2     -4.34      0.00
   -8   23    2     -3.04      0.00
   -7   23    2     -2.05      0.00
   -6   23    2      1.24      0.00
   -5   23    2      0.87      0.00
   -4   23    2      0.95      0.00
   -3   23    2      3.26      0.00
   -2   23    2      2.71      0.00
   -1   23    2     -1.04      0.00
    0   23    2     -2.93      0.00
  -12   24    2     -2.42      0.00
  -11   24    2      1.79      0.00
  -10   24    2     -1.23      0.00
   -9   24    2      4.48      0.00
   -8   24    2      0.14      0.00
   -7   24    2     -0.58      0.00
   -6   24    2      5.17      0.00
   -5   24    2     -1.60      0.00
   -4   24    2     -1.69      0.00
   -3   24    2     -2.03      0.00
   -2   24    2     -5.55      0.00
  -12   25    2      1.48      0.00
  -11   25    2     -0.54      0.00
  -10   25    2     -3.54      0.00
   -9   25    2     -0.97      0.00
   -8   25    2      0.71      0.00
   -7   25    2     -2.35      0.00
   -6   25    2      1.17      0.00
   -5   25    2      3.17      0.00
   -4   25    2      4.01      0.00
  -13   26    2     -1.51      0.00
  -12   26    2      0.18      0.00
  -11   26    2     -3.24      0.00
  -10   26    2      2.21      0.00
   -9   26    2      2.88      0.00
   -8   26    2      1.05      0.00
   -7   26    2      3.14      0.00
  -13   27    2      2.74      0.00
  -12   27    2      1.86      0.00
    0    1    3    -65.37      0.00
    0    2    3   -132.06      0.00
   -1    3    3     78.52      0.00
    0    3    3    -80.26      0.00
   -1    4    3     40.05      0.00
    0    4    3    -13.00      0.00
   -2    5    3     23.32      0.00
   -1    5    3    -15.29      0.00
    0    5    3     30.68      0.00
   -2    6    3    -24.85      0.00
   -1    6    3      6.61      0.00
    0    6    3    -16.28      0.00
   -3    7    3     -1.04      0.00
   -2    7    3      6.92      0.00
   -1    7    3      9.00      0.00
    0    7    3    -25.40      0.00
   -3    8    3    -16.18      0.00
   -2    8    3     14.58      0.00
   -1    8    3     -5.72      0.00
    0    8    3      0.66      0.00
   -4    9    3      4.82      0.00
   -3    9    3      3.76      0.00
   -2    9    3     -9.66      0.00
   -1    9    3      9.82      0.00
    0    9    3    -13.80      0.00
   -4   10    3     -2.52      0.00
   -3   10    3      2.53      0.00
   -2   10    3     -5.35      0.00
   -1   10    3      4.17      0.00
    0   10    3     -1.24      0.00
   -5   11    3    -12.44      0.00
   -4   11    3      0.53      0.00
   -3   11    3      4.97      0.00
   -2   11    3     -5.38      0.00
   -1   11    3      5.11      0.00
    0   11    3      6.96      0.00
   -5   12    3      5.12      0.00
   -4   12    3     -1.46      0.00
   -3   12    3      0.38      0.00
   -2   12    3     -6.10      0.00
   -1   12    3     -3.79      0.00
    0   12    3     -4.58      0.00
   -6   13    3      2.28      0.00
   -5   13    3     -1.43      0.00
   -4   13    3     -6.07      0.00
   -3   13    3     -4.79      0.00
   -2   13    3     -1.29      0.00
   -1   13    3      7.95      0.00
    0   13    3      1.62      0.00
   -6   14    3     -2.11      0.00
   -5   14    3      6.33      0.00
   -4   14    3     -4.68      0.00
   -3   14    3     -6.57      0.00
   -2   14    3     -1.44      0.00
   -1   14    3     -4.43      0.00
    0   14    3      5.06      0.00
   -7   15    3      3.69      0.00
   -6   15    3     -5.33      0.00
   -5   15    3      0.28      0.00
   -4   15    3     -4.77      0.00
   -3   15    3      4.10      0.00
   -2   15    3      3.79      0.00
   -1   15    3      0.18      0.00
    0   15    3     -0.62      0.00
   -7   16    3      2.16      0.00
   -6   16    3      0.09      0.00
   -5   16    3     -4.13      0.00
   -4   16    3      1.44      0.00
   -3   16    3     -4.57      0.00
   -2   16    3     -0.19      0.00
   -1   16    3     -2.35      0.00
    0   16    3      4.26      0.00
   -8   17    3      5.93      0.00
   -7   17    3      0.32      0.00
   -6   17    3     -1.57      0.00
   -5   17    3      0.72      0.00
   -4   17    3      0.53      0.00
   -3   17    3      2.67      0.00
   -2   17    3      0.47      0.00
   -1   17    3      3.22      0.00
    0   17    3     -3.77      0.00
   -8   18    3     -0.10      0.00
   -7   18    3      2.85      0.00
   -6   18    3      2.33      0.00
   -5   18    3     -2.16      0.00
   -4   18    3      0.94      0.00
   -3   18    3     -0.93      0.00
   -2   18    3     -2.05      0.00
   -1   18    3     -0.65      0.00
    0   18    3      6.57      0.00
   -9   19    3     -2.59      0.00
   -8   19    3      0.78      0.00
   -7   19    3     -1.73      0.00
   -6   19    3     -1.67      0.00
   -5   19    3      0.27      0.00
   -4   19    3      2.52      0.00
   -3   19    3     -0.70      0.00
   -2   19    3      3.50      0.00
   -1   19    3      1.88      0.00
    0   19    3     -2.07      0.00
   -9   20    3      2.43      0.00
   -8   20    3      5.12      0.00
   -7   20    3     -0.59      0.00
   -6   20    3     -2.99      0.00
   -5   20    3      2.30      0.00
   -4   20    3     -3.21      0.00
   -3   20    3     -1.85      0.00
   -2   20    3     -2.65      0.00
   -1   20    3     -2.48      0.00
    0   20    3      2.23      0.00
  -10   21    3      4.48      0.00
   -9   21    3     -1.35      0.00
   -8   21    3      0.26      0.00
   -7   21    3      0.99      0.00
   -6   21    3     -2.14      0.00
   -5   21    3      3.37      0.00
   -4   21    3     -1.32      0.00
   -3   21    3      2.61      0.00
   -2   21    3     -0.64      0.00
   -1   21    3      3.90      0.00
    0   21    3     -1.69      0.00
  -10   22    3     -1.02      0.00
   -9   22    3      1.12      0.00
   -8   22    3     -0.90      0.00
   -7   22    3      3.71      0.00
   -6   22    3     -4.52      0.00
   -5   22    3      4.60      0.00
   -4   22    3     -4.70      0.00
   -3   22    3      0.26      0.00
   -2   22    3      2.29      0.00
   -1   22    3     -3.24      0.00
    0   22    3      1.08      0.00
  -11   23    3     -0.49      0.00
  -10   23    3     -1.40      0.00
   -9   23    3     -2.60      0.00
   -8   23    3     -3.89      0.00
   -7   23    3      1.71      0.00
   -6   23    3      3.22      0.00
   -5   23    3      2.66      0.00
   -4   23    3     -0.19      0.00
   -3   23    3     -2.58      0.00
   -2   23    3     -1.00      0.00
   -1   23    3     -2.61      0.00
    0   23    3      0.22      0.00
  -11   24    3      1.53      0.00
  -10   24    3      0.85      0.00
   -9   24    3      2.01      0.00
   -8   24    3      2.56      0.00
   -7   24    3      1.36      0.00
   -6   24    3     -3.64      0.00
   -5   24    3      0.01      0.00
   -4   24    3     -0.23      0.00
   -3   24    3      1.47      0.00
   -2   24    3      4.25      0.00
  -12   25    3     -3.05      0.00
  -11   25    3      3.46      0.00
  -10   25    3     -2.73      0.00
   -9   25    3     -5.46      0.00
   -8   25    3      0.43      0.00
   -7   25    3      4.20      0.00
   -6   25    3      3.80      0.00
   -5   25    3     -2.63      0.00
   -4   25    3     -0.64      0.00
  -12   26    3      0.93      0.00
  -11   26    3      2.05      0.00
  -10   26    3      1.63      0.00
   -9   26    3      1.53      0.00
   -8   26    3     -1.69      0.00
   -7   26    3      0.64      0.00
  -12   27    3     -2.52      0.00
    0    0    4     34.19      0.00
    0    1    4    -86.06      0.00
   -1    2    4    -29.17      0.00
    0    2    4     12.73      0.00
   -1    3    4     68.46      0.00
    0    3    4    -18.62      0.00
   -2    4    4      4.73      0.00
   -1    4    4     18.46      0.00
    0    4    4     78.65      0.00
   -2    5    4     33.60      0.00
   -1    5    4    -18.70      0.00
    0    5    4    -20.92      0.00
   -3    6    4     19.69      0.00
   -2    6    4     -3.30      0.00
   -1    6    4    -13.27      0.00
    0    6    4     -9.43      0.00
   -3    7    4     -1.87      0.00
   -2    7    4     13.27      0.00
   -1    7    4     -3.25      0.00
    0    7    4     -7.82      0.00
   -4    8    4     -8.17      0.00
   -3    8    4     -0.28      0.00
   -2    8    4     10.73      0.00
   -1    8    4      1.76      0.00
    0    8    4     20.36      0.00
   -4    9    4     12.63      0.00
   -3    9    4    -12.89      0.00
   -2    9    4     10.07      0.00
   -1    9    4      1.43      0.00
    0    9    4      2.87      0.00
   -5   10    4      2.03      0.00
   -4   10    4      0.55      0.00
   -3   10    4      4.77      0.00
   -2   10    4      9.37      0.00
   -1   10    4      5.89      0.00
    0   10    4     -4.57      0.00
   -5   11    4     -0.31      0.00
   -4   11    4      7.45      0.00
   -3   11    4      8.95      0.00
   -2   11    4     -3.12      0.00
   -1   11    4      0.99      0.00
    0   11    4     -4.01      0.00
   -6   12    4     10.21      0.00
   -5   12    4      3.06      0.00
   -4   12    4      1.87      0.00
   -3   12    4     -2.41      0.00
   -2   12    4     -2.84      0.00
   -1   12    4      4.29      0.00
    0   12    4     -0.96      0.00
   -6   13    4      3.61      0.00
   -5   13    4     -2.60      0.00
   -4   13    4      5.87      0.00
   -3   13    4      1.30      0.00
   -2   13    4     -0.30      0.00
   -1   13    4      3.85      0.00
    0   13    4      1.70      0.00
   -7   14    4     -3.98      0.00
   -6   14    4      8.56      0.00
   -5   14    4      0.45      0.00
   -4   14    4     -1.26      0.00
   -3   14    4      3.57      0.00
   -2   14    4      3.27      0.00
   -1   14    4      2.30      0.00
    0   14    4      2.15      0.00
   -7   15    4     -0.05      0.00
   -6   15    4     -3.25      0.00
   -5   15    4      2.26      0.00
   -4   15    4      0.86      0.00
   -3   15    4      3.23      0.00
   -2   15    4     -2.89      0.00
   -1   15    4      0.02      0.00
    0   15    4     -2.10      0.00
   -8   16    4      0.27      0.00
   -7   16    4      1.45      0.00
   -6   16    4      4.30      0.00
   -5   16    4     -2.01      0.00
   -4   16    4     -1.58      0.00
   -3   16    4     -0.89      0.00
   -2   16    4      0.34      0.00
   -1   16    4     -0.61      0.00
    0   16    4      1.61      0.00
   -8   17    4     10.50      0.00
   -7   17    4      1.87      0.00
   -6   17    4      0.09      0.00
   -5   17    4     -0.67      0.00
   -4   17    4      0.72      0.00
   -3   17    4      0.61      0.00
   -2   17    4      0.55      0.00
   -1   17    4     -2.11      0.00
    0   17    4      2.51      0.00
   -9   18    4      4.51      0.00
   -8   18    4      6.27      0.00
   -7   18    4      2.22      0.00
   -6   18    4     -2.27      0.00
   -5   18    4      2.56      0.00
   -4   18    4      0.54      0.00
   -3   18    4     -0.61      0.00
   -2   18    4      1.59      0.00
   -1   18    4     -1.77      0.00
    0   18    4      3.73      0.00
   -9   19    4     -0.86      0.00
   -8   19    4      5.29      0.00
   -7   19    4     -2.00      0.00
   -6   19    4      4.28      0.00
   -5   19    4      0.57      0.00
   -4   19    4      0.23      0.00
   -3   19    4     -6.07      0.00
   -2   19    4     -0.40      0.00
   -1   19    4     -1.54      0.00
    0   19    4     -6.03      0.00
  -10   20    4      2.17      0.00
   -9   20    4      6.50      0.00
   -8   20    4      1.83      0.00
   -7   20    4     -0.52      0.00
   -6   20    4      0.05      0.00
   -5   20    4      2.20      0.00
   -4   20    4     -2.76      0.00
   -3   20    4      0.94      0.00
   -2   20    4     -3.11      0.00
   -1   20    4      2.50      0.00
    0   20    4     -0.08      0.00
  -10   21    4      0.98      0.00
   -9   21    4      0.05      0.00
   -8   21    4      0.99      0.00
   -7   21    4      0.84      0.00
   -6   21    4      2.15      0.00
   -5   21    4     -0.85      0.00
   -4   21    4      5.64      0.00
   -3   21    4     -0.05      0.00
   -2   21    4      4.59      0.00
   -1   21    4      1.31      0.00
    0   21    4     -4.24      0.00
  -11   22    4     -2.16      0.00
  -10   22    4     -1.11      0.00
   -9   22    4     -2.33      0.00
   -8   22    4      2.85      0.00
   -7   22    4     -4.46      0.00
   -6   22    4      1.28      0.00
   -5   22    4      5.41      0.00
   -4   22    4     -1.02      0.00
   -3   22    4      0.63      0.00
   -2   22    4     -2.12      0.00
   -1   22    4      2.44      0.00
    0   22    4      1.42      0.00
  -11   23    4     -3.93      0.00
  -10   23    4      0.67      0.00
   -9   23    4      1.44      0.00
   -8   23    4      1.74      0.00
   -7   23    4      2.47      0.00
   -6   23    4      2.74      0.00
   -5   23    4      1.47      0.00
   -4   23    4     -0.71      0.00
   -3   23    4     -5.26      0.00
   -2   23    4      0.00      0.00
   -1   23    4      3.46      0.00
    0   23    4     -1.00      0.00
  -12   24    4      1.76      0.00
  -11   24    4     -1.95      0.00
  -10   24    4     -1.84      0.00
   -9   24    4     -0.35      0.00
   -8   24    4     -3.50      0.00
   -7   24    4     -1.79      0.00
   -6   24    4     -3.64      0.00
   -5   24    4      4.31      0.00
   -4   24    4     -0.21      0.00
   -3   24    4      3.73      0.00
   -2   24    4      1.70      0.00
  -12   25    4     -3.56      0.00
  -11   25    4      0.78      0.00
  -10   25    4      1.22      0.00
   -9   25    4      0.45      0.00
   -8   25    4      0.96      0.00
   -7   25    4      3.29      0.00
   -6   25    4     -5.04      0.00
   -5   25    4     -2.15      0.00
   -4   25    4     -3.69      0.00
  -13   26    4      0.17      0.00
  -12   26    4      1.98      0.00
  -11   26    4      2.17      0.00
  -10   26    4     -0.82      0.00
   -9   26    4     -7.00      0.00
   -8   26    4     -0.87      0.00
   -7   26    4     -1.30      0.00
    0    1    5     29.33      0.00
    0    2    5     18.06      0.00
   -1    3    5     32.42      0.00
    0    3    5      8.44      0.00
   -1    4    5    -43.75      0.00
    0    4    5     47.12      0.00
   -2    5    5     -6.58      0.00
   -1    5    5    -43.47      0.00
    0    5    5     68.27      0.00
   -2    6    5     10.81      0.00
   -1    6    5    -70.75      0.00
    0    6    5     10.17      0.00
   -3    7    5     12.50      0.00
   -2    7    5     18.08      0.00
   -1    7    5     14.13      0.00
    0    7    5     -1.04      0.00
   -3    8    5    -26.43      0.00
   -2    8    5      5.08      0.00
   -1    8    5     -9.60      0.00
    0    8    5      6.47      0.00
   -4    9    5     -4.57      0.00
   -3    9    5      7.26      0.00
   -2    9    5      1.07      0.00
   -1    9    5     15.36      0.00
    0    9    5     -5.30      0.00
   -4   10    5      1.81      0.00
   -3   10    5     -2.35      0.00
   -2   10    5     -5.16      0.00
   -1   10    5     -3.68      0.00
    0   10    5     -2.01      0.00
   -5   11    5     -7.92      0.00
   -4   11    5      7.21      0.00
   -3   11    5     -2.46      0.00
   -2   11    5     -7.15      0.00
   -1   11    5     -1.05      0.00
    0   11    5      2.02      0.00
   -5   12    5      3.73      0.00
   -4   12    5     -5.36      0.00
   -3   12    5      2.01      0.00
   -2   12    5      5.91      0.00
   -1   12    5     -5.75      0.00
    0   12    5      5.86      0.00
   -6   13    5      2.26      0.00
   -5   13    5     -5.60      0.00
   -4   13    5     -1.67      0.00
   -3   13    5      3.94      0.00
   -2   13    5      2.82      0.00
   -1   13    5      4.22      0.00
    0   13    5     -5.13      0.00
   -6   14    5     -1.89      0.00
   -5   14    5      4.41      0.00
   -4   14    5      3.37      0.00
   -3   14    5      6.23      0.00
   -2   14    5     -1.49      0.00
   -1   14    5     -1.96      0.00
    0   14    5      3.41      0.00
   -7   15    5      2.01      0.00
   -6   15    5     -3.59      0.00
   -5   15    5     -1.28      0.00
   -4   15    5     -0.17      0.00
   -3   15    5     -1.91      0.00
   -2   15    5     -2.27      0.00
   -1   15    5      2.56      0.00
    0   15    5      0.63      0.00
   -7   16    5     -3.58      0.00
   -6   16    5     -0.26      0.00
   -5   16    5      0.14      0.00
   -4   16    5     -0.46      0.00
   -3   16    5      0.15      0.00
   -2   16    5      0.13      0.00
   -1   16    5      2.39      0.00
    0   16    5      3.09      0.00
   -8   17    5     -0.14      0.00
   -7   17    5      1.50      0.00
   -6   17    5      1.05      0.00
   -5   17    5     -4.88      0.00
   -4   17    5      2.67      0.00
   -3   17    5      1.62      0.00
   -2   17    5     -0.41      0.00
   -1   17    5     -3.00      0.00
    0   17    5     -3.82      0.00
   -8   18    5     -2.66      0.00
   -7   18    5     -2.75      0.00
   -6   18    5     -3.10      0.00
   -5   18    5      3.05      0.00
   -4   18    5     -1.00      0.00
   -3   18    5      0.56      0.00
   -2   18    5      2.03      0.00
   -1   18    5     -2.47      0.00
    0   18    5      0.68      0.00
   -9   19    5      4.88      0.00
   -8   19    5     -3.19      0.00
   -7   19    5      1.96      0.00
   -6   19    5      6.16      0.00
   -5   19    5     -2.85      0.00
   -4   19    5     -3.52      0.00
   -3   19    5     -3.76      0.00
   -2   19    5     -0.78      0.00
   -1   19    5     -1.92      0.00
    0   19    5      1.66      0.00
   -9   20    5      0.15      0.00
   -8   20    5     -1.84      0.00
   -7   20    5     -4.02      0.00
   -6   20    5     -0.52      0.00
   -5   20    5     -3.50      0.00
   -4   20    5      2.76      0.00
   -3   20    5      2.67      0.00
   -2   20    5     -1.28      0.00
   -1   20    5     -6.40      0.00
    0   20    5     -3.76      0.00
  -10   21    5     -4.99      0.00
   -9   21    5     -1.17      0.00
   -8   21    5      0.43      0.00
   -7   21    5     -5.45      0.00
   -6   21    5      3.40      0.00
   -5   21    5     -6.32      0.00
   -4   21    5     -3.53      0.00
   -3   21    5     -3.60      0.00
   -2   21    5     -0.49      0.00
   -1   21    5      2.18      0.00
    0   21    5     -2.43      0.00
  -10   22    5      1.31      0.00
   -9   22    5     -0.74      0.00
   -8   22    5      2.28      0.00
   -7   22    5     -2.53      0.00
   -6   22    5     -0.21      0.00
   -5   22    5     -1.04      0.00
   -4   22    5     -1.58      0.00
   -3   22    5      0.94      0.00
   -2   22    5     -4.22      0.00
   -1   22    5      2.00      0.00
    0   22    5     -2.28      0.00
  -11   23    5      0.52      0.00
  -10   23    5      1.46      0.00
   -9   23    5      4.71      0.00
   -8   23    5     -0.20      0.00
   -7   23    5     -2.76      0.00
   -6   23    5      1.22      0.00
   -5   23    5     -3.08      0.00
   -4   23    5     -0.01      0.00
   -3   23    5     -1.89      0.00
   -2   23    5     -0.56      0.00
   -1   23    5      4.75      0.00
    0   23    5      0.03      0.00
  -11   24    5     -1.66      0.00
  -10   24    5     -1.74      0.00
   -9   24    5      0.80      0.00
   -8   24    5      2.87      0.00
   -7   24    5     -4.43      0.00
   -6   24    5      1.95      0.00
   -5   24    5     -3.25      0.00
   -4   24    5      2.10      0.00
   -3   24    5      0.94      0.00
   -2   24    5     -4.58      0.00
  -12   25    5      2.82      0.00
  -11   25    5      0.13      0.00
  -10   25    5      3.72      0.00
   -9   25    5      2.97      0.00
   -8   25    5     -1.60      0.00
   -7   25    5      1.26      0.00
   -6   25    5     -2.89      0.00
   -5   25    5      2.49      0.00
   -4   25    5     -1.62      0.00
  -12   26    5      0.94      0.00
  -11   26    5     -2.85      0.00
  -10   26    5      0.83      0.00
   -9   26    5      1.78      0.00
   -8   26    5     -3.43      0.00
    0    0    6    -48.21      0.00
    0    1    6     31.59      0.00
   -1    2    6      2.40      0.00
    0    2    6     -8.62      0.00
   -1    3    6     -0.27      0.00
    0    3    6      1.73      0.00
   -2    4    6    -14.92      0.00
   -1    4    6      1.85      0.00
    0    4    6     83.52      0.00
   -2    5    6      3.53      0.00
   -1    5    6    -20.54      0.00
    0    5    6     55.68      0.00
   -3    6    6      8.42      0.00
   -2    6    6      6.69      0.00
   -1    6    6     -0.09      0.00
    0    6    6    -11.75      0.00
   -3    7    6     -0.31      0.00
   -2    7    6     -6.88      0.00
   -1    7    6     16.03      0.00
    0    7    6     15.87      0.00
   -4    8    6    -15.26      0.00
   -3    8    6      6.37      0.00
   -2    8    6      2.56      0.00
   -1    8    6      0.09      0.00
    0    8    6      4.04      0.00
   -4    9    6      1.90      0.00
   -3    9    6     10.10      0.00
   -2    9    6     -4.52      0.00
   -1    9    6     -4.11      0.00
    0    9    6      7.60      0.00
   -5   10    6      0.36      0.00
   -4   10    6      5.45      0.00
   -3   10    6     -7.21      0.00
   -2   10    6     -0.40      0.00
   -1   10    6     -1.43      0.00
    0   10    6      3.72      0.00
   -5   11    6      0.78      0.00
   -4   11    6     -5.43      0.00
   -3   11    6      4.58      0.00
   -2   11    6     -0.41      0.00
   -1   11    6      0.50      0.00
    0   11    6      5.67      0.00
   -6   12    6    -12.48      0.00
   -5   12    6      8.46      0.00
   -4   12    6     -3.49      0.00
   -3   12    6      4.12      0.00
   -2   12    6      5.24      0.00
   -1   12    6      0.36      0.00
    0   12    6     -2.07      0.00
   -6   13    6     -2.01      0.00
   -5   13    6      2.13      0.00
   -4   13    6      4.62      0.00
   -3   13    6      0.82      0.00
   -2   13    6     -2.40      0.00
   -1   13    6     -5.83      0.00
    0   13    6      2.96      0.00
   -7   14    6     -2.41      0.00
   -6   14    6     -0.05      0.00
   -5   14    6     -2.68      0.00
   -4   14    6     -5.29      0.00
   -3   14    6      1.35      0.00
   -2   14    6     -1.17      0.00
   -1   14    6      2.85      0.00
    0   14    6      0.20      0.00
   -7   15    6      4.63      0.00
   -6   15    6     -0.72      0.00
   -5   15    6     -1.59      0.00
   -4   15    6      0.48      0.00
   -3   15    6     -1.19      0.00
   -2   15    6      1.22      0.00
   -1   15    6     -2.91      0.00
    0   15    6     -0.60      0.00
   -8   16    6      0.86      0.00
   -7   16    6     -1.58      0.00
   -6   16    6      4.90      0.00
   -5   16    6     -1.39      0.00
   -4   16    6      1.01      0.00
   -3   16    6      1.78      0.00
   -2   16    6     -2.97      0.00
   -1   16    6     -1.10      0.00
    0   16    6      0.45      0.00
   -8   17    6     -1.78      0.00
   -7   17    6     -2.29      0.00
   -6   17    6     -1.25      0.00
   -5   17    6      1.36      0.00
   -4   17    6     -1.16      0.00
   -3   17    6      1.84      0.00
   -2   17    6     -0.40      0.00
   -1   17    6     -0.71      0.00
    0   17    6      0.92      0.00
   -9   18    6     -1.98      0.00
   -8   18    6     -3.09      0.00
   -7   18    6     -1.43      0.00
   -6   18    6     -0.08      0.00
   -5   18    6      1.79      0.00
   -4   18    6      0.08      0.00
   -3   18    6     -2.99      0.00
   -2   18    6     -1.31      0.00
   -1   18    6      1.37      0.00
    0   18    6      0.67      0.00
   -9   19    6      3.89      0.00
   -8   19    6     -3.49      0.00
   -7   19    6      3.43      0.00
   -6   19    6     -4.24      0.00
   -5   19    6     -0.60      0.00
   -4   19    6     -1.28      0.00
   -3   19    6      4.09      0.00
   -2   19    6     -1.02      0.00
   -1   19    6     -0.19      0.00
    0   19    6      2.51      0.00
  -10   20    6     -9.35      0.00
   -9   20    6     -5.21      0.00
   -8   20    6     -1.27      0.00
   -7   20    6     -1.40      0.00
   -6   20    6      0.95      0.00
   -5   20    6      2.90      0.00
   -4   20    6      4.23      0.00
   -3   20    6     -2.99      0.00
   -2   20    6      1.06      0.00
   -1   20    6     -2.47      0.00
    0   20    6     -0.07      0.00
  -10   21    6      0.35      0.00
   -9   21    6      0.53      0.00
   -8   21    6      1.74      0.00
   -7   21    6     -0.36      0.00
   -6   21    6     -1.82      0.00
   -5   21    6     -0.47      0.00
   -4   21    6     -6.25      0.00
   -3   21    6      2.27      0.00
   -2   21    6     -4.77      0.00
   -1   21    6     -1.57      0.00
    0   21    6     -1.05      0.00
  -11   22    6      0.32      0.00
  -10   22    6     -0.62      0.00
   -9   22    6     -1.67      0.00
   -8   22    6      0.34      0.00
   -7   22    6     -0.22      0.00
   -6   22    6      1.68      0.00
   -5   22    6     -6.20      0.00
   -4   22    6      0.99      0.00
   -3   22    6     -2.42      0.00
   -2   22    6      2.96      0.00
   -1   22    6     -3.09      0.00
    0   22    6      2.44      0.00
  -11   23    6      1.86      0.00
  -10   23    6      0.07      0.00
   -9   23    6     -4.83      0.00
   -8   23    6     -4.90      0.00
   -7   23    6      0.24      0.00
   -6   23    6      0.44      0.00
   -5   23    6     -1.08      0.00
   -4   23    6     -0.12      0.00
   -3   23    6      5.06      0.00
   -2   23    6      2.35      0.00
   -1   23    6     -3.63      0.00
    0   23    6      0.03      0.00
  -12   24    6     -4.39      0.00
  -11   24    6      1.42      0.00
  -10   24    6     -5.03      0.00
   -9   24    6      8.14      0.00
   -8   24    6      1.70      0.00
   -7   24    6      0.20      0.00
   -6   24    6      4.74      0.00
   -5   24    6     -1.65      0.00
   -4   24    6      2.61      0.00
   -3   24    6     -2.36      0.00
   -2   24    6     -4.57      0.00
  -12   25    6      1.49      0.00
  -11   25    6      1.71      0.00
  -10   25    6     -3.07      0.00
   -9   25    6     -0.54      0.00
   -8   25    6      2.99      0.00
   -7   25    6     -2.23      0.00
   -6   25    6      2.88      0.00
   -5   25    6      3.44      0.00
  -13   26    6     -1.68      0.00
  -12   26    6     -1.69      0.00
  -11   26    6     -3.77      0.00
  -10   26    6      3.02      0.00
   -9   26    6      1.06      0.00
   -8   26    6      1.99      0.00
    0    1    7    -40.71      0.00
    0    2    7    -16.26      0.00
   -1    3    7    -23.22      0.00
    0    3    7    -60.57      0.00
   -1    4    7      8.72      0.00
    0    4    7     -9.05      0.00
   -2    5    7    -19.90      0.00
   -1    5    7      1.31      0.00
    0    5    7     12.41      0.00
   -2    6    7     14.64      0.00
   -1    6    7    -16.13      0.00
    0    6    7     -3.02      0.00
   -3    7    7      2.72      0.00
   -2    7    7     10.80      0.00
   -1    7    7     11.12      0.00
    0    7    7     -7.89      0.00
   -3    8    7    -11.96      0.00
   -2    8    7     -6.06      0.00
   -1    8    7     -2.27      0.00
    0    8    7     -5.74      0.00
   -4    9    7      4.61      0.00
   -3    9    7      5.87      0.00
   -2    9    7    -10.77      0.00
   -1    9    7     12.40      0.00
    0    9    7     -9.13      0.00
   -4   10    7     -0.92      0.00
   -3   10    7     -1.27      0.00
   -2   10    7     -1.77      0.00
   -1   10    7      4.72      0.00
    0   10    7     -6.74      0.00
   -5   11    7    -13.81      0.00
   -4   11    7      0.32      0.00
   -3   11    7     -0.34      0.00
   -2   11    7     -6.27      0.00
   -1   11    7      7.79      0.00
    0   11    7      2.11      0.00
   -5   12    7      2.84      0.00
   -4   12    7     -1.21      0.00
   -3   12    7      2.14      0.00
   -2   12    7     -4.16      0.00
   -1   12    7     -2.75      0.00
    0   12    7     -4.93      0.00
   -6   13    7     -2.00      0.00
   -5   13    7     -1.84      0.00
   -4   13    7     -2.88      0.00
   -3   13    7      1.76      0.00
   -2   13    7      3.82      0.00
   -1   13    7      4.42      0.00
    0   13    7      4.48      0.00
   -6   14    7     -0.80      0.00
   -5   14    7      5.90      0.00
   -4   14    7     -6.94      0.00
   -3   14    7     -2.19      0.00
   -2   14    7     -0.36      0.00
   -1   14    7     -4.53      0.00
    0   14    7      4.25      0.00
   -7   15    7     -0.32      0.00
   -6   15    7     -2.10      0.00
   -5   15    7      1.12      0.00
   -4   15    7      2.17      0.00
   -3   15    7      1.98      0.00
   -2   15    7      1.63      0.00
   -1   15    7     -1.56      0.00
    0   15    7      0.91      0.00
   -7   16    7      3.36      0.00
   -6   16    7     -0.42      0.00
   -5   16    7      3.72      0.00
   -4   16    7      1.49      0.00
   -3   16    7     -3.80      0.00
   -2   16    7      1.05      0.00
   -1   16    7     -0.70      0.00
    0   16    7      2.63      0.00
   -8   17    7      2.08      0.00
   -7   17    7      0.69      0.00
   -6   17    7     -1.08      0.00
   -5   17    7      1.50      0.00
   -4   17    7      0.13      0.00
   -3   17    7      2.82      0.00
   -2   17    7      2.05      0.00
   -1   17    7      5.07      0.00
    0   17    7     -4.65      0.00
   -8   18    7     -0.90      0.00
   -7   18    7     -0.26      0.00
   -6   18    7      2.10      0.00
   -5   18    7      0.42      0.00
   -4   18    7      2.33      0.00
   -3   18    7     -3.55      0.00
   -2   18    7      0.08      0.00
   -1   18    7     -1.55      0.00
    0   18    7     -2.16      0.00
   -9   19    7     -1.93      0.00
   -8   19    7     -1.58      0.00
   -7   19    7     -1.73      0.00
   -6   19    7      0.22      0.00
   -5   19    7      1.72      0.00
   -4   19    7      4.27      0.00
   -3   19    7     -0.74      0.00
   -2   19    7      0.60      0.00
   -1   19    7      3.10      0.00
    0   19    7     -4.84      0.00
   -9   20    7      2.50      0.00
   -8   20    7      0.47      0.00
   -7   20    7      0.71      0.00
   -6   20    7     -1.52      0.00
   -5   20    7      2.82      0.00
   -4   20    7      0.26      0.00
   -3   20    7     -0.39      0.00
   -2   20    7     -3.92      0.00
   -1   20    7     -2.00      0.00
    0   20    7      2.73      0.00
  -10   21    7      6.99      0.00
   -9   21    7     -0.14      0.00
   -8   21    7      0.59      0.00
   -7   21    7      1.26      0.00
   -6   21    7     -0.58      0.00
   -5   21    7      1.78      0.00
   -4   21    7     -6.72      0.00
   -3   21    7      2.07      0.00
   -2   21    7     -0.86      0.00
   -1   21    7      3.86      0.00
    0   21    7     -4.72      0.00
  -10   22    7      0.43      0.00
   -9   22    7     -0.35      0.00
   -8   22    7     -2.68      0.00
   -7   22    7      4.32      0.00
   -6   22    7     -6.09      0.00
   -5   22    7      1.42      0.00
   -4   22    7     -1.88      0.00
   -3   22    7     -0.56      0.00
   -2   22    7      0.47      0.00
   -1   22    7     -2.60      0.00
    0   22    7      1.58      0.00
  -11   23    7     -0.50      0.00
  -10   23    7      1.73      0.00
   -9   23    7     -2.61      0.00
   -8   23    7     -5.75      0.00
   -7   23    7      2.70      0.00
   -6   23    7      0.09      0.00
   -5   23    7      1.69      0.00
   -4   23    7      3.32      0.00
   -3   23    7     -3.01      0.00
   -2   23    7     -2.29      0.00
   -1   23    7     -2.65      0.00
    0   23    7      2.23      0.00
  -11   24    7      0.91      0.00
  -10   24    7      0.57      0.00
   -9   24    7     -0.68      0.00
   -8   24    7      3.13      0.00
   -7   24    7      0.19      0.00
   -6   24    7     -3.48      0.00
   -5   24    7      0.32      0.00
   -4   24    7      0.34      0.00
   -3   24    7      3.69      0.00
   -2   24    7      1.76      0.00
  -12   25    7     -2.23      0.00
  -11   25    7     -0.28      0.00
  -10   25    7      0.68      0.00
   -9   25    7     -5.45      0.00
   -8   25    7     -0.52      0.00
   -7   25    7      5.88      0.00
   -6   25    7      4.91      0.00
   -5   25    7      0.19      0.00
  -12   26    7      0.74      0.00
  -11   26    7      1.74      0.00
  -10   26    7      4.64      0.00
   -9   26    7      3.99      0.00
   -8   26    7      0.59      0.00
    0    0    8    141.35      0.00
    0    1    8     68.27      0.00
   -1    2    8     -6.99      0.00
    0    2    8     12.04      0.00
   -1    3    8     -5.07      0.00
    0    3    8      4.22      0.00
   -2    4    8    -18.14      0.00
   -1    4    8    -25.86      0.00
    0    4    8    -29.64      0.00
   -2    5    8      3.14      0.00
   -1    5    8     -7.35      0.00
    0    5    8     -0.53      0.00
   -3    6    8     14.67      0.00
   -2    6    8     19.05      0.00
   -1    6    8     11.59      0.00
    0    6    8    -34.54      0.00
   -3    7    8    -13.95      0.00
   -2    7    8      5.57      0.00
   -1    7    8     11.56      0.00
    0    7    8      4.40      0.00
   -4    8    8     14.07      0.00
   -3    8    8      6.29      0.00
   -2    8    8     -5.62      0.00
   -1    8    8     10.68      0.00
    0    8    8    -18.12      0.00
   -4    9    8     -6.74      0.00
   -3    9    8      5.86      0.00
   -2    9    8     -3.87      0.00
   -1    9    8      4.66      0.00
    0    9    8      5.27      0.00
   -5   10    8    -11.73      0.00
   -4   10    8     14.58      0.00
   -3   10    8      1.88      0.00
   -2   10    8      7.45      0.00
   -1   10    8      0.71      0.00
    0   10    8     -0.70      0.00
   -5   11    8      2.29      0.00
   -4   11    8     -0.07      0.00
   -3   11    8      2.92      0.00
   -2   11    8     -2.75      0.00
   -1   11    8      2.53      0.00
    0   11    8     -0.95      0.00
   -6   12    8      1.20      0.00
   -5   12    8      2.96      0.00
   -4   12    8     -0.59      0.00
   -3   12    8      0.87      0.00
   -2   12    8      1.83      0.00
   -1   12    8      6.54      0.00
    0   12    8     -4.44      0.00
   -6   13    8      5.32      0.00
   -5   13    8      1.02      0.00
   -4   13    8      1.01      0.00
   -3   13    8     -0.65      0.00
   -2   13    8     -0.05      0.00
   -1   13    8      2.24      0.00
    0   13    8     -0.25      0.00
   -7   14    8      4.61      0.00
   -6   14    8     -0.23      0.00
   -5   14    8      3.67      0.00
   -4   14    8      2.55      0.00
   -3   14    8     -0.72      0.00
   -2   14    8      1.66      0.00
   -1   14    8      1.13      0.00
    0   14    8     -4.45      0.00
   -7   15    8     -0.90      0.00
   -6   15    8     -0.49      0.00
   -5   15    8      1.07      0.00
   -4   15    8      0.52      0.00
   -3   15    8      2.17      0.00
   -2   15    8     -1.28      0.00
   -1   15    8      0.53      0.00
    0   15    8      2.85      0.00
   -8   16    8     -2.54      0.00
   -7   16    8     -2.36      0.00
   -6   16    8      2.34      0.00
   -5   16    8      1.28      0.00
   -4   16    8      0.81      0.00
   -3   16    8     -3.86      0.00
   -2   16    8      3.23      0.00
   -1   16    8      0.17      0.00
    0   16    8      3.14      0.00
   -8   17    8     -2.26      0.00
   -7   17    8     -0.63      0.00
   -6   17    8      0.01      0.00
   -5   17    8      0.68      0.00
   -4   17    8      2.45      0.00
   -3   17    8      3.71      0.00
   -2   17    8      9.51      0.00
   -1   17    8     -3.37      0.00
    0   17    8     -1.40      0.00
   -9   18    8      0.81      0.00
   -8   18    8      0.00      0.00
   -7   18    8      1.28      0.00
   -6   18    8      0.16      0.00
   -5   18    8     -1.09      0.00
   -4   18    8      1.91      0.00
   -3   18    8     -1.29      0.00
   -2   18    8      3.17      0.00
   -1   18    8      2.66      0.00
    0   18    8      0.43      0.00
   -9   19    8     -4.92      0.00
   -8   19    8      0.74      0.00
   -7   19    8      0.41      0.00
   -6   19    8      2.91      0.00
   -5   19    8      3.18      0.00
   -4   19    8      3.91      0.00
   -3   19    8      5.64      0.00
   -2   19    8      1.28      0.00
   -1   19    8     -1.12      0.00
    0   19    8     -1.95      0.00
  -10   20    8      7.46      0.00
   -9   20    8      5.43      0.00
   -8   20    8     -0.85      0.00
   -7   20    8      0.78      0.00
   -6   20    8     -1.77      0.00
   -5   20    8      0.83      0.00
   -4   20    8     -1.62      0.00
   -3   20    8      3.42      0.00
   -2   20    8     -2.00      0.00
   -1   20    8      1.99      0.00
    0   20    8     -4.81      0.00
  -10   21    8     -3.57      0.00
   -9   21    8     -1.62      0.00
   -8   21    8      0.03      0.00
   -7   21    8      0.69      0.00
   -6   21    8      0.44      0.00
   -5   21    8     -3.77      0.00
   -4   21    8      6.63      0.00
   -3   21    8     -2.44      0.00
   -2   21    8      2.71      0.00
   -1   21    8      2.20      0.00
    0   21    8     -1.89      0.00
  -11   22    8     -2.24      0.00
  -10   22    8      2.14      0.00
   -9   22    8     -2.78      0.00
   -8   22    8      2.25      0.00
   -7   22    8      3.81      0.00
   -6   22    8      2.14      0.00
   -5   22    8      3.07      0.00
   -4   22    8     -0.60      0.00
   -3   22    8      2.22      0.00
   -2   22    8     -6.12      0.00
   -1   22    8      2.33      0.00
    0   22    8     -3.74      0.00
  -11   23    8     -4.32      0.00
  -10   23    8      0.89      0.00
   -9   23    8      4.02      0.00
   -8   23    8     -1.41      0.00
   -7   23    8      4.70      0.00
   -6   23    8      1.97      0.00
   -5   23    8     -1.51      0.00
   -4   23    8     -0.46      0.00
   -3   23    8     -4.73      0.00
   -2   23    8     -1.60      0.00
   -1   23    8      2.03      0.00
  -12   24    8      1.16      0.00
  -11   24    8     -3.23      0.00
  -10   24    8     -0.85      0.00
   -9   24    8      2.46      0.00
   -8   24    8     -5.40      0.00
   -7   24    8     -1.64      0.00
   -6   24    8     -5.38      0.00
   -5   24    8      2.37      0.00
   -4   24    8     -1.59      0.00
   -3   24    8      2.90      0.00
  -12   25    8     -3.03      0.00
  -11   25    8     -1.01      0.00
  -10   25    8     -1.26      0.00
   -9   25    8     -1.04      0.00
   -8   25    8      0.58      0.00
   -7   25    8      3.29      0.00
   -6   25    8     -1.87      0.00
   -5   25    8     -1.36      0.00
  -13   26    8     -0.50      0.00
  -12   26    8      2.92      0.00
  -11   26    8      1.41      0.00
  -10   26    8      2.10      0.00
   -9   26    8     -1.01      0.00
    0    1    9    -18.45      0.00
    0    2    9     42.76      0.00
   -1    3    9      9.79      0.00
    0    3    9     19.87      0.00
   -1    4    9     20.27      0.00
    0    4    9     -0.79      0.00
   -2    5    9     -5.01      0.00
   -1    5    9      3.90      0.00
    0    5    9      7.43      0.00
   -2    6    9      3.02      0.00
   -1    6    9     -4.86      0.00
    0    6    9     -0.98      0.00
   -3    7    9     -8.98      0.00
   -2    7    9      8.41      0.00
   -1    7    9     -3.38      0.00
    0    7    9      4.54      0.00
   -3    8    9     -8.13      0.00
   -2    8    9     -1.54      0.00
   -1    8    9     -4.27      0.00
    0    8    9     -6.17      0.00
   -4    9    9      1.94      0.00
   -3    9    9      9.30      0.00
   -2    9    9     -4.16      0.00
   -1    9    9     -2.99      0.00
    0    9    9      0.50      0.00
   -4   10    9      1.65      0.00
   -3   10    9     -2.97      0.00
   -2   10    9      3.95      0.00
   -1   10    9     -5.36      0.00
    0   10    9     -0.42      0.00
   -5   11    9     -2.63      0.00
   -4   11    9      0.17      0.00
   -3   11    9     -0.24      0.00
   -2   11    9     -1.11      0.00
   -1   11    9      4.71      0.00
    0   11    9     -3.59      0.00
   -5   12    9     -3.82      0.00
   -4   12    9     -1.41      0.00
   -3   12    9      2.58      0.00
   -2   12    9      3.37      0.00
   -1   12    9     -1.51      0.00
    0   12    9      1.87      0.00
   -6   13    9      1.64      0.00
   -5   13    9     -4.89      0.00
   -4   13    9     -0.79      0.00
   -3   13    9      3.52      0.00
   -2   13    9     -3.91      0.00
   -1   13    9     -4.20      0.00
    0   13    9     -3.02      0.00
   -6   14    9      3.46      0.00
   -5   14    9     -0.41      0.00
   -4   14    9     -1.99      0.00
   -3   14    9     -4.23      0.00
   -2   14    9      1.52      0.00
   -1   14    9      0.90      0.00
    0   14    9      3.59      0.00
   -7   15    9     -0.68      0.00
   -6   15    9      2.72      0.00
   -5   15    9     -4.97      0.00
   -4   15    9      3.29      0.00
   -3   15    9      0.22      0.00
   -2   15    9      4.30      0.00
   -1   15    9     -0.52      0.00
    0   15    9      1.30      0.00
   -7   16    9     -2.52      0.00
   -6   16    9     -1.98      0.00
   -5   16    9      3.04      0.00
   -4   16    9      0.70      0.00
   -3   16    9      3.70      0.00
   -2   16    9      2.38      0.00
   -1   16    9     -0.68      0.00
    0   16    9      0.55      0.00
   -8   17    9     -1.63      0.00
   -7   17    9      1.58      0.00
   -6   17    9      0.86      0.00
   -5   17    9     -0.93      0.00
   -4   17    9      0.62      0.00
   -3   17    9     -1.47      0.00
   -2   17    9      2.45      0.00
   -1   17    9      2.07      0.00
    0   17    9      2.35      0.00
   -8   18    9      1.06      0.00
   -7   18    9     -0.25      0.00
   -6   18    9     -1.92      0.00
   -5   18    9      2.82      0.00
   -4   18    9      2.77      0.00
   -3   18    9      1.94      0.00
   -2   18    9      1.43      0.00
   -1   18    9     -0.05      0.00
    0   18    9      2.09      0.00
   -9   19    9      6.21      0.00
   -8   19    9      0.12      0.00
   -7   19    9      2.96      0.00
   -6   19    9     -2.21      0.00
   -5   19    9     -3.31      0.00
   -4   19    9     -4.02      0.00
   -3   19    9     -4.06      0.00
   -2   19    9      2.57      0.00
   -1   19    9     -1.16      0.00
    0   19    9      4.56      0.00
   -9   20    9     -2.16      0.00
   -8   20    9     -0.96      0.00
   -7   20    9     -4.60      0.00
   -6   20    9     -2.63      0.00
   -5   20    9     -5.06      0.00
   -4   20    9      3.63      0.00
   -3   20    9      1.94      0.00
   -2   20    9     -1.71      0.00
   -1   20    9     -2.39      0.00
    0   20    9     -0.82      0.00
  -10   21    9     -6.60      0.00
   -9   21    9     -0.81      0.00
   -8   21    9     -0.05      0.00
   -7   21    9     -0.90      0.00
   -6   21    9      4.75      0.00
   -5   21    9     -5.29      0.00
   -4   21    9      0.25      0.00
   -3   21    9     -0.43      0.00
   -2   21    9      1.11      0.00
   -1   21    9      3.91      0.00
    0   21    9     -4.58      0.00
  -10   22    9     -1.57      0.00
   -9   22    9     -0.86      0.00
   -8   22    9      2.28      0.00
   -7   22    9     -5.00      0.00
   -6   22    9     -0.78      0.00
   -5   22    9      0.05      0.00
   -4   22    9     -2.09      0.00
   -3   22    9      4.54      0.00
   -2   22    9     -2.22      0.00
   -1   22    9      3.83      0.00
    0   22    9     -3.02      0.00
  -11   23    9      2.37      0.00
  -10   23    9     -2.85      0.00
   -9   23    9      0.57      0.00
   -8   23    9     -2.36      0.00
   -7   23    9     -4.10      0.00
   -6   23    9      0.82      0.00
   -5   23    9     -0.85      0.00
   -4   23    9      1.34      0.00
   -3   23    9     -4.10      0.00
   -2   23    9     -1.02      0.00
   -1   23    9      4.74      0.00
  -11   24    9     -1.40      0.00
  -10   24    9     -0.94      0.00
   -9   24    9     -1.82      0.00
   -8   24    9      5.27      0.00
   -7   24    9     -3.44      0.00
   -6   24    9      4.18      0.00
   -5   24    9     -3.62      0.00
   -4   24    9      1.70      0.00
   -3   24    9      1.11      0.00
  -12   25    9      0.25      0.00
  -11   25    9      0.58      0.00
  -10   25    9      2.56      0.00
   -9   25    9      3.44      0.00
   -8   25    9     -0.26      0.00
   -7   25    9      5.26      0.00
   -6   25    9     -2.61      0.00
  -12   26    9     -0.99      0.00
  -11   26    9     -3.20      0.00
  -10   26    9     -0.39      0.00
    0    0   10   -125.62      0.00
    0    1   10     -7.56      0.00
   -1    2   10     22.94      0.00
    0    2   10    -12.84      0.00
   -1    3   10      3.13      0.00
    0    3   10     12.28      0.00
   -2    4   10     14.43      0.00
   -1    4   10    -18.97      0.00
    0    4   10     -3.38      0.00
   -2    5   10    -13.29      0.00
   -1    5   10      7.49      0.00
    0    5   10      2.22      0.00
   -3    6   10     -1.08      0.00
   -2    6   10      8.24      0.00
   -1    6   10     -0.88      0.00
    0    6   10    -18.31      0.00
   -3    7   10    -15.35      0.00
   -2    7   10     -1.57      0.00
   -1    7   10      4.47      0.00
    0    7   10      5.53      0.00
   -4    8   10     21.93      0.00
   -3    8   10     -1.45      0.00
   -2    8   10     -8.44      0.00
   -1    8   10     -1.14      0.00
    0    8   10    -15.31      0.00
   -4    9   10     -3.23      0.00
   -3    9   10      2.62      0.00
   -2    9   10     -6.84      0.00
   -1    9   10      2.06      0.00
    0    9   10     11.33      0.00
   -5   10   10     -3.89      0.00
   -4   10   10     -3.00      0.00
   -3   10   10     -4.40      0.00
   -2   10   10      1.55      0.00
   -1   10   10     -0.77      0.00
    0   10   10     -5.27      0.00
   -5   11   10      5.61      0.00
   -4   11   10     -2.85      0.00
   -3   11   10      2.48      0.00
   -2   11   10     -1.12      0.00
   -1   11   10      0.45      0.00
    0   11   10      0.96      0.00
   -6   12   10     -9.37      0.00
   -5   12   10      1.46      0.00
   -4   12   10      1.29      0.00
   -3   12   10      1.64      0.00
   -2   12   10      4.07      0.00
   -1   12   10     -2.39      0.00
    0   12   10      1.48      0.00
   -6   13   10     -0.92      0.00
   -5   13   10      2.02      0.00
   -4   13   10     -2.08      0.00
   -3   13   10     -1.05      0.00
   -2   13   10     -0.22      0.00
   -1   13   10     -5.63      0.00
    0   13   10      7.65      0.00
   -7   14   10      3.54      0.00
   -6   14   10     -2.00      0.00
   -5   14   10      0.19      0.00
   -4   14   10      6.71      0.00
   -3   14   10      2.10      0.00
   -2   14   10     -1.53      0.00
   -1   14   10     -0.75      0.00
    0   14   10     -3.10      0.00
   -7   15   10     -1.63      0.00
   -6   15   10      2.39      0.00
   -5   15   10     -1.77      0.00
   -4   15   10      2.66      0.00
   -3   15   10     -0.42      0.00
   -2   15   10     -0.53      0.00
   -1   15   10     -0.86      0.00
    0   15   10      0.47      0.00
   -8   16   10     -3.25      0.00
   -7   16   10     -3.32      0.00
   -6   16   10      2.60      0.00
   -5   16   10     -2.90      0.00
   -4   16   10      0.91      0.00
   -3   16   10      1.03      0.00
   -2   16   10     -0.97      0.00
   -1   16   10      0.06      0.00
    0   16   10     -1.51      0.00
   -8   17   10      0.16      0.00
   -7   17   10     -1.79      0.00
   -6   17   10     -0.33      0.00
   -5   17   10     -2.56      0.00
   -4   17   10     -0.89      0.00
   -3   17   10     -6.92      0.00
   -2   17   10     -2.30      0.00
   -1   17   10      1.64      0.00
    0   17   10     -3.30      0.00
   -9   18   10      4.37      0.00
   -8   18   10     -8.57      0.00
   -7   18   10     -1.07      0.00
   -6   18   10     -0.07      0.00
   -5   18   10      1.00      0.00
   -4   18   10      1.36      0.00
   -3   18   10      1.17      0.00
   -2   18   10     -1.06      0.00
   -1   18   10      0.83      0.00
    0   18   10     -0.62      0.00
   -9   19   10      1.83      0.00
   -8   19   10     -2.29      0.00
   -7   19   10      1.44      0.00
   -6   19   10     -4.12      0.00
   -5   19   10      0.95      0.00
   -4   19   10     -5.33      0.00
   -3   19   10     -0.41      0.00
   -2   19   10     -1.94      0.00
   -1   19   10      1.35      0.00
    0   19   10      1.88      0.00
  -10   20   10     -0.50      0.00
   -9   20   10     -4.39      0.00
   -8   20   10     -0.83      0.00
   -7   20   10      0.84      0.00
   -6   20   10      0.09      0.00
   -5   20   10      4.30      0.00
   -4   20   10      3.93      0.00
   -3   20   10     -2.66      0.00
   -2   20   10      0.17      0.00
   -1   20   10     -1.25      0.00
    0   20   10      2.69      0.00
  -10   21   10      2.04      0.00
   -9   21   10      3.13      0.00
   -8   21   10      3.68      0.00
   -7   21   10      0.47      0.00
   -6   21   10     -0.83      0.00
   -5   21   10      1.63      0.00
   -4   21   10     -2.31      0.00
   -3   21   10      4.22      0.00
   -2   21   10     -2.22      0.00
   -1   21   10     -3.17      0.00
    0   21   10     -2.38      0.00
  -11   22   10     -0.78      0.00
  -10   22   10     -0.03      0.00
   -9   22   10     -1.58      0.00
   -8   22   10     -0.51      0.00
   -7   22   10     -1.88      0.00
   -6   22   10      0.24      0.00
   -5   22   10     -2.25      0.00
   -4   22   10      0.53      0.00
   -3   22   10     -2.78      0.00
   -2   22   10      6.52      0.00
   -1   22   10     -5.61      0.00
    0   22   10      5.95      0.00
  -11   23   10      2.67      0.00
  -10   23   10      1.65      0.00
   -9   23   10     -5.76      0.00
   -8   23   10     -2.64      0.00
   -7   23   10     -2.79      0.00
   -6   23   10      0.87      0.00
   -5   23   10      3.79      0.00
   -4   23   10     -0.44      0.00
   -3   23   10      2.51      0.00
   -2   23   10      2.75      0.00
   -1   23   10     -2.73      0.00
  -12   24   10     -4.10      0.00
  -11   24   10      1.96      0.00
  -10   24   10     -3.41      0.00
   -9   24   10      5.98      0.00
   -8   24   10      1.59      0.00
   -7   24   10      2.40      0.00
   -6   24   10      3.22      0.00
   -5   24   10     -0.11      0.00
   -4   24   10      2.15      0.00
   -3   24   10     -2.31      0.00
  -12   25   10      4.06      0.00
  -11   25   10      1.08      0.00
  -10   25   10     -1.67      0.00
   -9   25   10     -3.77      0.00
   -8   25   10     -0.61      0.00
   -7   25   10     -2.51      0.00
   -6   25   10      2.86      0.00
  -13   26   10     -1.70      0.00
  -12   26   10     -1.32      0.00
  -11   26   10     -3.38      0.00
    0    1   11      1.18      0.00
    0    2   11    -11.57      0.00
   -1    3   11     -4.78      0.00
    0    3   11     -0.42      0.00
   -1    4   11      2.93      0.00
    0    4   11     -9.05      0.00
   -2    5   11     -5.04      0.00
   -1    5   11      2.50      0.00
    0    5   11    -11.75      0.00
   -2    6   11      7.33      0.00
   -1    6   11     13.43      0.00
    0    6   11      3.39      0.00
   -3    7   11    -11.42      0.00
   -2    7   11     -6.20      0.00
   -1    7   11    -16.22      0.00
    0    7   11      6.44      0.00
   -3    8   11      5.98      0.00
   -2    8   11     -2.32      0.00
   -1    8   11      5.69      0.00
    0    8   11      1.49      0.00
   -4    9   11      0.10      0.00
   -3    9   11      1.42      0.00
   -2    9   11     -2.81      0.00
   -1    9   11      1.40      0.00
    0    9   11     -5.08      0.00
   -4   10   11     -3.02      0.00
   -3   10   11      2.80      0.00
   -2   10   11      2.43      0.00
   -1   10   11     13.17      0.00
    0   10   11     -9.64      0.00
   -5   11   11      2.36      0.00
   -4   11   11      4.06      0.00
   -3   11   11     -0.25      0.00
   -2   11   11     -0.77      0.00
   -1   11   11      2.99      0.00
    0   11   11     -3.68      0.00
   -5   12   11      2.96      0.00
   -4   12   11     -0.81      0.00
   -3   12   11     -2.15      0.00
   -2   12   11     -3.10      0.00
   -1   12   11      2.54      0.00
    0   12   11     -0.59      0.00
   -6   13   11     -2.27      0.00
   -5   13   11      3.15      0.00
   -4   13   11     -1.25      0.00
   -3   13   11      2.21      0.00
   -2   13   11     -2.45      0.00
   -1   13   11     -2.23      0.00
    0   13   11      4.87      0.00
   -6   14   11     -2.06      0.00
   -5   14   11      5.46      0.00
   -4   14   11      3.13      0.00
   -3   14   11      0.81      0.00
   -2   14   11      3.97      0.00
   -1   14   11     -3.79      0.00
    0   14   11      7.68      0.00
   -7   15   11      0.91      0.00
   -6   15   11     -0.41      0.00
   -5   15   11     -0.02      0.00
   -4   15   11      6.06      0.00
   -3   15   11      1.96      0.00
   -2   15   11      0.41      0.00
   -1   15   11     -2.90      0.00
    0   15   11      3.30      0.00
   -7   16   11      1.24      0.00
   -6   16   11      3.19      0.00
   -5   16   11      1.17      0.00
   -4   16   11      0.81      0.00
   -3   16   11     -2.28      0.00
   -2   16   11     -0.49      0.00
   -1   16   11      0.43      0.00
    0   16   11     -0.32      0.00
   -8   17   11     -2.71      0.00
   -7   17   11      1.18      0.00
   -6   17   11     -2.86      0.00
   -5   17   11     -1.28      0.00
   -4   17   11     -0.74      0.00
   -3   17   11      1.93      0.00
   -2   17   11     -0.46      0.00
   -1   17   11     -0.47      0.00
    0   17   11     -2.34      0.00
   -8   18   11     -0.60      0.00
   -7   18   11     -0.60      0.00
   -6   18   11      2.15      0.00
   -5   18   11     -2.29      0.00
   -4   18   11     -3.82      0.00
   -3   18   11     -4.05      0.00
   -2   18   11     -2.64      0.00
   -1   18   11      1.67      0.00
    0   18   11     -1.16      0.00
   -9   19   11     -3.62      0.00
   -8   19   11      0.03      0.00
   -7   19   11     -0.73      0.00
   -6   19   11      2.59      0.00
   -5   19   11      0.11      0.00
   -4   19   11      3.06      0.00
   -3   19   11      0.81      0.00
   -2   19   11     -1.16      0.00
   -1   19   11      4.40      0.00
    0   19   11     -5.02      0.00
   -9   20   11      5.40      0.00
   -8   20   11     -2.16      0.00
   -7   20   11      3.55      0.00
   -6   20   11     -1.17      0.00
   -5   20   11      1.87      0.00
   -4   20   11      0.05      0.00
   -3   20   11     -1.24      0.00
   -2   20   11     -1.45      0.00
   -1   20   11     -4.75      0.00
    0   20   11      0.67      0.00
  -10   21   11      3.85      0.00
   -9   21   11     -2.75      0.00
   -8   21   11     -0.75      0.00
   -7   21   11      0.86      0.00
   -6   21   11     -0.09      0.00
   -5   21   11     -2.42      0.00
   -4   21   11     -4.91      0.00
   -3   21   11      1.08      0.00
   -2   21   11     -1.08      0.00
   -1   21   11      2.79      0.00
    0   21   11     -6.14      0.00
  -10   22   11     -1.41      0.00
   -9   22   11     -0.77      0.00
   -8   22   11     -0.65      0.00
   -7   22   11      2.23      0.00
   -6   22   11     -1.23      0.00
   -5   22   11      3.62      0.00
   -4   22   11     -5.11      0.00
   -3   22   11     -1.63      0.00
   -2   22   11      0.37      0.00
   -1   22   11     -2.16      0.00
    0   22   11     -0.87      0.00
  -11   23   11      0.46      0.00
  -10   23   11      2.51      0.00
   -9   23   11     -0.63      0.00
   -8   23   11      0.19      0.00
   -7   23   11      2.40      0.00
   -6   23   11     -0.10      0.00
   -5   23   11      1.10      0.00
   -4   23   11     -0.56      0.00
   -3   23   11     -3.97      0.00
   -2   23   11     -0.47      0.00
  -11   24   11     -0.50      0.00
  -10   24   11      1.71      0.00
   -9   24   11      2.60      0.00
   -8   24   11      3.89      0.00
   -7   24   11      0.80      0.00
   -6   24   11     -4.45      0.00
   -5   24   11     -4.50      0.00
   -4   24   11     -0.48      0.00
  -12   25   11     -1.97      0.00
  -11   25   11      1.95      0.00
  -10   25   11     -0.33      0.00
   -9   25   11     -5.76      0.00
   -8   25   11     -1.09      0.00
   -7   25   11     -8.28      0.00
    0    0   12     -9.19      0.00
    0    1   12    -11.00      0.00
   -1    2   12     -8.12      0.00
    0    2   12     -8.65      0.00
   -1    3   12     -3.25      0.00
    0    3   12     24.06      0.00
   -2    4   12     21.77      0.00
   -1    4   12     -0.97      0.00
    0    4   12     17.85      0.00
   -2    5   12      1.92      0.00
   -1    5   12     -9.09      0.00
    0    5   12      4.10      0.00
   -3    6   12     -1.50      0.00
   -2    6   12      0.70      0.00
   -1    6   12     -0.88      0.00
    0    6   12     -4.89      0.00
   -3    7   12     -7.05      0.00
   -2    7   12     -2.11      0.00
   -1    7   12      0.84      0.00
    0    7   12     11.87      0.00
   -4    8   12      2.63      0.00
   -3    8   12      0.38      0.00
   -2    8   12     -5.25      0.00
   -1    8   12     -2.60      0.00
    0    8   12     -6.66      0.00
   -4    9   12     -7.22      0.00
   -3    9   12      2.28      0.00
   -2    9   12     -1.10      0.00
   -1    9   12      3.87      0.00
    0    9   12     -1.97      0.00
   -5   10   12     -5.41      0.00
   -4   10   12      6.06      0.00
   -3   10   12      2.86      0.00
   -2   10   12     -0.43      0.00
   -1   10   12      1.26      0.00
    0   10   12     -2.74      0.00
   -5   11   12      3.41      0.00
   -4   11   12     -3.66      0.00
   -3   11   12      0.67      0.00
   -2   11   12      0.27      0.00
   -1   11   12      1.03      0.00
    0   11   12     -1.10      0.00
   -6   12   12      4.70      0.00
   -5   12   12     -1.93      0.00
   -4   12   12      0.32      0.00
   -3   12   12     -3.44      0.00
   -2   12   12      1.73      0.00
   -1   12   12      3.81      0.00
    0   12   12      0.81      0.00
   -6   13   12      0.13      0.00
   -5   13   12      0.98      0.00
   -4   13   12     -2.40      0.00
   -3   13   12     -3.38      0.00
   -2   13   12      2.87      0.00
   -1   13   12      0.33      0.00
    0   13   12      3.39      0.00
   -7   14   12      1.34      0.00
   -6   14   12     -3.41      0.00
   -5   14   12     -0.02      0.00
   -4   14   12     -1.23      0.00
   -3   14   12     -3.69      0.00
   -2   14   12      3.25      0.00
   -1   14   12     -2.28      0.00
    0   14   12      1.28      0.00
   -7   15   12      2.62      0.00
   -6   15   12     -2.65      0.00
   -5   15   12      1.27      0.00
   -4   15   12     -4.59      0.00
   -3   15   12      0.92      0.00
   -2   15   12     -0.04      0.00
   -1   15   12      1.57      0.00
    0   15   12      1.47      0.00
   -8   16   12      5.49      0.00
   -7   16   12      0.65      0.00
   -6   16   12     -2.17      0.00
   -5   16   12     -0.05      0.00
   -4   16   12      0.97      0.00
   -3   16   12     -1.28      0.00
   -2   16   12      0.71      0.00
   -1   16   12     -2.86      0.00
    0   16   12      3.70      0.00
   -8   17   12      0.99      0.00
   -7   17   12     -4.08      0.00
   -6   17   12      2.32      0.00
   -5   17   12      0.42      0.00
   -4   17   12     -1.44      0.00
   -3   17   12      2.73      0.00
   -2   17   12      2.24      0.00
   -1   17   12      0.16      0.00
    0   17   12     -1.84      0.00
   -9   18   12      1.54      0.00
   -8   18   12      3.25      0.00
   -7   18   12      1.67      0.00
   -6   18   12      0.10      0.00
   -5   18   12     -2.22      0.00
   -4   18   12      2.27      0.00
   -3   18   12     -2.74      0.00
   -2   18   12     -2.07      0.00
   -1   18   12      0.83      0.00
    0   18   12      2.68      0.00
   -9   19   12     -6.95      0.00
   -8   19   12      3.09      0.00
   -7   19   12     -1.35      0.00
   -6   19   12      3.58      0.00
   -5   19   12      2.62      0.00
   -4   19   12     -0.41      0.00
   -3   19   12     -1.47      0.00
   -2   19   12     -0.86      0.00
   -1   19   12      0.25      0.00
    0   19   12     -5.13      0.00
  -10   20   12      0.86      0.00
   -9   20   12      2.22      0.00
   -8   20   12      1.47      0.00
   -7   20   12     -0.75      0.00
   -6   20   12     -1.79      0.00
   -5   20   12     -3.83      0.00
   -4   20   12      0.08      0.00
   -3   20   12      3.59      0.00
   -2   20   12     -3.63      0.00
   -1   20   12      2.27      0.00
    0   20   12     -0.59      0.00
  -10   21   12     -1.45      0.00
   -9   21   12     -6.51      0.00
   -8   21   12      0.72      0.00
   -7   21   12      0.02      0.00
   -6   21   12      2.82      0.00
   -5   21   12     -3.66      0.00
   -4   21   12      4.53      0.00
   -3   21   12     -0.18      0.00
   -2   21   12      2.76      0.00
   -1   21   12      6.04      0.00
    0   21   12      0.09      0.00
  -11   22   12     -0.65      0.00
  -10   22   12     -0.66      0.00
   -9   22   12     -3.87      0.00
   -8   22   12      2.47      0.00
   -7   22   12     -1.08      0.00
   -6   22   12      3.01      0.00
   -5   22   12      4.48      0.00
   -4   22   12     -4.39      0.00
   -3   22   12      3.18      0.00
   -2   22   12     -4.11      0.00
   -1   22   12      2.81      0.00
    0   22   12     -2.56      0.00
  -11   23   12     -1.41      0.00
  -10   23   12      3.22      0.00
   -9   23   12      2.14      0.00
   -8   23   12     -0.85      0.00
   -7   23   12      0.39      0.00
   -6   23   12      1.03      0.00
   -5   23   12      0.95      0.00
   -4   23   12      2.07      0.00
   -3   23   12     -5.02      0.00
   -2   23   12     -2.40      0.00
  -12   24   12     -0.43      0.00
  -11   24   12     -3.14      0.00
  -10   24   12     -0.39      0.00
   -9   24   12     -0.60      0.00
   -8   24   12     -1.72      0.00
   -7   24   12      0.13      0.00
   -6   24   12     -4.43      0.00
   -5   24   12      3.16      0.00
   -4   24   12     -2.07      0.00
  -12   25   12     -2.96      0.00
  -11   25   12     -0.25      0.00
  -10   25   12      0.09      0.00
   -9   25   12      2.93      0.00
   -8   25   12      0.50      0.00
    0    1   13     17.77      0.00
    0    2   13     -2.44      0.00
   -1    3   13     -8.72      0.00
    0    3   13     13.23      0.00
   -1    4   13     -1.83      0.00
    0    4   13     -3.82      0.00
   -2    5   13      1.36      0.00
   -1    5   13     -0.05      0.00
    0    5   13    -17.20      0.00
   -2    6   13      1.88      0.00
   -1    6   13     10.25      0.00
    0    6   13      0.00      0.00
   -3    7   13     -9.63      0.00
   -2    7   13     -4.13      0.00
   -1    7   13     -8.58      0.00
    0    7   13     11.27      0.00
   -3    8   13      4.06      0.00
   -2    8   13      5.92      0.00
   -1    8   13      2.00      0.00
    0    8   13      6.69      0.00
   -4    9   13     -5.38      0.00
   -3    9   13      1.41      0.00
   -2    9   13      5.49      0.00
   -1    9   13     -7.64      0.00
    0    9   13      0.72      0.00
   -4   10   13     -1.09      0.00
   -3   10   13     -2.57      0.00
   -2   10   13     -2.72      0.00
   -1   10   13     -1.11      0.00
    0   10   13     -3.35      0.00
   -5   11   13      1.01      0.00
   -4   11   13     -0.34      0.00
   -3   11   13      3.75      0.00
   -2   11   13      4.26      0.00
   -1   11   13     -1.80      0.00
    0   11   13     -0.55      0.00
   -5   12   13     -1.66      0.00
   -4   12   13      2.65      0.00
   -3   12   13     -0.49      0.00
   -2   12   13      0.18      0.00
   -1   12   13      5.18      0.00
    0   12   13      2.53      0.00
   -6   13   13      4.64      0.00
   -5   13   13      2.83      0.00
   -4   13   13      3.85      0.00
   -3   13   13      0.78      0.00
   -2   13   13     -1.24      0.00
   -1   13   13     -0.95      0.00
    0   13   13     -0.75      0.00
   -6   14   13      1.77      0.00
   -5   14   13     -2.48      0.00
   -4   14   13     -1.70      0.00
   -3   14   13     -2.05      0.00
   -2   14   13      2.12      0.00
   -1   14   13      0.98      0.00
    0   14   13      0.13      0.00
   -7   15   13     -0.95      0.00
   -6   15   13      0.39      0.00
   -5   15   13     -2.63      0.00
   -4   15   13      1.61      0.00
   -3   15   13     -3.93      0.00
   -2   15   13      3.18      0.00
   -1   15   13     -2.40      0.00
    0   15   13     -2.05      0.00
   -7   16   13     -0.57      0.00
   -6   16   13     -0.17      0.00
   -5   16   13      1.59      0.00
   -4   16   13     -3.12      0.00
   -3   16   13      3.41      0.00
   -2   16   13     -1.71      0.00
   -1   16   13      1.74      0.00
    0   16   13      1.77      0.00
   -8   17   13      0.63      0.00
   -7   17   13      1.53      0.00
   -6   17   13      0.18      0.00
   -5   17   13      5.67      0.00
   -4   17   13     -0.15      0.00
   -3   17   13     -1.80      0.00
   -2   17   13     -2.46      0.00
   -1   17   13     -3.16      0.00
    0   17   13     -3.49      0.00
   -8   18   13     -1.67      0.00
   -7   18   13     -1.60      0.00
   -6   18   13     -2.90      0.00
   -5   18   13      2.76      0.00
   -4   18   13      0.62      0.00
   -3   18   13     -0.16      0.00
   -2   18   13     -0.45      0.00
   -1   18   13     -0.08      0.00
    0   18   13     -2.46      0.00
   -9   19   13     -3.83      0.00
   -8   19   13     -1.61      0.00
   -7   19   13      2.99      0.00
   -6   19   13     -4.80      0.00
   -5   19   13      0.43      0.00
   -4   19   13     -4.65      0.00
   -3   19   13     -2.25      0.00
   -2   19   13     -2.22      0.00
   -1   19   13     -1.01      0.00
    0   19   13      2.59      0.00
   -9   20   13     -3.74      0.00
   -8   20   13     -1.25      0.00
   -7   20   13     -3.72      0.00
   -6   20   13     -2.36      0.00
   -5   20   13     -0.42      0.00
   -4   20   13      4.95      0.00
   -3   20   13      2.82      0.00
   -2   20   13      0.82      0.00
   -1   20   13     -3.01      0.00
    0   20   13     -1.03      0.00
  -10   21   13     -5.29      0.00
   -9   21   13     -0.87      0.00
   -8   21   13      1.86      0.00
   -7   21   13     -1.34      0.00
   -6   21   13      3.91      0.00
   -5   21   13     -4.88      0.00
   -4   21   13      0.01      0.00
   -3   21   13      0.02      0.00
   -2   21   13     -0.52      0.00
   -1   21   13      1.77      0.00
    0   21   13      3.69      0.00
  -10   22   13      1.87      0.00
   -9   22   13     -0.50      0.00
   -8   22   13      0.31      0.00
   -7   22   13     -3.43      0.00
   -6   22   13      1.12      0.00
   -5   22   13      0.66      0.00
   -4   22   13     -2.94      0.00
   -3   22   13      0.98      0.00
   -2   22   13     -2.25      0.00
   -1   22   13     -0.12      0.00
  -11   23   13      1.98      0.00
  -10   23   13      1.03      0.00
   -9   23   13      2.37      0.00
   -8   23   13     -1.51      0.00
   -7   23   13      0.26      0.00
   -6   23   13      2.13      0.00
   -5   23   13      0.03      0.00
   -4   23   13      0.16      0.00
   -3   23   13     -2.82      0.00
   -2   23   13     -1.18      0.00
  -11   24   13     -1.45      0.00
  -10   24   13     -2.50      0.00
   -9   24   13     -4.81      0.00
   -8   24   13     -1.48      0.00
   -7   24   13     -2.43      0.00
   -6   24   13      1.50      0.00
   -5   24   13     -1.95      0.00
  -12   25   13      2.09      0.00
  -11   25   13      0.71      0.00
  -10   25   13      3.71      0.00
   -9   25   13      3.96      0.00
   -8   25   13     -1.14      0.00
    0    0   14     -6.27      0.00
    0    1   14     -0.77      0.00
   -1    2   14      1.87      0.00
    0    2   14    -10.00      0.00
   -1    3   14     -0.66      0.00
    0    3   14      0.54      0.00
   -2    4   14     -4.82      0.00
   -1    4   14     -0.40      0.00
    0    4   14      3.57      0.00
   -2    5   14      3.64      0.00
   -1    5   14      0.45      0.00
    0    5   14      0.26      0.00
   -3    6   14     -6.21      0.00
   -2    6   14      0.16      0.00
   -1    6   14     -0.05      0.00
    0    6   14      3.49      0.00
   -3    7   14      5.51      0.00
   -2    7   14      0.81      0.00
   -1    7   14      2.63      0.00
    0    7   14     -1.33      0.00
   -4    8   14     -0.78      0.00
   -3    8   14      0.48      0.00
   -2    8   14      3.51      0.00
   -1    8   14     -3.38      0.00
    0    8   14      3.72      0.00
   -4    9   14     -1.81      0.00
   -3    9   14     -2.10      0.00
   -2    9   14      1.17      0.00
   -1    9   14      4.39      0.00
    0    9   14     -0.55      0.00
   -5   10   14      3.54      0.00
   -4   10   14     -6.30      0.00
   -3   10   14      2.55      0.00
   -2   10   14     -2.18      0.00
   -1   10   14     -1.08      0.00
    0   10   14      0.00      0.00
   -5   11   14      0.38      0.00
   -4   11   14     -4.67      0.00
   -3   11   14      4.39      0.00
   -2   11   14     -1.99      0.00
   -1   11   14      0.16      0.00
    0   11   14      5.12      0.00
   -6   12   14     -5.56      0.00
   -5   12   14      2.60      0.00
   -4   12   14     -0.52      0.00
   -3   12   14      0.44      0.00
   -2   12   14      1.20      0.00
   -1   12   14     -5.08      0.00
    0   12   14      4.17      0.00
   -6   13   14     -1.34      0.00
   -5   13   14     -0.47      0.00
   -4   13   14      3.80      0.00
   -3   13   14     -1.35      0.00
   -2   13   14      2.15      0.00
   -1   13   14     -5.24      0.00
    0   13   14      5.30      0.00
   -7   14   14     -1.45      0.00
   -6   14   14     -3.22      0.00
   -5   14   14     -2.93      0.00
   -4   14   14      2.22      0.00
   -3   14   14     -0.31      0.00
   -2   14   14     -1.40      0.00
   -1   14   14     -4.45      0.00
    0   14   14      2.36      0.00
   -7   15   14     -1.20      0.00
   -6   15   14      0.66      0.00
   -5   15   14     -1.69      0.00
   -4   15   14     -1.36      0.00
   -3   15   14     -1.76      0.00
   -2   15   14      1.49      0.00
   -1   15   14      0.50      0.00
    0   15   14     -2.34      0.00
   -8   16   14     -5.44      0.00
   -7   16   14      1.68      0.00
   -6   16   14      0.60      0.00
   -5   16   14     -2.25      0.00
   -4   16   14     -2.17      0.00
   -3   16   14      3.02      0.00
   -2   16   14     -2.12      0.00
   -1   16   14      1.90      0.00
    0   16   14      0.49      0.00
   -8   17   14      3.02      0.00
   -7   17   14      0.83      0.00
   -6   17   14     -0.19      0.00
   -5   17   14     -1.15      0.00
   -4   17   14     -2.09      0.00
   -3   17   14     -0.16      0.00
   -2   17   14      4.54      0.00
   -1   17   14      5.39      0.00
    0   17   14     -7.11      0.00
   -9   18   14     -0.05      0.00
   -8   18   14     -3.32      0.00
   -7   18   14     -3.70      0.00
   -6   18   14     -1.20      0.00
   -5   18   14      2.03      0.00
   -4   18   14     -1.58      0.00
   -3   18   14     -1.30      0.00
   -2   18   14     -1.94      0.00
   -1   18   14      1.48      0.00
    0   18   14     -2.45      0.00
   -9   19   14      2.96      0.00
   -8   19   14     -3.89      0.00
   -7   19   14      2.70      0.00
   -6   19   14     -4.18      0.00
   -5   19   14      1.27      0.00
   -4   19   14     -1.17      0.00
   -3   19   14      1.06      0.00
   -2   19   14      0.52      0.00
   -1   19   14      3.97      0.00
    0   19   14      2.90      0.00
  -10   20   14     -0.57      0.00
   -9   20   14     -4.91      0.00
   -8   20   14     -1.39      0.00
   -7   20   14      0.10      0.00
   -6   20   14     -1.34      0.00
   -5   20   14     -0.42      0.00
   -4   20   14      1.92      0.00
   -3   20   14     -0.40      0.00
   -2   20   14      0.63      0.00
   -1   20   14     -3.61      0.00
    0   20   14     -0.08      0.00
  -10   21   14      1.15      0.00
   -9   21   14     -0.83      0.00
   -8   21   14      0.27      0.00
   -7   21   14     -0.60      0.00
   -6   21   14      0.32      0.00
   -5   21   14      1.42      0.00
   -4   21   14     -7.56      0.00
   -3   21   14      3.75      0.00
   -2   21   14     -3.21      0.00
   -1   21   14     -3.04      0.00
    0   21   14      3.72      0.00
  -11   22   14      2.41      0.00
  -10   22   14     -1.78      0.00
   -9   22   14      2.39      0.00
   -8   22   14     -0.44      0.00
   -7   22   14      2.37      0.00
   -6   22   14      1.27      0.00
   -5   22   14     -3.80      0.00
   -4   22   14      0.93      0.00
   -3   22   14      0.15      0.00
   -2   22   14      3.34      0.00
   -1   22   14     -4.32      0.00
  -11   23   14     -2.48      0.00
  -10   23   14      0.29      0.00
   -9   23   14     -4.85      0.00
   -8   23   14      0.55      0.00
   -7   23   14     -3.26      0.00
   -6   23   14     -1.57      0.00
   -5   23   14      1.24      0.00
   -4   23   14      0.11      0.00
   -3   23   14      0.64      0.00
  -12   24   14     -4.19      0.00
  -11   24   14      3.70      0.00
  -10   24   14     -2.82      0.00
   -9   24   14      3.79      0.00
   -8   24   14      0.91      0.00
   -7   24   14      1.75      0.00
   -6   24   14      2.03      0.00
  -11   25   14     -0.53      0.00
  -10   25   14     -2.01      0.00
   -9   25   14      1.48      0.00
    0    1   15     13.59      0.00
    0    2   15     -0.87      0.00
   -1    3   15     -8.62      0.00
    0    3   15      0.28      0.00
   -1    4   15      1.89      0.00
    0    4   15      2.37      0.00
   -2    5   15    -10.95      0.00
   -1    5   15     -0.74      0.00
    0    5   15     -7.82      0.00
   -2    6   15     -0.87      0.00
   -1    6   15      8.77      0.00
    0    6   15     -3.02      0.00
   -3    7   15     -4.53      0.00
   -2    7   15     -1.61      0.00
   -1    7   15     -5.26      0.00
    0    7   15      1.07      0.00
   -3    8   15     10.39      0.00
   -2    8   15     -2.52      0.00
   -1    8   15      2.46      0.00
    0    8   15      0.34      0.00
   -4    9   15     -1.63      0.00
   -3    9   15     -3.74      0.00
   -2    9   15     -2.04      0.00
   -1    9   15     -8.24      0.00
    0    9   15      2.27      0.00
   -4   10   15     -0.78      0.00
   -3   10   15      1.02      0.00
   -2   10   15     -0.90      0.00
   -1   10   15      4.33      0.00
    0   10   15     -0.14      0.00
   -5   11   15      5.44      0.00
   -4   11   15     -3.95      0.00
   -3   11   15     -1.00      0.00
   -2   11   15     -0.97      0.00
   -1   11   15     -1.48      0.00
    0   11   15      2.65      0.00
   -5   12   15      4.97      0.00
   -4   12   15     -1.19      0.00
   -3   12   15     -0.69      0.00
   -2   12   15      3.14      0.00
   -1   12   15      0.64      0.00
    0   12   15      1.41      0.00
   -6   13   15     -3.11      0.00
   -5   13   15      3.76      0.00
   -4   13   15      3.53      0.00
   -3   13   15      3.37      0.00
   -2   13   15     -0.96      0.00
   -1   13   15      0.03      0.00
    0   13   15      7.25      0.00
   -6   14   15      1.01      0.00
   -5   14   15      1.04      0.00
   -4   14   15      1.44      0.00
   -3   14   15      1.72      0.00
   -2   14   15      2.01      0.00
   -1   14   15     -2.64      0.00
    0   14   15      3.99      0.00
   -7   15   15     -2.20      0.00
   -6   15   15     -2.45      0.00
   -5   15   15      0.97      0.00
   -4   15   15     -1.95      0.00
   -3   15   15      0.46      0.00
   -2   15   15      1.84      0.00
   -1   15   15     -3.09      0.00
    0   15   15     -1.06      0.00
   -7   16   15     -1.01      0.00
   -6   16   15      2.22      0.00
   -5   16   15     -3.07      0.00
   -4   16   15     -0.35      0.00
   -3   16   15     -3.92      0.00
   -2   16   15     -2.67      0.00
   -1   16   15     -1.92      0.00
    0   16   15     -3.67      0.00
   -8   17   15      2.49      0.00
   -7   17   15      2.00      0.00
   -6   17   15     -0.38      0.00
   -5   17   15     -4.75      0.00
   -4   17   15      0.67      0.00
   -3   17   15      1.42      0.00
   -2   17   15      0.99      0.00
   -1   17   15      2.79      0.00
    0   17   15     -4.09      0.00
   -8   18   15      2.75      0.00
   -7   18   15      2.21      0.00
   -6   18   15      4.10      0.00
   -5   18   15     -1.66      0.00
   -4   18   15      0.33      0.00
   -3   18   15      0.01      0.00
   -2   18   15     -4.14      0.00
   -1   18   15      1.70      0.00
    0   18   15      2.02      0.00
   -9   19   15     -0.69      0.00
   -8   19   15      1.66      0.00
   -7   19   15     -1.34      0.00
   -6   19   15     -0.16      0.00
   -5   19   15      1.27      0.00
   -4   19   15     -0.40      0.00
   -3   19   15      2.95      0.00
   -2   19   15      3.46      0.00
   -1   19   15      5.17      0.00
    0   19   15     -2.86      0.00
   -9   20   15      6.14      0.00
   -8   20   15      0.55      0.00
   -7   20   15     -0.28      0.00
   -6   20   15     -0.60      0.00
   -5   20   15      2.00      0.00
   -4   20   15     -3.15      0.00
   -3   20   15     -3.36      0.00
   -2   20   15     -2.00      0.00
   -1   20   15      1.16      0.00
    0   20   15      1.87      0.00
  -10   21   15      1.02      0.00
   -9   21   15      0.05      0.00
   -8   21   15      1.26      0.00
   -7   21   15      1.60      0.00
   -6   21   15     -0.91      0.00
   -5   21   15      1.74      0.00
   -4   21   15     -3.12      0.00
   -3   21   15      2.26      0.00
   -2   21   15      0.44      0.00
   -1   21   15      3.35      0.00
    0   21   15     -2.79      0.00
  -10   22   15     -0.48      0.00
   -9   22   15     -1.89      0.00
   -8   22   15      0.69      0.00
   -7   22   15      0.53      0.00
   -6   22   15     -0.01      0.00
   -5   22   15      2.28      0.00
   -4   22   15      1.25      0.00
   -3   22   15      0.93      0.00
   -2   22   15      3.22      0.00
  -11   23   15     -1.85      0.00
  -10   23   15      0.29      0.00
   -9   23   15      0.51      0.00
   -8   23   15     -4.20      0.00
   -7   23   15      2.15      0.00
   -6   23   15     -3.92      0.00
   -5   23   15      1.60      0.00
   -4   23   15      1.15      0.00
  -11   24   15     -0.98      0.00
  -10   24   15      1.10      0.00
   -9   24   15      5.18      0.00
   -8   24   15      2.01      0.00
   -7   24   15      1.78      0.00
   -6   24   15     -1.39      0.00
    0    0   16     35.98      0.00
    0    1   16     -0.99      0.00
   -1    2   16      6.82      0.00
    0    2   16      8.11      0.00
   -1    3   16     -0.23      0.00
    0    3   16    -15.40      0.00
   -2    4   16     -7.62      0.00
   -1    4   16     -3.46      0.00
    0    4   16     -5.77      0.00
   -2    5   16      1.61      0.00
   -1    5   16      2.23      0.00
    0    5   16     -2.95      0.00
   -3    6   16      0.56      0.00
   -2    6   16      0.07      0.00
   -1    6   16     -2.29      0.00
    0    6   16      2.38      0.00
   -3    7   16      6.23      0.00
   -2    7   16      1.07      0.00
   -1    7   16     -2.46      0.00
    0    7   16     -4.28      0.00
   -4    8   16     -0.37      0.00
   -3    8   16      3.01      0.00
   -2    8   16      0.53      0.00
   -1    8   16      4.07      0.00
    0    8   16      5.81      0.00
   -4    9   16     -2.28      0.00
   -3    9   16      2.72      0.00
   -2    9   16      1.26      0.00
   -1    9   16      1.77      0.00
    0    9   16     -3.22      0.00
   -5   10   16      1.19      0.00
   -4   10   16     -1.07      0.00
   -3   10   16      0.05      0.00
   -2   10   16     -2.81      0.00
   -1   10   16      9.77      0.00
    0   10   16     -4.07      0.00
   -5   11   16     -2.14      0.00
   -4   11   16      0.10      0.00
   -3   11   16      1.94      0.00
   -2   11   16     -5.27      0.00
   -1   11   16      4.19      0.00
    0   11   16      0.62      0.00
   -6   12   16      8.17      0.00
   -5   12   16      0.33      0.00
   -4   12   16      0.34      0.00
   -3   12   16     -1.40      0.00
   -2   12   16     -0.94      0.00
   -1   12   16      2.15      0.00
    0   12   16      1.48      0.00
   -6   13   16      0.27      0.00
   -5   13   16     -0.97      0.00
   -4   13   16      1.42      0.00
   -3   13   16     -0.97      0.00
   -2   13   16      2.27      0.00
   -1   13   16     -1.30      0.00
    0   13   16      2.05      0.00
   -7   14   16      1.01      0.00
   -6   14   16      1.85      0.00
   -5   14   16      1.52      0.00
   -4   14   16      0.66      0.00
   -3   14   16     -1.24      0.00
   -2   14   16      5.37      0.00
   -1   14   16     -2.14      0.00
    0   14   16      4.71      0.00
   -7   15   16      2.86      0.00
   -6   15   16     -4.19      0.00
   -5   15   16      2.48      0.00
   -4   15   16     -3.88      0.00
   -3   15   16      1.25      0.00
   -2   15   16     -0.24      0.00
   -1   15   16      1.91      0.00
    0   15   16     -0.41      0.00
   -8   16   16     -0.79      0.00
   -7   16   16      1.59      0.00
   -6   16   16     -1.39      0.00
   -5   16   16      2.23      0.00
   -4   16   16      3.53      0.00
   -3   16   16      1.27      0.00
   -2   16   16     -7.89      0.00
   -1   16   16     -5.36      0.00
    0   16   16      2.21      0.00
   -8   17   16     -3.49      0.00
   -7   17   16      1.89      0.00
   -6   17   16      1.52      0.00
   -5   17   16      0.45      0.00
   -4   17   16     -1.18      0.00
   -3   17   16      2.29      0.00
   -2   17   16     -1.15      0.00
   -1   17   16     -0.35      0.00
    0   17   16     -3.34      0.00
   -9   18   16      3.31      0.00
   -8   18   16      4.10      0.00
   -7   18   16      2.75      0.00
   -6   18   16      0.40      0.00
   -5   18   16     -0.91      0.00
   -4   18   16      1.12      0.00
   -3   18   16     -1.50      0.00
   -2   18   16      0.09      0.00
   -1   18   16     -0.20      0.00
    0   18   16      1.49      0.00
   -9   19   16     -0.91      0.00
   -8   19   16      3.30      0.00
   -7   19   16     -1.10      0.00
   -6   19   16      0.88      0.00
   -5   19   16      1.27      0.00
   -4   19   16     -0.27      0.00
   -3   19   16     -2.88      0.00
   -2   19   16     -0.42      0.00
   -1   19   16     -0.65      0.00
    0   19   16     -2.34      0.00
  -10   20   16      2.95      0.00
   -9   20   16      6.35      0.00
   -8   20   16      1.45      0.00
   -7   20   16     -2.18      0.00
   -6   20   16     -1.23      0.00
   -5   20   16     -1.23      0.00
   -4   20   16      0.14      0.00
   -3   20   16      3.24      0.00
   -2   20   16     -1.36      0.00
   -1   20   16     -0.22      0.00
    0   20   16      1.87      0.00
  -10   21   16     -2.61      0.00
   -9   21   16      1.75      0.00
   -8   21   16      0.98      0.00
   -7   21   16     -0.34      0.00
   -6   21   16      3.67      0.00
   -5   21   16     -2.13      0.00
   -4   21   16      1.93      0.00
   -3   21   16     -3.17      0.00
   -2   21   16      1.18      0.00
   -1   21   16      1.89      0.00
    0   21   16      0.43      0.00
  -11   22   16     -0.75      0.00
  -10   22   16      1.41      0.00
   -9   22   16     -1.14      0.00
   -8   22   16      0.29      0.00
   -7   22   16      1.48      0.00
   -6   22   16     -0.17      0.00
   -5   22   16      1.15      0.00
   -4   22   16     -2.13      0.00
   -3   22   16      0.50      0.00
   -2   22   16      0.59      0.00
  -11   23   16      0.45      0.00
  -10   23   16      0.74      0.00
   -9   23   16      5.72      0.00
   -8   23   16      1.45      0.00
   -7   23   16     -0.06      0.00
   -6   23   16      1.62      0.00
   -5   23   16      3.07      0.00
   -4   23   16      3.07      0.00
  -11   24   16     -5.05      0.00
  -10   24   16      0.84      0.00
   -9   24   16     -1.13      0.00
   -8   24   16      1.57      0.00
    0    1   17      3.26      0.00
    0    2   17     -1.34      0.00
   -1    3   17     -0.80      0.00
    0    3   17      7.88      0.00
   -1    4   17      3.47      0.00
    0    4   17      1.58      0.00
   -2    5   17      1.60      0.00
   -1    5   17     -0.84      0.00
    0    5   17      0.57      0.00
   -2    6   17      2.01      0.00
   -1    6   17      1.57      0.00
    0    6   17     -3.00      0.00
   -3    7   17      0.35      0.00
   -2    7   17      0.30      0.00
   -1    7   17      1.34      0.00
    0    7   17     -2.95      0.00
   -3    8   17      2.81      0.00
   -2    8   17     -1.08      0.00
   -1    8   17      1.25      0.00
    0    8   17     -5.59      0.00
   -4    9   17     -4.66      0.00
   -3    9   17      4.22      0.00
   -2    9   17     -2.58      0.00
   -1    9   17     -2.83      0.00
    0    9   17      2.19      0.00
   -4   10   17      0.48      0.00
   -3   10   17      1.06      0.00
   -2   10   17     -1.67      0.00
   -1   10   17      2.32      0.00
    0   10   17     -2.10      0.00
   -5   11   17     -2.17      0.00
   -4   11   17     -0.20      0.00
   -3   11   17      0.57      0.00
   -2   11   17      0.61      0.00
   -1   11   17     -1.31      0.00
    0   11   17     -4.64      0.00
   -5   12   17     -3.09      0.00
   -4   12   17     -0.25      0.00
   -3   12   17     -0.58      0.00
   -2   12   17     -0.52      0.00
   -1   12   17      0.69      0.00
    0   12   17     -1.79      0.00
   -6   13   17      1.99      0.00
   -5   13   17      0.74      0.00
   -4   13   17      3.17      0.00
   -3   13   17     -1.37      0.00
   -2   13   17      1.50      0.00
   -1   13   17     -3.04      0.00
    0   13   17     -4.85      0.00
   -6   14   17      3.86      0.00
   -5   14   17     -3.81      0.00
   -4   14   17     -0.15      0.00
   -3   14   17      1.29      0.00
   -2   14   17      1.55      0.00
   -1   14   17      2.14      0.00
    0   14   17     -1.61      0.00
   -7   15   17     -0.73      0.00
   -6   15   17      0.05      0.00
   -5   15   17      2.76      0.00
   -4   15   17      1.95      0.00
   -3   15   17     -3.32      0.00
   -2   15   17      0.77      0.00
   -1   15   17     -0.49      0.00
    0   15   17      1.15      0.00
   -7   16   17      1.49      0.00
   -6   16   17     -3.01      0.00
   -5   16   17      0.95      0.00
   -4   16   17      0.63      0.00
   -3   16   17      3.56      0.00
   -2   16   17     -1.08      0.00
   -1   16   17      3.44      0.00
    0   16   17      2.27      0.00
   -8   17   17      1.10      0.00
   -7   17   17      0.78      0.00
   -6   17   17      0.74      0.00
   -5   17   17     -3.24      0.00
   -4   17   17     -1.60      0.00
   -3   17   17     -1.26      0.00
   -2   17   17      3.15      0.00
   -1   17   17      1.45      0.00
    0   17   17     -1.21      0.00
   -8   18   17     -2.37      0.00
   -7   18   17     -2.13      0.00
   -6   18   17     -0.40      0.00
   -5   18   17      0.71      0.00
   -4   18   17      1.23      0.00
   -3   18   17      1.58      0.00
   -2   18   17     -2.04      0.00
   -1   18   17     -2.07      0.00
    0   18   17     -1.22      0.00
   -9   19   17      0.61      0.00
   -8   19   17     -1.40      0.00
   -7   19   17      2.60      0.00
   -6   19   17     -0.55      0.00
   -5   19   17      0.41      0.00
   -4   19   17     -4.87      0.00
   -3   19   17     -2.22      0.00
   -2   19   17     -0.72      0.00
   -1   19   17     -1.48      0.00
    0   19   17      1.30      0.00
   -9   20   17     -0.82      0.00
   -8   20   17      1.93      0.00
   -7   20   17     -2.77      0.00
   -6   20   17      0.25      0.00
   -5   20   17     -2.71      0.00
   -4   20   17      4.63      0.00
   -3   20   17      3.02      0.00
   -2   20   17     -0.83      0.00
   -1   20   17     -2.39      0.00
    0   20   17      0.29      0.00
  -10   21   17     -5.35      0.00
   -9   21   17     -0.28      0.00
   -8   21   17      1.25      0.00
   -7   21   17     -1.50      0.00
   -6   21   17      6.87      0.00
   -5   21   17     -6.04      0.00
   -4   21   17      1.11      0.00
   -3   21   17     -1.05      0.00
   -2   21   17      2.45      0.00
   -1   21   17     -3.86      0.00
  -10   22   17      2.45      0.00
   -9   22   17      0.07      0.00
   -8   22   17      1.35      0.00
   -7   22   17     -2.51      0.00
   -6   22   17     -0.27      0.00
   -5   22   17     -2.28      0.00
   -4   22   17      4.15      0.00
   -3   22   17      2.32      0.00
  -11   23   17      1.91      0.00
  -10   23   17      0.82      0.00
   -9   23   17      0.59      0.00
   -8   23   17      0.54      0.00
   -7   23   17      0.63      0.00
   -6   23   17      0.65      0.00
   -5   23   17      0.16      0.00
  -10   24   17      0.46      0.00
    0    0   18     -1.41      0.00
    0    1   18     -5.39      0.00
   -1    2   18      1.87      0.00
    0    2   18     -3.89      0.00
   -1    3   18      3.33      0.00
    0    3   18      2.94      0.00
   -2    4   18     -5.28      0.00
   -1    4   18      2.07      0.00
    0    4   18      0.92      0.00
   -2    5   18     -0.64      0.00
   -1    5   18      1.80      0.00
    0    5   18     -6.74      0.00
   -3    6   18     -4.67      0.00
   -2    6   18      1.13      0.00
   -1    6   18     -7.07      0.00
    0    6   18     10.97      0.00
   -3    7   18      2.32      0.00
   -2    7   18      1.23      0.00
   -1    7   18     -4.64      0.00
    0    7   18     -2.07      0.00
   -4    8   18     -8.80      0.00
   -3    8   18     -4.52      0.00
   -2    8   18      1.72      0.00
   -1    8   18     -1.03      0.00
    0    8   18      4.23      0.00
   -4    9   18      6.14      0.00
   -3    9   18      2.60      0.00
   -2    9   18      3.11      0.00
   -1    9   18     -2.23      0.00
    0    9   18      0.49      0.00
   -5   10   18     10.09      0.00
   -4   10   18     -4.40      0.00
   -3   10   18     -1.15      0.00
   -2   10   18      4.69      0.00
   -1   10   18      2.14      0.00
    0   10   18     -2.20      0.00
   -5   11   18     -3.72      0.00
   -4   11   18      2.01      0.00
   -3   11   18      0.56      0.00
   -2   11   18     -2.83      0.00
   -1   11   18      2.09      0.00
    0   11   18     -0.19      0.00
   -6   12   18     -0.72      0.00
   -5   12   18     -3.31      0.00
   -4   12   18     -2.60      0.00
   -3   12   18      2.77      0.00
   -2   12   18     -0.53      0.00
   -1   12   18     -1.21      0.00
    0   12   18      1.73      0.00
   -6   13   18     -2.96      0.00
   -5   13   18     -1.66      0.00
   -4   13   18      5.62      0.00
   -3   13   18     -1.23      0.00
   -2   13   18      3.44      0.00
   -1   13   18     -2.69      0.00
    0   13   18     -1.32      0.00
   -7   14   18     -0.31      0.00
   -6   14   18      2.50      0.00
   -5   14   18     -5.75      0.00
   -4   14   18      3.78      0.00
   -3   14   18     -1.19      0.00
   -2   14   18      0.23      0.00
   -1   14   18     -0.76      0.00
    0   14   18     -0.32      0.00
   -7   15   18     -1.33      0.00
   -6   15   18      1.78      0.00
   -5   15   18     -1.36      0.00
   -4   15   18      3.28      0.00
   -3   15   18     -2.51      0.00
   -2   15   18      1.82      0.00
   -1   15   18      2.12      0.00
    0   15   18     -4.46      0.00
   -8   16   18     -2.78      0.00
   -7   16   18     -1.04      0.00
   -6   16   18      0.48      0.00
   -5   16   18     -1.71      0.00
   -4   16   18     -3.08      0.00
   -3   16   18      3.41      0.00
   -2   16   18     -0.81      0.00
   -1   16   18      1.28      0.00
    0   16   18     -1.79      0.00
   -8   17   18      0.35      0.00
   -7   17   18     -4.62      0.00
   -6   17   18     -0.28      0.00
   -5   17   18     -1.78      0.00
   -4   17   18     -2.78      0.00
   -3   17   18     -3.68      0.00
   -2   17   18      2.16      0.00
   -1   17   18      3.55      0.00
    0   17   18     -8.68      0.00
   -9   18   18     -2.93      0.00
   -8   18   18     -1.87      0.00
   -7   18   18     -1.35      0.00
   -6   18   18     -1.88      0.00
   -5   18   18     -0.54      0.00
   -4   18   18     -0.97      0.00
   -3   18   18      3.86      0.00
   -2   18   18     -3.48      0.00
   -1   18   18      0.18      0.00
    0   18   18     -3.85      0.00
   -9   19   18      2.88      0.00
   -8   19   18      0.03      0.00
   -7   19   18     -0.60      0.00
   -6   19   18     -1.12      0.00
   -5   19   18     -0.30      0.00
   -4   19   18     -1.88      0.00
   -3   19   18     -1.43      0.00
   -2   19   18     -0.23      0.00
   -1   19   18      3.42      0.00
    0   19   18      2.92      0.00
  -10   20   18     -3.05      0.00
   -9   20   18     -3.06      0.00
   -8   20   18      0.16      0.00
   -7   20   18      0.14      0.00
   -6   20   18      1.22      0.00
   -5   20   18     -1.91      0.00
   -4   20   18      1.31      0.00
   -3   20   18      0.43      0.00
   -2   20   18     -1.51      0.00
   -1   20   18     -2.93      0.00
    0   20   18     -3.14      0.00
  -10   21   18      2.40      0.00
   -9   21   18     -0.83      0.00
   -8   21   18      1.48      0.00
   -7   21   18     -1.67      0.00
   -6   21   18     -2.31      0.00
   -5   21   18      0.61      0.00
   -4   21   18      0.04      0.00
   -3   21   18     -1.77      0.00
   -2   21   18     -4.20      0.00
   -1   21   18     -3.68      0.00
  -11   22   18      1.34      0.00
  -10   22   18     -0.77      0.00
   -9   22   18      1.69      0.00
   -8   22   18     -5.32      0.00
   -7   22   18      2.63      0.00
   -6   22   18     -2.05      0.00
   -5   22   18     -3.76      0.00
   -4   22   18     -0.35      0.00
   -3   22   18     -2.66      0.00
  -11   23   18     -1.55      0.00
  -10   23   18      1.23      0.00
   -9   23   18     -1.91      0.00
   -8   23   18     -5.66      0.00
   -7   23   18     -0.95      0.00
   -6   23   18      0.54      0.00
    0    1   19     -1.69      0.00
    0    2   19     -1.89      0.00
   -1    3   19      2.31      0.00
    0    3   19     -2.03      0.00
   -1    4   19     -1.88      0.00
    0    4   19      2.10      0.00
   -2    5   19     -1.97      0.00
   -1    5   19     -0.42      0.00
    0    5   19      2.61      0.00
   -2    6   19      2.06      0.00
   -1    6   19      2.09      0.00
    0    6   19     -2.13      0.00
   -3    7   19      0.90      0.00
   -2    7   19      1.18      0.00
   -1    7   19      0.14      0.00
    0    7   19      0.53      0.00
   -3    8   19     -3.32      0.00
   -2    8   19      0.47      0.00
   -1    8   19      2.83      0.00
    0    8   19     -1.27      0.00
   -4    9   19      3.70      0.00
   -3    9   19     -0.44      0.00
   -2    9   19     -1.11      0.00
   -1    9   19     -3.08      0.00
    0    9   19      0.70      0.00
   -4   10   19     -3.38      0.00
   -3   10   19     -1.15      0.00
   -2   10   19      2.21      0.00
   -1   10   19     -3.40      0.00
    0   10   19     -0.45      0.00
   -5   11   19      0.06      0.00
   -4   11   19      1.49      0.00
   -3   11   19     -1.62      0.00
   -2   11   19     -4.03      0.00
   -1   11   19     -1.32      0.00
    0   11   19      4.10      0.00
   -5   12   19     -0.04      0.00
   -4   12   19      0.89      0.00
   -3   12   19      1.25      0.00
   -2   12   19      1.88      0.00
   -1   12   19      1.22      0.00
    0   12   19      1.16      0.00
   -6   13   19     -5.64      0.00
   -5   13   19     -4.28      0.00
   -4   13   19     -1.86      0.00
   -3   13   19     -1.96      0.00
   -2   13   19      0.71      0.00
   -1   13   19     -3.90      0.00
    0   13   19      2.43      0.00
   -6   14   19      3.08      0.00
   -5   14   19     -0.03      0.00
   -4   14   19     -4.12      0.00
   -3   14   19     -0.81      0.00
   -2   14   19      0.98      0.00
   -1   14   19     -2.47      0.00
    0   14   19      2.34      0.00
   -7   15   19      1.47      0.00
   -6   15   19     -1.72      0.00
   -5   15   19      3.89      0.00
   -4   15   19      1.64      0.00
   -3   15   19      4.13      0.00
   -2   15   19     -2.48      0.00
   -1   15   19      2.03      0.00
    0   15   19     -2.99      0.00
   -7   16   19      1.09      0.00
   -6   16   19      1.66      0.00
   -5   16   19      0.50      0.00
   -4   16   19      3.99      0.00
   -3   16   19     -1.17      0.00
   -2   16   19     -4.59      0.00
   -1   16   19     -0.23      0.00
    0   16   19     -3.57      0.00
   -8   17   19      2.37      0.00
   -7   17   19      0.11      0.00
   -6   17   19     -0.36      0.00
   -5   17   19     -0.36      0.00
   -4   17   19     -0.87      0.00
   -3   17   19      2.86      0.00
   -2   17   19     -2.79      0.00
   -1   17   19      2.13      0.00
    0   17   19     -2.63      0.00
   -8   18   19     -1.45      0.00
   -7   18   19     -0.78      0.00
   -6   18   19      3.48      0.00
   -5   18   19     -1.64      0.00
   -4   18   19     -2.12      0.00
   -3   18   19     -0.50      0.00
   -2   18   19      0.21      0.00
   -1   18   19     -0.25      0.00
    0   18   19     -1.62      0.00
   -9   19   19      3.02      0.00
   -8   19   19      2.28      0.00
   -7   19   19     -2.32      0.00
   -6   19   19      0.07      0.00
   -5   19   19      3.30      0.00
   -4   19   19     -0.37      0.00
   -3   19   19      0.84      0.00
   -2   19   19      1.01      0.00
   -1   19   19      2.75      0.00
    0   19   19     -2.57      0.00
   -9   20   19      1.87      0.00
   -8   20   19      1.80      0.00
   -7   20   19      1.35      0.00
   -6   20   19     -3.64      0.00
   -5   20   19      1.53      0.00
   -4   20   19     -1.46      0.00
   -3   20   19     -1.10      0.00
   -2   20   19     -2.06      0.00
   -1   20   19     -2.28      0.00
    0   20   19      1.85      0.00
  -10   21   19      4.09      0.00
   -9   21   19     -1.75      0.00
   -8   21   19     -0.14      0.00
   -7   21   19      0.04      0.00
   -6   21   19     -3.37      0.00
   -5   21   19      0.49      0.00
   -4   21   19     -0.14      0.00
   -3   21   19     -4.62      0.00
   -2   21   19     -1.87      0.00
  -10   22   19     -0.65      0.00
   -9   22   19      3.55      0.00
   -8   22   19     -0.14      0.00
   -7   22   19     -0.07      0.00
   -6   22   19     -1.21      0.00
   -5   22   19      2.13      0.00
   -4   22   19     -2.45      0.00
  -11   23   19     -2.75      0.00
  -10   23   19      3.90      0.00
   -9   23   19     -2.44      0.00
   -8   23   19     -0.21      0.00
   -7   23   19      2.01      0.00
    0    0   20     11.53      0.00
    0    1   20     -3.79      0.00
   -1    2   20     -0.09      0.00
    0    2   20      6.30      0.00
   -1    3   20      1.32      0.00
    0    3   20     -2.98      0.00
   -2    4   20     -5.82      0.00
   -1    4   20      4.14      0.00
    0    4   20     -1.55      0.00
   -2    5   20      0.04      0.00
   -1    5   20      4.78      0.00
    0    5   20     -2.22      0.00
   -3    6   20     -2.05      0.00
   -2    6   20     -3.85      0.00
   -1    6   20      3.68      0.00
    0    6   20      2.74      0.00
   -3    7   20      0.68      0.00
   -2    7   20     -3.09      0.00
   -1    7   20     -2.32      0.00
    0    7   20     -1.06      0.00
   -4    8   20     -1.99      0.00
   -3    8   20      1.09      0.00
   -2    8   20      3.70      0.00
   -1    8   20      2.22      0.00
    0    8   20     -0.94      0.00
   -4    9   20     -1.23      0.00
   -3    9   20      3.17      0.00
   -2    9   20     -0.91      0.00
   -1    9   20     -0.51      0.00
    0    9   20     -3.08      0.00
   -5   10   20      3.27      0.00
   -4   10   20      0.01      0.00
   -3   10   20     -0.84      0.00
   -2   10   20     -0.21      0.00
   -1   10   20      2.40      0.00
    0   10   20     -0.04      0.00
   -5   11   20      2.20      0.00
   -4   11   20      3.98      0.00
   -3   11   20     -1.31      0.00
   -2   11   20      3.95      0.00
   -1   11   20      0.67      0.00
    0   11   20     -1.65      0.00
   -6   12   20      2.60      0.00
   -5   12   20     -1.86      0.00
   -4   12   20      1.52      0.00
   -3   12   20     -1.30      0.00
   -2   12   20      1.26      0.00
   -1   12   20     -2.05      0.00
    0   12   20      5.66      0.00
   -6   13   20     -1.03      0.00
   -5   13   20      1.17      0.00
   -4   13   20      2.90      0.00
   -3   13   20     -1.49      0.00
   -2   13   20      2.91      0.00
   -1   13   20     -0.74      0.00
    0   13   20     -1.56      0.00
   -7   14   20      0.53      0.00
   -6   14   20     -0.01      0.00
   -5   14   20      0.89      0.00
   -4   14   20      0.32      0.00
   -3   14   20     -3.66      0.00
   -2   14   20     -1.67      0.00
   -1   14   20     -0.21      0.00
    0   14   20      2.65      0.00
   -7   15   20      0.55      0.00
   -6   15   20      1.15      0.00
   -5   15   20     -0.35      0.00
   -4   15   20     -3.65      0.00
   -3   15   20      0.27      0.00
   -2   15   20     -0.98      0.00
   -1   15   20      1.83      0.00
    0   15   20     -1.19      0.00
   -8   16   20     -1.60      0.00
   -7   16   20      0.44      0.00
   -6   16   20     -3.06      0.00
   -5   16   20      0.14      0.00
   -4   16   20      1.91      0.00
   -3   16   20     -1.18      0.00
   -2   16   20     -4.37      0.00
   -1   16   20     -0.78      0.00
    0   16   20      0.53      0.00
   -8   17   20     -0.58      0.00
   -7   17   20      0.67      0.00
   -6   17   20      2.27      0.00
   -5   17   20      1.89      0.00
   -4   17   20     -0.58      0.00
   -3   17   20      2.88      0.00
   -2   17   20      0.26      0.00
   -1   17   20      0.12      0.00
    0   17   20     -0.01      0.00
   -9   18   20     -0.98      0.00
   -8   18   20      1.45      0.00
   -7   18   20      1.77      0.00
   -6   18   20      0.84      0.00
   -5   18   20     -1.63      0.00
   -4   18   20      0.04      0.00
   -3   18   20     -2.17      0.00
   -2   18   20      3.61      0.00
   -1   18   20     -0.90      0.00
    0   18   20      1.23      0.00
   -9   19   20     -2.45      0.00
   -8   19   20     -1.01      0.00
   -7   19   20      0.67      0.00
   -6   19   20      1.89      0.00
   -5   19   20      1.69      0.00
   -4   19   20     -0.82      0.00
   -3   19   20     -2.17      0.00
   -2   19   20     -0.94      0.00
   -1   19   20     -1.19      0.00
    0   19   20      0.43      0.00
  -10   20   20      4.75      0.00
   -9   20   20      3.68      0.00
   -8   20   20      2.01      0.00
   -7   20   20     -0.41      0.00
   -6   20   20     -0.56      0.00
   -5   20   20     -3.44      0.00
   -4   20   20     -2.50      0.00
   -3   20   20     -0.29      0.00
   -2   20   20      1.39      0.00
   -1   20   20      0.14      0.00
    0   20   20      1.92      0.00
  -10   21   20     -0.81      0.00
   -9   21   20      1.70      0.00
   -8   21   20      0.39      0.00
   -7   21   20     -1.04      0.00
   -6   21   20      0.58      0.00
   -5   21   20     -0.88      0.00
   -4   21   20      2.79      0.00
   -3   21   20     -0.89      0.00
   -2   21   20     -0.52      0.00
  -11   22   20     -1.85      0.00
  -10   22   20      1.75      0.00
   -9   22   20      0.05      0.00
   -8   22   20      0.28      0.00
   -7   22   20      3.16      0.00
   -6   22   20     -1.17      0.00
   -5   22   20      0.17      0.00
    0    1   21     -3.37      0.00
    0    2   21     -0.32      0.00
   -1    3   21     -0.37      0.00
    0    3   21      1.52      0.00
   -1    4   21     -4.67      0.00
    0    4   21     -0.88      0.00
   -2    5   21      3.76      0.00
   -1    5   21     -1.25      0.00
    0    5   21      7.16      0.00
   -2    6   21      1.52      0.00
   -1    6   21     -1.67      0.00
    0    6   21     -3.48      0.00
   -3    7   21      1.97      0.00
   -2    7   21     -2.33      0.00
   -1    7   21      2.86      0.00
    0    7   21      1.02      0.00
   -3    8   21     -5.19      0.00
   -2    8   21     -1.00      0.00
   -1    8   21     -0.34      0.00
    0    8   21     -5.58      0.00
   -4    9   21      1.38      0.00
   -3    9   21      2.94      0.00
   -2    9   21     -5.00      0.00
   -1    9   21      3.35      0.00
    0    9   21      1.42      0.00
   -4   10   21     -1.20      0.00
   -3   10   21      0.05      0.00
   -2   10   21      1.56      0.00
   -1   10   21      2.15      0.00
    0   10   21     -0.16      0.00
   -5   11   21      0.13      0.00
   -4   11   21      7.79      0.00
   -3   11   21     -3.68      0.00
   -2   11   21      0.39      0.00
   -1   11   21      1.67      0.00
    0   11   21      1.28      0.00
   -5   12   21     -7.41      0.00
   -4   12   21      0.02      0.00
   -3   12   21     -1.01      0.00
   -2   12   21      0.27      0.00
   -1   12   21     -0.14      0.00
    0   12   21      0.51      0.00
   -6   13   21      2.11      0.00
   -5   13   21      3.01      0.00
   -4   13   21      0.59      0.00
   -3   13   21      4.01      0.00
   -2   13   21      1.48      0.00
   -1   13   21      1.59      0.00
    0   13   21     -0.03      0.00
   -6   14   21      1.26      0.00
   -5   14   21      1.95      0.00
   -4   14   21      1.08      0.00
   -3   14   21     -0.99      0.00
   -2   14   21      1.82      0.00
   -1   14   21      0.37      0.00
    0   14   21      1.17      0.00
   -7   15   21      0.69      0.00
   -6   15   21     -1.83      0.00
   -5   15   21      4.75      0.00
   -4   15   21     -1.28      0.00
   -3   15   21     -8.40      0.00
   -2   15   21      3.49      0.00
   -1   15   21      0.78      0.00
    0   15   21      0.59      0.00
   -7   16   21      2.37      0.00
   -6   16   21     -1.02      0.00
   -5   16   21      0.71      0.00
   -4   16   21      0.33      0.00
   -3   16   21      5.11      0.00
   -2   16   21     -1.37      0.00
   -1   16   21      2.23      0.00
    0   16   21      2.45      0.00
   -8   17   21     -0.47      0.00
   -7   17   21     -0.61      0.00
   -6   17   21      2.12      0.00
   -5   17   21     -3.14      0.00
   -4   17   21      0.67      0.00
   -3   17   21     -0.17      0.00
   -2   17   21      3.76      0.00
   -1   17   21      2.30      0.00
    0   17   21      0.30      0.00
   -8   18   21     -2.13      0.00
   -7   18   21      0.84      0.00
   -6   18   21     -1.22      0.00
   -5   18   21     -0.20      0.00
   -4   18   21      2.35      0.00
   -3   18   21     -0.49      0.00
   -2   18   21      1.84      0.00
   -1   18   21     -1.28      0.00
    0   18   21     -1.72      0.00
   -9   19   21      2.62      0.00
   -8   19   21     -2.18      0.00
   -7   19   21      0.06      0.00
   -6   19   21     -0.42      0.00
   -5   19   21     -1.11      0.00
   -4   19   21     -2.68      0.00
   -3   19   21      0.08      0.00
   -2   19   21     -3.10      0.00
   -1   19   21      0.44      0.00
    0   19   21     -0.93      0.00
   -9   20   21     -1.17      0.00
   -8   20   21     -0.82      0.00
   -7   20   21     -0.60      0.00
   -6   20   21      0.92      0.00
   -5   20   21     -2.95      0.00
   -4   20   21      2.68      0.00
   -3   20   21      1.76      0.00
   -2   20   21      1.43      0.00
   -1   20   21     -2.62      0.00
  -10   21   21     -1.06      0.00
   -9   21   21      0.61      0.00
   -8   21   21     -1.09      0.00
   -7   21   21      1.78      0.00
   -6   21   21      3.24      0.00
   -5   21   21     -1.17      0.00
   -4   21   21      1.41      0.00
   -3   21   21      0.63      0.00
  -10   22   21      0.17      0.00
   -9   22   21     -2.03      0.00
   -8   22   21     -0.25      0.00
   -7   22   21     -0.84      0.00
    0    0   22      3.44      0.00
    0    1   22      0.47      0.00
   -1    2   22     -4.09      0.00
    0    2   22      0.26      0.00
   -1    3   22     -0.04      0.00
    0    3   22     -2.48      0.00
   -2    4   22     -3.00      0.00
   -1    4   22     -1.40      0.00
    0    4   22     -1.77      0.00
   -2    5   22      1.07      0.00
   -1    5   22     -0.70      0.00
    0    5   22     -0.04      0.00
   -3    6   22     -4.15      0.00
   -2    6   22      2.36      0.00
   -1    6   22     -0.70      0.00
    0    6   22      1.40      0.00
   -3    7   22      2.84      0.00
   -2    7   22      0.28      0.00
   -1    7   22     -1.90      0.00
    0    7   22      2.11      0.00
   -4    8   22     -2.00      0.00
   -3    8   22     -2.74      0.00
   -2    8   22      1.57      0.00
   -1    8   22      2.30      0.00
    0    8   22      1.92      0.00
   -4    9   22     -0.28      0.00
   -3    9   22     -0.81      0.00
   -2    9   22     -1.01      0.00
   -1    9   22      0.91      0.00
    0    9   22     -1.66      0.00
   -5   10   22      1.82      0.00
   -4   10   22     -0.83      0.00
   -3   10   22      2.87      0.00
   -2   10   22     -2.98      0.00
   -1   10   22      0.04      0.00
    0   10   22      2.40      0.00
   -5   11   22      0.38      0.00
   -4   11   22      2.51      0.00
   -3   11   22      2.82      0.00
   -2   11   22     -1.29      0.00
   -1   11   22     -2.33      0.00
    0   11   22      2.30      0.00
   -6   12   22     -2.65      0.00
   -5   12   22      8.21      0.00
   -4   12   22     -6.36      0.00
   -3   12   22      3.09      0.00
   -2   12   22      1.48      0.00
   -1   12   22      0.99      0.00
    0   12   22      2.01      0.00
   -6   13   22     -2.98      0.00
   -5   13   22      0.92      0.00
   -4   13   22     -5.29      0.00
   -3   13   22      0.25      0.00
   -2   13   22     -0.04      0.00
   -1   13   22     -0.53      0.00
    0   13   22     -3.67      0.00
   -7   14   22      0.63      0.00
   -6   14   22      0.89      0.00
   -5   14   22     -3.01      0.00
   -4   14   22      2.68      0.00
   -3   14   22     -0.23      0.00
   -2   14   22     -1.63      0.00
   -1   14   22     -1.54      0.00
    0   14   22      1.46      0.00
   -7   15   22     -4.71      0.00
   -6   15   22     -0.04      0.00
   -5   15   22      1.16      0.00
   -4   15   22      1.78      0.00
   -3   15   22     -2.35      0.00
   -2   15   22      2.43      0.00
   -1   15   22      0.13      0.00
    0   15   22      0.16      0.00
   -8   16   22      2.36      0.00
   -7   16   22      2.30      0.00
   -6   16   22      0.26      0.00
   -5   16   22     -0.92      0.00
   -4   16   22     -3.06      0.00
   -3   16   22      5.45      0.00
   -2   16   22     -1.61      0.00
   -1   16   22      3.08      0.00
    0   16   22      0.48      0.00
   -8   17   22      5.78      0.00
   -7   17   22     -4.26      0.00
   -6   17   22     -0.41      0.00
   -5   17   22     -0.38      0.00
   -4   17   22     -2.69      0.00
   -3   17   22     -3.30      0.00
   -2   17   22      0.80      0.00
   -1   17   22      2.04      0.00
    0   17   22      2.20      0.00
   -9   18   22     -0.29      0.00
   -8   18   22      3.27      0.00
   -7   18   22     -0.08      0.00
   -6   18   22     -2.97      0.00
   -5   18   22     -1.17      0.00
   -4   18   22     -2.75      0.00
   -3   18   22      0.68      0.00
   -2   18   22      0.36      0.00
   -1   18   22     -1.25      0.00
    0   18   22     -1.90      0.00
   -9   19   22      3.64      0.00
   -8   19   22     -0.58      0.00
   -7   19   22      1.77      0.00
   -6   19   22     -3.11      0.00
   -5   19   22      3.02      0.00
   -4   19   22     -3.01      0.00
   -3   19   22     -1.81      0.00
   -2   19   22     -1.64      0.00
   -1   19   22      0.97      0.00
    0   19   22      4.19      0.00
  -10   20   22      0.04      0.00
   -9   20   22     -3.79      0.00
   -8   20   22     -1.51      0.00
   -7   20   22     -0.27      0.00
   -6   20   22      1.90      0.00
   -5   20   22      0.30      0.00
   -4   20   22     -0.55      0.00
   -3   20   22      1.95      0.00
   -2   20   22      0.13      0.00
  -10   21   22      4.68      0.00
   -9   21   22     -2.55      0.00
   -8   21   22     -0.07      0.00
   -7   21   22      0.21      0.00
   -6   21   22     -4.64      0.00
   -5   21   22      1.66      0.00
  -11   22   22      1.59      0.00
  -10   22   22     -0.29      0.00
   -9   22   22      0.25      0.00
    0    1   23     -8.00      0.00
    0    2   23      3.68      0.00
   -1    3   23      5.27      0.00
    0    3   23     -3.08      0.00
   -1    4   23      0.57      0.00
    0    4   23     -1.47      0.00
   -2    5   23     -0.77      0.00
   -1    5   23     -1.32      0.00
    0    5   23      4.82      0.00
   -2    6   23      1.25      0.00
   -1    6   23     -3.17      0.00
    0    6   23     -0.78      0.00
   -3    7   23     -1.25      0.00
   -2    7   23     -1.74      0.00
   -1    7   23      2.66      0.00
    0    7   23      1.64      0.00
   -3    8   23     -4.50      0.00
   -2    8   23      2.52      0.00
   -1    8   23     -1.61      0.00
    0    8   23      4.53      0.00
   -4    9   23     -0.33      0.00
   -3    9   23      1.14      0.00
   -2    9   23      0.97      0.00
   -1    9   23      1.20      0.00
    0    9   23      2.72      0.00
   -4   10   23     -4.08      0.00
   -3   10   23     -0.21      0.00
   -2   10   23      5.66      0.00
   -1   10   23     -2.10      0.00
    0   10   23     -0.67      0.00
   -5   11   23      3.23      0.00
   -4   11   23      2.22      0.00
   -3   11   23     -2.23      0.00
   -2   11   23      3.70      0.00
   -1   11   23     -0.44      0.00
    0   11   23      1.43      0.00
   -5   12   23      1.89      0.00
   -4   12   23      3.73      0.00
   -3   12   23      3.81      0.00
   -2   12   23     -1.24      0.00
   -1   12   23      1.26      0.00
    0   12   23     -2.29      0.00
   -6   13   23      2.64      0.00
   -5   13   23     -1.90      0.00
   -4   13   23     -0.69      0.00
   -3   13   23     -4.02      0.00
   -2   13   23      0.13      0.00
   -1   13   23      5.53      0.00
    0   13   23      1.84      0.00
   -6   14   23      1.25      0.00
   -5   14   23     -0.24      0.00
   -4   14   23      5.08      0.00
   -3   14   23      0.87      0.00
   -2   14   23      0.71      0.00
   -1   14   23     -0.92      0.00
    0   14   23      1.08      0.00
   -7   15   23     -0.04      0.00
   -6   15   23      1.31      0.00
   -5   15   23      1.76      0.00
   -4   15   23      0.10      0.00
   -3   15   23      6.49      0.00
   -2   15   23     -1.32      0.00
   -1   15   23      0.03      0.00
    0   15   23     -4.09      0.00
   -7   16   23      1.72      0.00
   -6   16   23      0.27      0.00
   -5   16   23      1.01      0.00
   -4   16   23      1.99      0.00
   -3   16   23     -3.58      0.00
   -2   16   23     -4.32      0.00
   -1   16   23     -4.97      0.00
    0   16   23     -6.22      0.00
   -8   17   23      3.25      0.00
   -7   17   23     -3.81      0.00
   -6   17   23      1.34      0.00
   -5   17   23      3.03      0.00
   -4   17   23     -0.35      0.00
   -3   17   23     -3.61      0.00
   -2   17   23     -2.92      0.00
   -1   17   23     -2.15      0.00
    0   17   23     -0.65      0.00
   -8   18   23      0.26      0.00
   -7   18   23      0.55      0.00
   -6   18   23      2.22      0.00
   -5   18   23      0.34      0.00
   -4   18   23     -4.36      0.00
   -3   18   23     -2.95      0.00
   -2   18   23     -1.28      0.00
   -1   18   23     -0.62      0.00
    0   18   23      3.20      0.00
   -9   19   23     -0.16      0.00
   -8   19   23      0.33      0.00
   -7   19   23     -0.43      0.00
   -6   19   23     -0.14      0.00
   -5   19   23      3.32      0.00
   -4   19   23     -0.11      0.00
   -3   19   23     -0.80      0.00
   -2   19   23     -0.90      0.00
   -1   19   23      3.78      0.00
   -9   20   23     -0.89      0.00
   -8   20   23      1.03      0.00
   -7   20   23     -0.13      0.00
   -6   20   23      1.14      0.00
   -5   20   23      2.83      0.00
   -4   20   23     -2.53      0.00
   -3   20   23     -1.84      0.00
  -10   21   23      1.64      0.00
   -9   21   23     -0.69      0.00
   -8   21   23      0.39      0.00
   -7   21   23      1.30      0.00
   -6   21   23     -3.79      0.00
    0    0   24      2.99      0.00
    0    1   24      0.31      0.00
   -1    2   24     -1.86      0.00
    0    2   24      0.83      0.00
   -1    3   24      1.90      0.00
    0    3   24     -0.06      0.00
   -2    4   24      0.76      0.00
   -1    4   24     -0.33      0.00
    0    4   24      0.75      0.00
   -2    5   24     -2.46      0.00
   -1    5   24     -0.55      0.00
    0    5   24      3.91      0.00
   -3    6   24      2.88      0.00
   -2    6   24      1.43      0.00
   -1    6   24      0.46      0.00
    0    6   24      0.01      0.00
   -3    7   24     -0.15      0.00
   -2    7   24      0.05      0.00
   -1    7   24      1.76      0.00
    0    7   24      2.91      0.00
   -4    8   24      4.47      0.00
   -3    8   24      2.65      0.00
   -2    8   24     -0.30      0.00
   -1    8   24      0.56      0.00
    0    8   24      0.36      0.00
   -4    9   24     -1.61      0.00
   -3    9   24     -0.46      0.00
   -2    9   24     -0.86      0.00
   -1    9   24     -0.80      0.00
    0    9   24      1.66      0.00
   -5   10   24     -1.55      0.00
   -4   10   24      4.28      0.00
   -3   10   24     -4.01      0.00
   -2   10   24      3.87      0.00
   -1   10   24      1.97      0.00
    0   10   24      0.66      0.00
   -5   11   24      0.10      0.00
   -4   11   24      0.70      0.00
   -3   11   24     -2.16      0.00
   -2   11   24     -1.13      0.00
   -1   11   24      0.63      0.00
    0   11   24      1.58      0.00
   -6   12   24     -0.02      0.00
   -5   12   24      2.11      0.00
   -4   12   24     -2.84      0.00
   -3   12   24     -1.99      0.00
   -2   12   24     -2.15      0.00
   -1   12   24      0.10      0.00
    0   12   24      0.26      0.00
   -6   13   24      1.96      0.00
   -5   13   24      0.00      0.00
   -4   13   24      2.90      0.00
   -3   13   24     -2.35      0.00
   -2   13   24      2.06      0.00
   -1   13   24      1.64      0.00
    0   13   24      3.29      0.00
   -7   14   24      2.28      0.00
   -6   14   24     -1.81      0.00
   -5   14   24    -10.16      0.00
   -4   14   24     -0.38      0.00
   -3   14   24     -0.57      0.00
   -2   14   24      2.72      0.00
   -1   14   24      0.41      0.00
    0   14   24      1.22      0.00
   -7   15   24      1.96      0.00
   -6   15   24      1.33      0.00
   -5   15   24      1.34      0.00
   -4   15   24     -2.39      0.00
   -3   15   24      1.96      0.00
   -2   15   24     -3.37      0.00
   -1   15   24      2.07      0.00
    0   15   24     -1.50      0.00
   -8   16   24      2.75      0.00
   -7   16   24      1.32      0.00
   -6   16   24     -1.30      0.00
   -5   16   24      2.52      0.00
   -4   16   24      5.66      0.00
   -3   16   24      3.31      0.00
   -2   16   24     -2.47      0.00
   -1   16   24     -1.11      0.00
    0   16   24     -3.87      0.00
   -8   17   24      0.19      0.00
   -7   17   24      0.24      0.00
   -6   17   24      1.68      0.00
   -5   17   24      2.83      0.00
   -4   17   24      0.28      0.00
   -3   17   24      1.91      0.00
   -2   17   24     -0.37      0.00
   -1   17   24     -0.13      0.00
    0   17   24     -0.67      0.00
   -9   18   24     -4.67      0.00
   -8   18   24      0.64      0.00
   -7   18   24      1.50      0.00
   -6   18   24      0.95      0.00
   -5   18   24      0.61      0.00
   -4   18   24      1.52      0.00
   -3   18   24      1.08      0.00
   -2   18   24     -0.43      0.00
   -1   18   24     -1.65      0.00
    0   18   24      2.57      0.00
   -9   19   24     -1.67      0.00
   -8   19   24     -0.57      0.00
   -7   19   24     -1.35      0.00
   -6   19   24      1.68      0.00
   -5   19   24      2.05      0.00
   -4   19   24     -2.50      0.00
   -3   19   24     -0.73      0.00
   -2   19   24      0.12      0.00
  -10   20   24      2.80      0.00
   -9   20   24      6.07      0.00
   -8   20   24      1.23      0.00
   -7   20   24      0.08      0.00
   -6   20   24     -2.38      0.00
   -5   20   24     -3.06      0.00
   -4   20   24      0.75      0.00
  -10   21   24     -0.47      0.00
   -9   21   24      0.07      0.00
   -8   21   24      0.97      0.00
    0    1   25     -4.13      0.00
    0    2   25      2.35      0.00
   -1    3   25     -1.49      0.00
    0    3   25      2.56      0.00
   -1    4   25      1.14      0.00
    0    4   25     -1.18      0.00
   -2    5   25     -0.04      0.00
   -1    5   25      2.60      0.00
    0    5   25      4.76      0.00
   -2    6   25      2.84      0.00
   -1    6   25     -1.46      0.00
    0    6   25     -5.59      0.00
   -3    7   25      1.73      0.00
   -2    7   25     -2.07      0.00
   -1    7   25      1.92      0.00
    0    7   25     -1.85      0.00
   -3    8   25      5.65      0.00
   -2    8   25     -4.10      0.00
   -1    8   25     -0.48      0.00
    0    8   25      0.72      0.00
   -4    9   25     -2.55      0.00
   -3    9   25      1.83      0.00
   -2    9   25     -1.64      0.00
   -1    9   25     -0.82      0.00
    0    9   25      1.60      0.00
   -4   10   25      1.71      0.00
   -3   10   25     -0.64      0.00
   -2   10   25      0.23      0.00
   -1   10   25     -0.94      0.00
    0   10   25     -0.61      0.00
   -5   11   25      1.89      0.00
   -4   11   25     -0.15      0.00
   -3   11   25      2.14      0.00
   -2   11   25     -1.74      0.00
   -1   11   25     -1.74      0.00
    0   11   25     -0.51      0.00
   -5   12   25     -0.10      0.00
   -4   12   25     -3.42      0.00
   -3   12   25      0.77      0.00
   -2   12   25     -0.02      0.00
   -1   12   25     -1.62      0.00
    0   12   25      4.14      0.00
   -6   13   25      2.70      0.00
   -5   13   25      2.57      0.00
   -4   13   25     -0.48      0.00
   -3   13   25      6.01      0.00
   -2   13   25      3.76      0.00
   -1   13   25     -0.15      0.00
    0   13   25     -2.29      0.00
   -6   14   25     -0.14      0.00
   -5   14   25     -1.40      0.00
   -4   14   25     -1.05      0.00
   -3   14   25      3.53      0.00
   -2   14   25     -1.09      0.00
   -1   14   25      1.49      0.00
    0   14   25     -0.32      0.00
   -7   15   25     -4.96      0.00
   -6   15   25     -4.82      0.00
   -5   15   25      3.28      0.00
   -4   15   25     -4.72      0.00
   -3   15   25     -0.58      0.00
   -2   15   25     -0.50      0.00
   -1   15   25      1.37      0.00
    0   15   25      0.98      0.00
   -7   16   25      3.35      0.00
   -6   16   25     -3.59      0.00
   -5   16   25     -1.72      0.00
   -4   16   25     -0.61      0.00
   -3   16   25      6.03      0.00
   -2   16   25     -0.23      0.00
   -1   16   25      0.54      0.00
    0   16   25     -1.03      0.00
   -8   17   25     -1.45      0.00
   -7   17   25     -0.54      0.00
   -6   17   25      2.87      0.00
   -5   17   25     -3.05      0.00
   -4   17   25      0.64      0.00
   -3   17   25     -0.03      0.00
   -2   17   25      1.15      0.00
   -1   17   25     -2.25      0.00
    0   17   25     -0.61      0.00
   -8   18   25      0.56      0.00
   -7   18   25      3.23      0.00
   -6   18   25     -0.97      0.00
   -5   18   25      0.63      0.00
   -4   18   25     -0.05      0.00
   -3   18   25      2.70      0.00
   -2   18   25     -1.53      0.00
   -1   18   25     -1.94      0.00
   -9   19   25      1.61      0.00
   -8   19   25     -1.90      0.00
   -7   19   25      0.36      0.00
   -6   19   25     -2.07      0.00
   -5   19   25      0.89      0.00
   -4   19   25      0.63      0.00
   -3   19   25     -3.16      0.00
   -9   20   25     -1.14      0.00
   -8   20   25      0.54      0.00
   -7   20   25     -1.06      0.00
   -6   20   25     -0.39      0.00
    0    0   26    -12.19      0.00
    0    1   26     -0.57      0.00
   -1    2   26      0.93      0.00
    0    2   26     -2.77      0.00
   -1    3   26     -0.19      0.00
    0    3   26      3.58      0.00
   -2    4   26     -0.04      0.00
   -1    4   26     -0.03      0.00
    0    4   26     -2.39      0.00
   -2    5   26     -3.43      0.00
   -1    5   26      0.56      0.00
    0    5   26      4.52      0.00
   -3    6   26      1.68      0.00
   -2    6   26     -0.40      0.00
   -1    6   26      0.36      0.00
    0    6   26     -6.60      0.00
   -3    7   26     -0.11      0.00
   -2    7   26      0.85      0.00
   -1    7   26     -0.16      0.00
    0    7   26     -3.71      0.00
   -4    8   26     -2.89      0.00
   -3    8   26     -1.38      0.00
   -2    8   26      1.14      0.00
   -1    8   26     -1.52      0.00
    0    8   26     -1.39      0.00
   -4    9   26      7.32      0.00
   -3    9   26      1.35      0.00
   -2    9   26      1.26      0.00
   -1    9   26      1.41      0.00
    0    9   26      3.02      0.00
   -5   10   26     -0.07      0.00
   -4   10   26      3.98      0.00
   -3   10   26      1.80      0.00
   -2   10   26     -1.03      0.00
   -1   10   26      0.67      0.00
    0   10   26     -4.67      0.00
   -5   11   26      0.94      0.00
   -4   11   26     -0.66      0.00
   -3   11   26      2.16      0.00
   -2   11   26     -1.62      0.00
   -1   11   26      0.14      0.00
    0   11   26     -0.91      0.00
   -6   12   26     -5.67      0.00
   -5   12   26     -0.16      0.00
   -4   12   26     -1.04      0.00
   -3   12   26      8.01      0.00
   -2   12   26     -1.54      0.00
   -1   12   26      0.74      0.00
    0   12   26     -3.31      0.00
   -6   13   26      0.10      0.00
   -5   13   26     -2.09      0.00
   -4   13   26      0.21      0.00
   -3   13   26     -3.10      0.00
   -2   13   26     -0.24      0.00
   -1   13   26     -2.10      0.00
    0   13   26     -1.24      0.00
   -7   14   26      0.18      0.00
   -6   14   26      7.25      0.00
   -5   14   26      0.33      0.00
   -4   14   26      5.76      0.00
   -3   14   26     -2.93      0.00
   -2   14   26      0.52      0.00
   -1   14   26      3.65      0.00
    0   14   26     -0.90      0.00
   -7   15   26     -1.67      0.00
   -6   15   26      5.77      0.00
   -5   15   26     -4.06      0.00
   -4   15   26      1.96      0.00
   -3   15   26     -4.07      0.00
   -2   15   26      0.26      0.00
   -1   15   26     -0.68      0.00
    0   15   26     -0.21      0.00
   -8   16   26     -1.38      0.00
   -7   16   26      0.39      0.00
   -6   16   26     -1.76      0.00
   -5   16   26     -5.51      0.00
   -4   16   26     -7.79      0.00
   -3   16   26      0.31      0.00
   -2   16   26      0.12      0.00
   -1   16   26     -0.71      0.00
    0   16   26     -0.16      0.00
   -8   17   26      2.83      0.00
   -7   17   26     -2.50      0.00
   -6   17   26      0.46      0.00
   -5   17   26     -1.31      0.00
   -4   17   26     -1.82      0.00
   -3   17   26     -4.56      0.00
   -2   17   26      5.71      0.00
   -1   17   26      0.17      0.00
    0   17   26     -2.37      0.00
   -9   18   26      3.19      0.00
   -8   18   26      0.64      0.00
   -7   18   26      0.13      0.00
   -6   18   26      0.85      0.00
   -5   18   26     -2.97      0.00
   -4   18   26      0.77      0.00
   -3   18   26      2.66      0.00
   -2   18   26     -1.69      0.00
   -9   19   26      0.82      0.00
   -8   19   26      0.02      0.00
   -7   19   26      1.57      0.00
   -6   19   26     -0.88      0.00
   -5   19   26      1.01      0.00
  -10   20   26     -0.61      0.00
   -9   20   26     -6.33      0.00
    0    1   27      0.98      0.00
    0    2   27     -0.23      0.00
   -1    3   27     -0.84      0.00
    0    3   27     -0.94      0.00
   -1    4   27      1.86      0.00
    0    4   27     -1.74      0.00
   -2    5   27      2.18      0.00
   -1    5   27      2.67      0.00
    0    5   27     -6.41      0.00
   -2    6   27      2.64      0.00
   -1    6   27     -0.57      0.00
    0    6   27      1.08      0.00
   -3    7   27     -2.86      0.00
   -2    7   27      2.51      0.00
   -1    7   27      0.29      0.00
    0    7   27     -0.40      0.00
   -3    8   27      2.87      0.00
   -2    8   27      2.71      0.00
   -1    8   27      0.64      0.00
    0    8   27      0.91      0.00
   -4    9   27     -1.34      0.00
   -3    9   27      1.58      0.00
   -2    9   27     -1.14      0.00
   -1    9   27      1.90      0.00
    0    9   27     -5.32      0.00
   -4   10   27      4.16      0.00
   -3   10   27      1.04      0.00
   -2   10   27      1.16      0.00
   -1   10   27      1.72      0.00
    0   10   27      0.95      0.00
   -5   11   27     -1.29      0.00
   -4   11   27      0.99      0.00
   -3   11   27     -1.05      0.00
   -2   11   27     -0.32      0.00
   -1   11   27     -0.26      0.00
    0   11   27     -1.65      0.00
   -5   12   27     -1.34      0.00
   -4   12   27      3.05      0.00
   -3   12   27     -0.36      0.00
   -2   12   27     -0.53      0.00
   -1   12   27      2.88      0.00
    0   12   27     -2.32      0.00
   -6   13   27      2.60      0.00
   -5   13   27     -3.19      0.00
   -4   13   27      0.35      0.00
   -3   13   27     -3.88      0.00
   -2   13   27     -2.17      0.00
   -1   13   27     -4.42      0.00
    0   13   27      2.37      0.00
   -6   14   27      1.73      0.00
   -5   14   27      0.79      0.00
   -4   14   27      3.06      0.00
   -3   14   27     -3.76      0.00
   -2   14   27      0.76      0.00
   -1   14   27     -2.29      0.00
    0   14   27      1.61      0.00
   -7   15   27      0.02      0.00
   -6   15   27      4.03      0.00
   -5   15   27      4.60      0.00
   -4   15   27     -0.45      0.00
   -3   15   27      4.25      0.00
   -2   15   27      0.55      0.00
   -1   15   27     -0.51      0.00
    0   15   27     -3.82      0.00
   -7   16   27      7.02      0.00
   -6   16   27      1.55      0.00
   -5   16   27      1.47      0.00
   -4   16   27      1.04      0.00
   -3   16   27      0.08      0.00
   -2   16   27      1.12      0.00
   -1   16   27     -1.99      0.00
    0   16   27     10.33      0.00
   -8   17   27      2.09      0.00
   -7   17   27     -0.72      0.00
   -6   17   27      1.28      0.00
   -5   17   27      2.26      0.00
   -4   17   27     -0.29      0.00
   -3   17   27      0.33      0.00
   -2   17   27      7.29      0.00
   -8   18   27      0.64      0.00
   -7   18   27     -1.51      0.00
   -6   18   27      0.88      0.00
   -5   18   27     -3.05      0.00
   -4   18   27     -1.82      0.00
   -9   19   27      0.31      0.00
   -8   19   27     -1.52      0.00
   -7   19   27     -0.21      0.00
    0    0   28      3.41      0.00
    0    1   28      1.11      0.00
   -1    2   28      0.93      0.00
    0    2   28     -1.66      0.00
   -1    3   28     -0.87      0.00
    0    3   28     -2.23      0.00
   -2    4   28      5.42      0.00
   -1    4   28     -1.08      0.00
    0    4   28     -6.82      0.00
   -2    5   28     -0.33      0.00
   -1    5   28      4.71      0.00
    0    5   28      2.30      0.00
   -3    6   28      1.71      0.00
   -2    6   28      0.63      0.00
   -1    6   28     -2.78      0.00
    0    6   28      1.54      0.00
   -3    7   28     -0.61      0.00
   -2    7   28     -3.12      0.00
   -1    7   28      1.51      0.00
    0    7   28      0.03      0.00
   -4    8   28      3.22      0.00
   -3    8   28     -2.81      0.00
   -2    8   28      6.23      0.00
   -1    8   28     -0.39      0.00
    0    8   28     -1.65      0.00
   -4    9   28     -3.32      0.00
   -3    9   28      3.11      0.00
   -2    9   28      2.38      0.00
   -1    9   28     -1.96      0.00
    0    9   28     -4.38      0.00
   -5   10   28      4.37      0.00
   -4   10   28     -2.75      0.00
   -3   10   28     -0.61      0.00
   -2   10   28      5.38      0.00
   -1   10   28     -3.29      0.00
    0   10   28     -1.96      0.00
   -5   11   28      2.94      0.00
   -4   11   28     -5.44      0.00
   -3   11   28     -0.64      0.00
   -2   11   28     -2.14      0.00
   -1   11   28     -1.02      0.00
    0   11   28      2.75      0.00
   -6   12   28     -1.51      0.00
   -5   12   28      4.18      0.00
   -4   12   28     -1.61      0.00
   -3   12   28     -2.16      0.00
   -2   12   28     -1.04      0.00
   -1   12   28      2.30      0.00
    0   12   28      4.69      0.00
   -6   13   28     -0.18      0.00
   -5   13   28      3.74      0.00
   -4   13   28     -0.49      0.00
   -3   13   28      2.74      0.00
   -2   13   28      3.26      0.00
   -1   13   28      2.23      0.00
    0   13   28     -1.08      0.00
   -7   14   28     -3.00      0.00
   -6   14   28     -2.87      0.00
   -5   14   28     -0.28      0.00
   -4   14   28      5.29      0.00
   -3   14   28     -2.08      0.00
   -2   14   28     -1.83      0.00
   -1   14   28      2.65      0.00
    0   14   28      1.82      0.00
   -7   15   28     -0.43      0.00
   -6   15   28     -2.23      0.00
   -5   15   28      5.07      0.00
   -4   15   28     -3.95      0.00
   -3   15   28      3.30      0.00
   -2   15   28     -2.95      0.00
   -1   15   28     -0.35      0.00
    0   15   28      0.13      0.00
   -8   16   28     -0.90      0.00
   -7   16   28     -1.25      0.00
   -6   16   28     -0.92      0.00
   -5   16   28      5.94      0.00
   -4   16   28      5.12      0.00
   -3   16   28      0.68      0.00
   -2   16   28     -1.25      0.00
   -1   16   28     -1.20      0.00
   -8   17   28     -2.03      0.00
   -7   17   28      3.01      0.00
   -6   17   28     -1.53      0.00
   -5   17   28      2.45      0.00
   -4   17   28     -0.69      0.00
   -3   17   28     -1.26      0.00
   -9   18   28      0.59      0.00
   -8   18   28     -1.26      0.00
   -7   18   28      1.05      0.00
   -6   18   28      0.24      0.00
   -5   18   28      1.87      0.00
    0    1   29      5.48      0.00
    0    2   29      3.14      0.00
   -1    3   29      1.32      0.00
    0    3   29      2.16      0.00
   -1    4   29     -0.71      0.00
    0    4   29     -3.76      0.00
   -2    5   29     -3.07      0.00
   -1    5   29     -2.85      0.00
    0    5   29     -1.63      0.00
   -2    6   29     -2.55      0.00
   -1    6   29      0.38      0.00
    0    6   29      1.66      0.00
   -3    7   29     -6.44      0.00
   -2    7   29      7.58      0.00
   -1    7   29      0.00      0.00
    0    7   29      1.36      0.00
   -3    8   29      5.91      0.00
   -2    8   29     -0.59      0.00
   -1    8   29     -8.21      0.00
    0    8   29      2.83      0.00
   -4    9   29      0.49      0.00
   -3    9   29      0.93      0.00
   -2    9   29      2.13      0.00
   -1    9   29      1.70      0.00
    0    9   29      6.77      0.00
   -4   10   29     10.66      0.00
   -3   10   29     -3.12      0.00
   -2   10   29     -1.34      0.00
   -1   10   29     -1.87      0.00
    0   10   29     -6.39      0.00
   -5   11   29     -8.52      0.00
   -4   11   29      2.70      0.00
   -3   11   29      2.11      0.00
   -2   11   29     -0.50      0.00
   -1   11   29     -1.35      0.00
    0   11   29     -2.20      0.00
   -5   12   29     -7.55      0.00
   -4   12   29      1.37      0.00
   -3   12   29     -2.93      0.00
   -2   12   29      0.16      0.00
   -1   12   29      5.22      0.00
    0   12   29     -1.04      0.00
   -6   13   29      3.75      0.00
   -5   13   29     -0.80      0.00
   -4   13   29      0.81      0.00
   -3   13   29      4.66      0.00
   -2   13   29      1.73      0.00
   -1   13   29     -4.29      0.00
    0   13   29     -4.75      0.00
   -6   14   29     -0.65      0.00
   -5   14   29     -2.21      0.00
   -4   14   29     -2.03      0.00
   -3   14   29      1.33      0.00
   -2   14   29     -0.32      0.00
   -1   14   29      0.39      0.00
    0   14   29      5.28      0.00
   -7   15   29     -0.89      0.00
   -6   15   29     -4.72      0.00
   -5   15   29      1.73      0.00
   -4   15   29      0.48      0.00
   -3   15   29     -5.19      0.00
   -2   15   29      5.19      0.00
   -1   15   29      4.91      0.00
   -7   16   29     -3.36      0.00
   -6   16   29     -5.05      0.00
   -5   16   29     -0.33      0.00
   -4   16   29     -1.13      0.00
   -3   16   29      2.77      0.00
   -8   17   29     -3.92      0.00
   -7   17   29     -1.50      0.00
   -6   17   29      2.30      0.00
   -5   17   29     -1.36      0.00
    0    0   30      1.95      0.00
    0    1   30      3.39      0.00
   -1    2   30     -2.36      0.00
    0    2   30      3.83      0.00
   -1    3   30     -1.46      0.00
    0    3   30     -1.65      0.00
   -2    4   30      0.93      0.00
   -1    4   30     -1.07      0.00
    0    4   30     -3.07      0.00
   -2    5   30      2.31      0.00
   -1    5   30     -5.36      0.00
    0    5   30      2.82      0.00
   -3    6   30      1.32      0.00
   -2    6   30      0.72      0.00
   -1    6   30     -2.32      0.00
    0    6   30     -4.20      0.00
   -3    7   30      6.01      0.00
   -2    7   30      0.21      0.00
   -1    7   30     -0.88      0.00
    0    7   30      6.90      0.00
   -4    8   30     19.49      0.00
   -3    8   30     -4.06      0.00
   -2    8   30      0.91      0.00
   -1    8   30      0.25      0.00
    0    8   30     11.83      0.00
   -4    9   30     -8.36      0.00
   -3    9   30     10.69      0.00
   -2    9   30      1.38      0.00
   -1    9   30     -7.90      0.00
    0    9   30     -8.94      0.00
   -5   10   30      4.35      0.00
   -4   10   30     -9.37      0.00
   -3   10   30     -1.23      0.00
   -2   10   30     -3.82      0.00
   -1   10   30     -1.61      0.00
    0   10   30    -10.15      0.00
   -5   11   30     -1.86      0.00
   -4   11   30      0.25      0.00
   -3   11   30      7.18      0.00
   -2   11   30     -3.85      0.00
   -1   11   30    -10.35      0.00
    0   11   30     12.00      0.00
   -6   12   30     -6.81      0.00
   -5   12   30      0.31      0.00
   -4   12   30      2.17      0.00
   -3   12   30      1.51      0.00
   -2   12   30      3.88      0.00
   -1   12   30     -3.81      0.00
    0   12   30      3.21      0.00
   -6   13   30      0.82      0.00
   -5   13   30     -1.21      0.00
   -4   13   30      0.43      0.00
   -3   13   30      4.66      0.00
   -2   13   30      2.23      0.00
   -1   13   30     -3.70      0.00
    0   13   30     -3.02      0.00
   -7   14   30     -2.38      0.00
   -6   14   30     -1.02      0.00
   -5   14   30     -2.12      0.00
   -4   14   30      3.74      0.00
   -3   14   30     -1.20      0.00
   -2   14   30     -1.78      0.00
   -1   14   30     -4.04      0.00
   -7   15   30     -2.38      0.00
   -6   15   30      0.79      0.00
   -5   15   30     -4.20      0.00
   -4   15   30      1.97      0.00
   -3   15   30     -2.08      0.00
   -2   15   30      6.94      0.00
   -8   16   30      2.09      0.00
   -7   16   30     -1.29      0.00
   -6   16   30     -0.77      0.00
   -5   16   30     -2.37      0.00
   -4   16   30     -0.71      0.00
    0    1   31      2.56      0.00
    0    2   31     -1.92      0.00
   -1    3   31     -1.63      0.00
    0    3   31      6.81      0.00
   -1    4   31     -2.41      0.00
    0    4   31     -1.55      0.00
   -2    5   31     -2.56      0.00
   -1    5   31     -0.75      0.00
    0    5   31      0.68      0.00
   -2    6   31    -14.05      0.00
   -1    6   31     -0.05      0.00
    0    6   31     -4.01      0.00
   -3    7   31     -3.96      0.00
   -2    7   31      5.26      0.00
   -1    7   31     -1.40      0.00
    0    7   31      7.80      0.00
   -3    8   31      4.62      0.00
   -2    8   31     -9.16      0.00
   -1    8   31     -4.44      0.00
    0    8   31     -0.78      0.00
   -4    9   31    -59.87      0.00
   -3    9   31     -7.78      0.00
   -2    9   31      0.42      0.00
   -1    9   31     -5.90      0.00
    0    9   31      7.31      0.00
   -4   10   31      3.32      0.00
   -3   10   31     -4.28      0.00
   -2   10   31      0.60      0.00
   -1   10   31      6.28      0.00
    0   10   31    -10.11      0.00
   -5   11   31     -2.53      0.00
   -4   11   31     -0.98      0.00
   -3   11   31     -2.99      0.00
   -2   11   31    -10.70      0.00
   -1   11   31      7.84      0.00
    0   11   31     -0.36      0.00
   -5   12   31      1.81      0.00
   -4   12   31      0.24      0.00
   -3   12   31      0.94      0.00
   -2   12   31     -3.41      0.00
   -1   12   31      1.20      0.00
    0   12   31     -2.43      0.00
   -6   13   31      0.69      0.00
   -5   13   31     -0.17      0.00
   -4   13   31      2.29      0.00
   -3   13   31     -3.99      0.00
   -2   13   31     -3.96      0.00
   -1   13   31     -2.70      0.00
    0   13   31     -1.21      0.00
   -6   14   31     -1.57      0.00
   -5   14   31     -0.41      0.00
   -4   14   31     -0.25      0.00
   -3   14   31     -4.95      0.00
   -2   14   31     -3.82      0.00
   -7   15   31     -0.68      0.00
   -6   15   31     -0.12      0.00
   -5   15   31      4.20      0.00
   -4   15   31     -6.24      0.00
    0    0   32      1.83      0.00
    0    1   32     -1.48      0.00
   -1    2   32      5.64      0.00
    0    2   32      3.84      0.00
   -1    3   32      0.56      0.00
    0    3   32      2.18      0.00
   -2    4   32    -12.87      0.00
   -1    4   32     -0.54      0.00
    0    4   32      0.77      0.00
   -2    5   32    -10.25      0.00
   -1    5   32     -0.96      0.00
    0    5   32     -4.80      0.00
   -3    6   32      2.36      0.00
   -2    6   32      2.11      0.00
   -1    6   32      3.91      0.00
    0    6   32     -2.36      0.00
   -3    7   32     12.59      0.00
   -2    7   32     11.97      0.00
   -1    7   32      2.86      0.00
    0    7   32      5.84      0.00
   -4    8   32    -10.69      0.00
   -3    8   32      5.98      0.00
   -2    8   32     -9.61      0.00
   -1    8   32     -4.85      0.00
    0    8   32      9.16      0.00
   -4    9   32      5.49      0.00
   -3    9   32     -8.69      0.00
   -2    9   32      1.28      0.00
   -1    9   32      3.28      0.00
    0    9   32      5.85      0.00
   -5   10   32    -14.89      0.00
   -4   10   32      5.76      0.00
   -3   10   32     -1.71      0.00
   -2   10   32      2.92      0.00
   -1   10   32     71.64      0.00
    0   10   32      2.88      0.00
   -5   11   32     -0.88      0.00
   -4   11   32     -0.24      0.00
   -3   11   32      9.41      0.00
   -2   11   32      6.00      0.00
   -1   11   32      0.94      0.00
    0   11   32     10.89      0.00
   -6   12   32      3.89      0.00
   -5   12   32      1.99      0.00
   -4   12   32     -1.64      0.00
   -3   12   32     -0.95      0.00
   -2   12   32      6.43      0.00
   -1   12   32      2.30      0.00
    0   12   32     -0.81      0.00
   -6   13   32     -1.07      0.00
   -5   13   32     -1.26      0.00
   -4   13   32     -3.26      0.00
   -3   13   32      0.95      0.00
   -2   13   32      3.04      0.00
   -7   14   32     -0.25      0.00
   -6   14   32     -0.26      0.00
   -5   14   32      6.91      0.00
   -4   14   32     -3.91      0.00
   -3   14   32     -1.33      0.00
   -7   15   32      0.86      0.00
    0    1   33     -9.45      0.00
    0    2   33     -4.76      0.00
   -1    3   33     -3.55      0.00
    0    3   33      2.61      0.00
   -1    4   33     -2.11      0.00
    0    4   33     -6.93      0.00
   -2    5   33     -8.22      0.00
   -1    5   33     -1.00      0.00
    0    5   33    -10.17      0.00
   -2    6   33     -2.93      0.00
   -1    6   33      2.25      0.00
    0    6   33      0.60      0.00
   -3    7   33      5.10      0.00
   -2    7   33     18.18      0.00
   -1    7   33      0.48      0.00
    0    7   33     -6.60      0.00
   -3    8   33     -1.48      0.00
   -2    8   33     -3.85      0.00
   -1    8   33     -6.89      0.00
    0    8   33      3.77      0.00
   -4    9   33      2.72      0.00
   -3    9   33      3.78      0.00
   -2    9   33      1.66      0.00
   -1    9   33     14.32      0.00
    0    9   33     -6.92      0.00
   -4   10   33     10.29      0.00
   -3   10   33     -1.73      0.00
   -2   10   33     -1.96      0.00
   -1   10   33     -2.33      0.00
    0   10   33      8.75      0.00
   -5   11   33     -4.32      0.00
   -4   11   33      7.78      0.00
   -3   11   33      0.90      0.00
   -2   11   33      3.47      0.00
   -1   11   33     -6.19      0.00
    0   11   33     -1.25      0.00
   -5   12   33     -5.97      0.00
   -4   12   33     -2.25      0.00
   -3   12   33     -2.50      0.00
   -2   12   33      1.57      0.00
   -6   13   33     -0.26      0.00
   -5   13   33     -5.68      0.00
   -4   13   33      2.55      0.00
    0    0   34     -7.37      0.00
    0    1   34     -6.18      0.00
   -1    2   34     11.10      0.00
    0    2   34      5.99      0.00
   -1    3   34     -2.60      0.00
    0    3   34      5.84      0.00
   -2    4   34      3.03      0.00
   -1    4   34     15.25      0.00
    0    4   34     13.80      0.00
   -2    5   34     -8.73      0.00
   -1    5   34     -7.74      0.00
    0    5   34     -8.96      0.00
   -3    6   34     -6.98      0.00
   -2    6   34     -8.93      0.00
   -1    6   34      4.24      0.00
    0    6   34      3.07      0.00
   -3    7   34    -65.13      0.00
   -2    7   34     -2.82      0.00
   -1    7   34     -1.65      0.00
    0    7   34      1.38      0.00
   -4    8   34     -2.55      0.00
   -3    8   34     -4.00      0.00
   -2    8   34      0.46      0.00
   -1    8   34     -1.41      0.00
    0    8   34     12.13      0.00
   -4    9   34      4.27      0.00
   -3    9   34      1.59      0.00
   -2    9   34     -1.00      0.00
   -1    9   34     -5.31      0.00
    0    9   34    -10.36      0.00
   -5   10   34     -8.12      0.00
   -4   10   34      2.88      0.00
   -3   10   34     -5.17      0.00
   -2   10   34      0.69      0.00
   -1   10   34      2.74      0.00
    0   10   34     -6.28      0.00
   -5   11   34     -2.87      0.00
   -4   11   34      7.24      0.00
   -3   11   34      1.06      0.00
   -2   11   34     -3.68      0.00
   -1   11   34     -7.20      0.00
   -6   12   34      0.64      0.00
   -5   12   34     -2.94      0.00
   -4   12   34      6.19      0.00
    0    1   35      0.49      0.00
    0    2   35    -17.96      0.00
   -1    3   35     -5.80      0.00
    0    3   35     -0.30      0.00
   -1    4   35     -5.07      0.00
    0    4   35     -1.57      0.00
   -2    5   35     -4.91      0.00
   -1    5   35     -3.93      0.00
    0    5   35     -8.74      0.00
   -2    6   35     18.14      0.00
   -1    6   35      1.05      0.00
    0    6   35     -3.31      0.00
   -3    7   35     -7.25      0.00
   -2    7   35     -3.81      0.00
   -1    7   35      3.13      0.00
    0    7   35      1.64      0.00
   -3    8   35     12.48      0.00
   -2    8   35      1.04      0.00
   -1    8   35      0.94      0.00
    0    8   35      3.05      0.00
   -4    9   35     -1.87      0.00
   -3    9   35      7.08      0.00
   -2    9   35     -2.21      0.00
   -1    9   35     -1.99      0.00
    0    9   35    -10.43      0.00
   -4   10   35     -3.09      0.00
   -3   10   35      2.45      0.00
   -2   10   35     -3.43      0.00
   -5   11   35      0.81      0.00
   -4   11   35      2.79      0.00
    0    0   36     18.95      0.00
    0    1   36    -18.72      0.00
   -1    2   36    -12.66      0.00
    0    2   36    -18.05      0.00
   -1    3   36    -25.78      0.00
    0    3   36    -19.44      0.00
   -2    4   36     -9.46      0.00
   -1    4   36     14.74      0.00
    0    4   36     -5.21      0.00
   -2    5   36     66.23      0.00
   -1    5   36      4.86      0.00
    0    5   36      0.81      0.00
   -3    6   36     26.05      0.00
   -2    6   36      2.88      0.00
   -1    6   36     -0.68      0.00
    0    6   36     -3.39      0.00
   -3    7   36     13.34      0.00
   -2    7   36     17.48      0.00
   -1    7   36      1.69      0.00
    0    7   36     35.38      0.00
   -4    8   36     20.81      0.00
   -3    8   36     -3.91      0.00
   -2    8   36     -4.34      0.00
   -1    8   36      1.97      0.00
    0    8   36      3.56      0.00
   -4    9   36     -4.60      0.00
   -3    9   36      5.76      0.00
   -2    9   36     -2.14      0.00
    0    1   37     20.14      0.00
    0    2   37      0.12      0.00
   -1    3   37     45.45      0.00
    0    3   37     10.16      0.00
   -1    4   37     -4.26      0.00
    0    4   37     56.73      0.00
   -2    5   37     19.80      0.00
   -1    5   37     11.89      0.00
    0    5   37     18.01      0.00
   -2    6   37      0.60      0.00
   -1    6   37      2.59      0.00
    0    6   37      9.02      0.00
   -3    7   37    -38.57      0.00
   -2    7   37     -4.26      0.00
    0    1    0    102.42      0.00
   -1   24    0      4.04      0.00
   -3   25    0     -2.72      0.00
   -6   26    0     -5.91      0.00
  -13   27    0     -4.52      0.00
  -11   27    0     -1.45      0.00
  -10   27    0     -3.15      0.00
    0    1    1   -105.90      0.00
   -1   24    1      1.66      0.00
   -3   25    1      1.24      0.00
   -6   26    1     -0.65      0.00
  -11   27    1     -1.04      0.00
  -10   27    1      2.12      0.00
    0    0    2   -211.58      0.00
   -1   24    2     -3.61      0.00
   -3   25    2      1.33      0.00
   -6   26    2      8.75      0.00
  -11   27    2      1.67      0.00
  -10   27    2      5.95      0.00
   -1   24    3     -0.79      0.00
   -3   25    3     -0.54      0.00
   -6   26    3     -2.81      0.00
  -13   27    3      3.00      0.00
  -11   27    3      3.41      0.00
  -10   27    3     -1.41      0.00
   -1   24    4      7.67      0.00
   -6   26    4     -6.03      0.00
  -13   27    4     -3.77      0.00
  -12   27    4      0.10      0.00
  -11   27    4     -2.46      0.00
   -1   24    5     -5.25      0.00
   -7   26    5     -4.21      0.00
  -13   27    5     -4.24      0.00
  -12   27    5      3.57      0.00
  -11   27    5     -1.51      0.00
   -4   25    6      0.23      0.00
   -7   26    6     -1.75      0.00
  -13   27    6      2.77      0.00
  -12   27    6     -0.12      0.00
   -4   25    7      1.19      0.00
   -7   26    7      7.12      0.00
    0   23    8     -8.85      0.00
   -2   24    8     -4.34      0.00
   -8   26    8      2.27      0.00
    0   23    9      6.08      0.00
   -2   24    9      0.76      0.00
   -5   25    9      2.08      0.00
   -9   26    9      1.49      0.00
   -8   26    9      2.32      0.00
   -5   25   10     -0.31      0.00
  -10   26   10     -1.41      0.00
   -9   26   10     -4.10      0.00
   -1   23   11     -0.19      0.00
   -3   24   11      0.39      0.00
   -6   25   11     -0.97      0.00
  -12   26   11      1.86      0.00
  -11   26   11      2.42      0.00
  -10   26   11     -4.71      0.00
   -1   23   12      2.59      0.00
   -7   25   12      0.93      0.00
  -13   26   12     -5.02      0.00
  -12   26   12      2.48      0.00
    0   22   13      2.94      0.00
   -4   24   13      3.21      0.00
   -7   25   13      1.79      0.00
    0   22   14      2.75      0.00
   -2   23   14      0.23      0.00
   -5   24   14     -5.11      0.00
  -12   25   14     -1.12      0.00
   -8   25   14      2.77      0.00
   -1   22   15     -2.06      0.00
   -3   23   15      1.69      0.00
  -12   25   15      1.48      0.00
  -11   25   15     -1.42      0.00
  -10   25   15     -1.22      0.00
   -1   22   16     -2.95      0.00
  -12   24   16      7.16      0.00
   -7   24   16     -1.22      0.00
    0   21   17      4.25      0.00
   -2   22   17      0.93      0.00
   -4   23   17      1.59      0.00
  -11   24   17     -1.12      0.00
   -9   24   17     -0.54      0.00
   -8   24   17     -2.60      0.00
    0   21   18      0.82      0.00
   -5   23   18     -1.17      0.00
  -12   24   18     -0.47      0.00
  -11   24   18      0.10      0.00
  -10   24   18     -0.39      0.00
   -9   24   18      1.14      0.00
   -1   21   19      3.96      0.00
   -3   22   19     -3.98      0.00
   -6   23   19     -2.96      0.00
   -4   22   20     -2.61      0.00
  -11   23   20      2.25      0.00
  -10   23   20      0.81      0.00
   -9   23   20     -0.25      0.00
   -8   23   20      1.07      0.00
   -6   22   21      0.91      0.00
  -11   23   21      3.07      0.00
   -1   20   22     -2.40      0.00
   -4   21   22      0.63      0.00
   -8   22   22     -0.70      0.00
   -7   22   22      1.40      0.00
    0   19   23      7.52      0.00
   -2   20   23      1.83      0.00
   -5   21   23     -1.84      0.00
  -10   22   23     -2.77      0.00
   -1   19   24     -1.26      0.00
   -7   21   24     -2.52      0.00
    0   18   25     -2.75      0.00
   -2   19   25     -5.02      0.00
   -5   20   25     -3.98      0.00
   -1   18   26      1.20      0.00
   -4   19   26      2.02      0.00
   -8   20   26     -2.40      0.00
   -7   20   26      0.81      0.00
   -1   17   27      1.87      0.00
    0   17   27      1.49      0.00
   -3   18   27      2.33      0.00
   -6   19   27     -0.88      0.00
    0   16   28      2.62      0.00
   -2   17   28     -0.75      0.00
   -4   18   28     -0.61      0.00
    0   15   29     -3.89      0.00
   -2   16   29     -3.05      0.00
   -1   16   29      0.64      0.00
   -4   17   29     -2.55      0.00
   -3   17   29     -0.94      0.00
   -8   18   29     -3.39      0.00
   -7   18   29      3.62      0.00
    0   14   30      8.40      0.00
   -1   15   30      4.45      0.00
    0   15   30     -1.39      0.00
   -3   16   30      5.40      0.00
   -8   17   30     -2.96      0.00
   -7   17   30     -0.43      0.00
   -6   17   30      2.65      0.00
   -1   14   31     -2.53      0.00
    0   14   31     -3.69      0.00
   -3   15   31     -0.64      0.00
   -2   15   31     -4.07      0.00
   -7   16   31      2.63      0.00
   -6   16   31     -1.97      0.00
   -5   16   31     -0.50      0.00
   -1   13   32      5.78      0.00
    0   13   32     -5.97      0.00
   -2   14   32      2.47      0.00
   -6   15   32     -1.72      0.00
   -5   15   32      4.74      0.00
   -1   12   33     -8.47      0.00
    0   12   33     13.01      0.00
   -3   13   33     -9.05      0.00
   -2   13   33     10.77      0.00
   -6   14   33      1.17      0.00
   -5   14   33     -4.66      0.00
    0   11   34     23.53      0.00
   -3   12   34    -11.80      0.00
   -2   12   34     11.60      0.00
   -6   13   34      5.53      0.00
   -5   13   34     -5.17      0.00
   -1   10   35     -0.50      0.00
    0   10   35      1.61      0.00
   -3   11   35     -2.99      0.00
   -2   11   35      0.45      0.00
   -1    9   36      0.08      0.00
   -5   10   36     -5.89      0.00
   -4   10   36     -3.36      0.00
   -1    7   37     11.79      0.00
    0    7   37      0.42      0.00
   -3    8   37     13.10      0.00
    0    0   38      8.56      0.00
    0    1   38     -2.66      0.00
   -1    2   38     44.10      0.00
    0    2   38     10.22      0.00
   -1    3   38     -0.22      0.00
    0    3   38     33.14      0.00
   -2    4   38      8.05      0.00
   -1    4   38    -14.94      0.00
    0    4   38     14.12      0.00
   -2    5   38    -37.31      0.00
   -1    5   38     -3.00      0.00
    0    0    0      0.00      0.00
# SQUEEZE RESULTS (Version = 191017)
# Note: Data are Listed for all Voids in the P1 Unit Cell
# i.e. Centre of Gravity, Solvent Accessible Volume,
# Recovered number of Electrons in the Void and
# Details about the Squeezed Material
loop_
  _platon_squeeze_void_nr
  _platon_squeeze_void_average_x
  _platon_squeeze_void_average_y
  _platon_squeeze_void_average_z
  _platon_squeeze_void_volume
  _platon_squeeze_void_count_electrons
  _platon_squeeze_void_content
   1 -0.016 -0.010  0.000      8157      1652 ' '
# Missing Reflections Below sin(th)/lambda = 0.25
loop_
  _platon_missing_refln_index_h
  _platon_missing_refln_index_k
  _platon_missing_refln_index_l
  _platon_missing_refln_theta
    0    1    0     2.334
    0    1    1     2.736
    0    0    2     2.855
_platon_squeeze_void_probe_radius                  1.20
_platon_squeeze_details
)
TITL F:/ZM2015~P 63/m m cmp/R = 0.12032_a
CELL   21.8599   21.8599   30.9566     90.00     90.00    120.00
SPGR P63/mmc
# Solvent Accessible Volume =      8157
# Electrons Found in S.A.V. =      1632
# Note: Atoms in Void are Labelled as Cxxx and Qxxx for all Others
Q101 0.557 0.117 0.753 !       2.96 eA-3
Q102 0.280 0.719 0.251 !       2.05 eA-3
C103 0.336 0.672 0.108 !       1.86 eA-3
Q104 0.437 0.437 0.000 !       1.78 eA-3
C105 1.000 1.000 0.500 !       1.73 eA-3
Q106 0.502 0.160 0.052 !       1.69 eA-3
C107 1.000 1.000 0.250 !       1.69 eA-3
Q108 0.701 0.297 0.752 !       1.61 eA-3
C109 1.000 0.996 0.031 !       1.58 eA-3
C110 0.101 0.203 0.250 !       1.51 eA-3
Q111 0.882 0.602 0.752 !       1.50 eA-3
C112 0.758 0.859 0.248 !       1.42 eA-3
C113 0.041 0.414 0.252 !       1.30 eA-3
Q114 0.087 0.589 0.523 !       1.23 eA-3
Q115 0.484 0.966 0.467 !       1.21 eA-3
C116 0.786 0.242 0.018 !       1.17 eA-3
C117 0.214 0.758 0.982 !       1.17 eA-3
C118 0.543 0.780 0.983 !       1.17 eA-3
C119 0.329 0.665 0.085 !       1.11 eA-3
C120 0.069 0.656 0.252 !       1.09 eA-3
C121 0.696 0.289 0.923 !       1.08 eA-3
Q122 0.898 0.459 0.507 !       1.07 eA-3
C123 0.468 0.727 0.445 !       1.06 eA-3
C124 0.813 0.198 0.069 !       1.04 eA-3
C125 0.908 0.109 0.865 !       1.00 eA-3
C126 0.483 0.736 0.476 !       0.95 eA-3
C127 0.071 0.572 0.242 !       0.95 eA-3
C128 0.226 0.780 0.014 !       0.95 eA-3
C129 0.329 0.669 0.922 !       0.94 eA-3
C130 0.241 0.760 0.993 !       0.94 eA-3
C131 0.576 0.539 0.752 !       0.93 eA-3
C132 0.470 0.523 0.251 !       0.92 eA-3
C133 0.021 0.617 0.752 !       0.92 eA-3
C134 0.595 0.977 0.751 !       0.91 eA-3
C135 0.539 0.156 0.250 !       0.90 eA-3
C136 0.837 0.516 0.248 !       0.90 eA-3
C137 0.883 0.094 0.781 !       0.89 eA-3
C138 0.509 0.027 0.736 !       0.89 eA-3
C139 0.344 0.980 0.234 !       0.88 eA-3
C140 0.235 0.297 0.249 !       0.88 eA-3
C141 0.797 0.201 0.461 !       0.88 eA-3
C142 0.891 0.746 0.727 !       0.87 eA-3
Q143 0.141 0.320 0.248 !       0.87 eA-3
C144 0.625 0.260 0.344 !       0.85 eA-3
Q145 0.233 0.762 0.454 !       0.85 eA-3
C146 1.000 1.000 0.055 !       0.84 eA-3
C147 0.359 0.629 0.439 !       0.84 eA-3
C148 0.743 0.377 0.124 !       0.84 eA-3
C149 0.726 0.356 0.938 !       0.83 eA-3
C150 0.117 0.037 0.265 !       0.83 eA-3
C151 0.290 0.969 0.250 !       0.82 eA-3
C152 0.789 0.891 0.751 !       0.81 eA-3
C153 0.187 0.797 0.547 !       0.80 eA-3
C154 0.634 0.276 0.500 !       0.80 eA-3
Q155 0.359 0.261 0.703 !       0.80 eA-3
C156 0.796 0.200 0.016 !       0.79 eA-3
C157 0.726 0.459 0.500 !       0.76 eA-3
C158 0.548 0.585 0.272 !       0.76 eA-3
Q159 0.867 0.134 0.641 !       0.75 eA-3
Q160 0.649 0.892 0.234 !       0.75 eA-3
Q161 0.250 0.500 0.248 !       0.75 eA-3
C162 0.983 0.881 0.625 !       0.74 eA-3
C163 0.984 0.013 0.844 !       0.74 eA-3
C164 0.039 0.083 0.734 !       0.73 eA-3
C165 0.672 0.336 0.453 !       0.73 eA-3
C166 0.157 0.842 0.913 !       0.73 eA-3
Q167 0.533 0.457 0.937 !       0.73 eA-3
C168 0.415 0.469 0.752 !       0.73 eA-3
Q169 0.330 0.665 0.289 !       0.73 eA-3
Q170 0.960 0.478 0.431 !       0.72 eA-3
C171 0.336 0.679 0.702 !       0.72 eA-3
C172 0.813 0.954 0.141 !       0.72 eA-3
Q173 0.070 0.352 0.233 !       0.72 eA-3
C174 0.414 0.414 0.251 !       0.71 eA-3
C175 0.485 0.744 0.531 !       0.71 eA-3
C176 0.358 0.627 0.979 !       0.71 eA-3
C177 0.876 0.932 0.602 !       0.70 eA-3
Q178 0.710 0.829 0.141 !       0.70 eA-3
C179 0.578 0.391 0.140 !       0.70 eA-3
Q180 0.258 0.183 0.640 !       0.69 eA-3
Q181 0.960 0.269 0.719 !       0.69 eA-3
Q182 0.329 0.759 0.226 !       0.68 eA-3
C183 0.680 0.429 0.993 !       0.68 eA-3
Q184 0.966 0.292 0.462 !       0.68 eA-3
Q185 0.734 0.916 0.273 !       0.68 eA-3
C186 0.070 0.142 0.236 !       0.67 eA-3
C187 0.187 0.087 0.664 !       0.67 eA-3
C188 1.000 0.493 0.797 !       0.67 eA-3
C189 0.859 0.138 0.360 !       0.67 eA-3
C190 0.983 0.803 0.125 !       0.66 eA-3
C191 0.670 0.340 0.007 !       0.66 eA-3
C192 0.883 0.856 0.125 !       0.65 eA-3
C193 0.117 0.144 0.875 !       0.65 eA-3
C194 0.852 0.879 0.875 !       0.65 eA-3
Q195 0.342 0.602 0.253 !       0.65 eA-3
C196 1.000 1.003 0.867 !       0.65 eA-3
Q197 0.268 0.833 0.500 !       0.64 eA-3
C198 0.985 0.012 0.219 !       0.64 eA-3
C199 0.921 0.872 0.212 !       0.64 eA-3
)
;
_shelx_fab_checksum              60657
loop_
_space_group_symop_operation_xyz
'x, y, z'
'x-y, x, z+1/2'
'-y, x-y, z'
'-x, -y, z+1/2'
'-x+y, -x, z'
'y, -x+y, z+1/2'
'x-y, -y, -z'
'-x, -x+y, -z'
'y, x, -z'
'-y, -x, -z+1/2'
'-x+y, y, -z+1/2'
'x, x-y, -z+1/2'
'-x, -y, -z'
'-x+y, -x, -z-1/2'
'y, -x+y, -z'
'x, y, -z-1/2'
'x-y, x, -z'
'-y, x-y, -z-1/2'
'-x+y, y, z'
'x, x-y, z'
'-y, -x, z'
'y, x, z-1/2'
'x-y, -y, z-1/2'
'-x, -x+y, z-1/2'
loop_
_atom_site_label
_atom_site_type_symbol
_atom_site_fract_x
_atom_site_fract_y
_atom_site_fract_z
_atom_site_U_iso_or_equiv
_atom_site_adp_type
_atom_site_occupancy
_atom_site_site_symmetry_order
_atom_site_calc_flag
_atom_site_refinement_flags_posn
_atom_site_refinement_flags_adp
_atom_site_refinement_flags_occupancy
In1 In 0.72042(2) 0.27958(2) 0.750000 0.0395(3) Uani 1 4 d S TU P
Cu1 Cu 0.45297(13) 0.03797(16) 0.48375(8) 0.1125(10) Uani 0.5 1 d . U P
O1 O 0.6547(2) 0.2064(2) 0.70024(11) 0.0605(10) Uani 1 1 d . U .
O2 O 0.666667 0.333333 0.750000 0.035(2) Uani 1 12 d S TU P
O3 O 0.7769(2) 0.2231(2) 0.750000 0.063(2) Uani 1 4 d S TU P
O4 O 0.5367(4) 0.0733(9) 0.5181(5) 0.089(4) Uani 0.5 2 d S TU P
O5 O 0.5027(4) 0.0054(9) 0.4488(5) 0.090(4) Uani 0.5 2 d S TU P
O7 O 0.8147(5) 0.1853(5) 0.6138(5) 0.206(7) Uani 1 2 d DS TU P
O8 O 0.8616(8) 0.2324(7) 0.6714(5) 0.264(7) Uani 1 1 d . U .
N1 N 0.4011(6) 0.0585(7) 0.5257(4) 0.075(3) Uani 0.5 1 d D U P
N2 N 0.3675(6) -0.0117(8) 0.4520(4) 0.080(3) Uani 0.5 1 d D U P
N3 N 0.8151(5) 0.1849(5) 0.6533(5) 0.157(6) Uani 1 2 d DS TU P
C1 C 0.3099(5) -0.0114(7) 0.4795(4) 0.083(3) Uani 0.5 1 d DG U P
H1 H 0.299659 -0.047935 0.500221 0.099 Uiso 0.5 1 d R U P
C2 C 0.2380(6) -0.0365(7) 0.4604(4) 0.109(5) Uani 0.5 1 d G U P
H2B H 0.223539 -0.079110 0.444846 0.131 Uiso 0.5 1 d R U P
H2C H 0.240448 -0.002113 0.440529 0.131 Uiso 0.5 1 d R U P
C3 C 0.1844(5) -0.0490(7) 0.4947(4) 0.119(5) Uani 0.5 1 d G U P
H3B H 0.177564 -0.087505 0.512367 0.143 Uiso 0.5 1 d R U P
H3C H 0.140459 -0.061348 0.481437 0.143 Uiso 0.5 1 d R U P
C4 C 0.2075(5) 0.0154(7) 0.5224(4) 0.084(3) Uani 0.5 1 d G U P
H4A H 0.174189 0.004566 0.545048 0.101 Uiso 0.5 1 d R U P
H4B H 0.208506 0.052128 0.505453 0.101 Uiso 0.5 1 d R U P
C5 C 0.2794(6) 0.0404(7) 0.5415(4) 0.095(4) Uani 0.5 1 d G U P
H5A H 0.276943 0.006053 0.561364 0.114 Uiso 0.5 1 d R U P
H5B H 0.293863 0.083070 0.557037 0.114 Uiso 0.5 1 d R U P
C6 C 0.3330(5) 0.0530(6) 0.5072(4) 0.108(4) Uani 0.5 1 d DG U P
H6 H 0.342478 0.092805 0.489996 0.129 Uiso 0.5 1 d R U P
C7 C 0.5948(2) 0.1897(4) 0.6853(2) 0.0530(18) Uani 1 2 d S TU P
C8 C 0.5788(6) 0.1577(12) 0.6427(8) 0.056(6) Uani 0.5 2 d S TU P
C9 C 0.5136(8) 0.1382(7) 0.6217(4) 0.049(3) Uani 0.5 1 d . U P
H9 H 0.479492 0.146201 0.636319 0.059 Uiso 0.5 1 d R U P
C10 C 0.4272(7) 0.0871(8) 0.5637(4) 0.061(3) Uani 0.5 1 d . U P
H10 H 0.397104 0.094975 0.582619 0.073 Uiso 0.5 1 d R U P
C11 C 0.4973(8) 0.1068(8) 0.5792(5) 0.067(3) Uani 0.5 1 d . U P
C12 C 0.5482(5) 0.0965(11) 0.5574(6) 0.066(4) Uani 0.5 2 d S TU P
C13 C 0.4327(5) -0.1346(11) 0.3504(7) 0.049(5) Uani 0.5 2 d S TU P
C14 C 0.3913(9) -0.1114(8) 0.3667(5) 0.059(4) Uani 0.5 1 d . U P
H14 H 0.347084 -0.124920 0.352815 0.071 Uiso 0.5 1 d R U P
C15 C 0.4779(6) -0.0443(11) 0.4192(7) 0.072(5) Uani 0.5 2 d S TU P
C16 C 0.4093(8) -0.0697(9) 0.4025(5) 0.067(3) Uani 0.5 1 d . U P
C17 C 0.3585(10) -0.0488(10) 0.4191(6) 0.084(5) Uani 0.5 1 d . U P
H17 H 0.314909 -0.065561 0.403680 0.101 Uiso 0.5 1 d R U P
loop_
_atom_site_aniso_label
_atom_site_aniso_U_11
_atom_site_aniso_U_22
_atom_site_aniso_U_33
_atom_site_aniso_U_23
_atom_site_aniso_U_13
_atom_site_aniso_U_12
In1 0.0561(4) 0.0561(4) 0.0054(3) 0.000 0.000 0.0274(3)
Cu1 0.0976(15) 0.184(3) 0.0872(16) -0.1073(16) -0.0552(12) 0.0941(16)
O1 0.077(3) 0.074(3) 0.0299(18) -0.0235(17) -0.0162(18) 0.038(2)
O2 0.045(3) 0.045(3) 0.016(4) 0.000 0.000 0.0226(16)
O3 0.081(4) 0.081(4) 0.046(4) 0.000 0.000 0.055(5)
O4 0.088(6) 0.115(8) 0.074(7) -0.051(6) -0.026(3) 0.058(4)
O5 0.089(6) 0.114(7) 0.074(7) -0.060(6) -0.030(3) 0.057(4)
O7 0.211(9) 0.211(9) 0.126(9) -0.041(6) 0.041(6) 0.052(10)
O8 0.288(14) 0.185(10) 0.274(13) -0.002(10) -0.083(11) 0.083(10)
N1 0.071(6) 0.101(7) 0.069(6) -0.050(5) -0.024(5) 0.054(5)
N2 0.079(6) 0.102(7) 0.064(6) -0.050(6) -0.023(5) 0.048(6)
N3 0.154(7) 0.154(7) 0.132(9) 0.005(5) -0.005(5) 0.053(7)
C1 0.064(5) 0.115(6) 0.089(6) -0.055(5) -0.015(4) 0.059(5)
C2 0.089(6) 0.135(7) 0.105(7) -0.044(6) -0.011(6) 0.057(5)
C3 0.096(6) 0.140(7) 0.110(7) -0.025(6) -0.006(6) 0.051(5)
C4 0.066(5) 0.115(6) 0.089(6) -0.032(5) -0.013(5) 0.058(5)
C5 0.079(6) 0.123(6) 0.092(6) -0.051(5) -0.014(5) 0.058(5)
C6 0.092(6) 0.127(7) 0.095(6) -0.034(6) -0.017(5) 0.049(5)
C7 0.070(4) 0.060(4) 0.025(3) -0.014(3) -0.0070(15) 0.030(2)
C8 0.068(8) 0.048(8) 0.045(9) -0.010(7) -0.005(3) 0.024(4)
C9 0.063(6) 0.049(6) 0.034(6) -0.018(5) -0.007(5) 0.027(5)
C10 0.071(7) 0.075(7) 0.045(6) -0.036(5) -0.013(5) 0.042(6)
C11 0.075(7) 0.072(7) 0.051(6) -0.031(5) -0.015(5) 0.036(6)
C12 0.067(6) 0.078(8) 0.055(7) -0.029(7) -0.015(3) 0.039(4)
C13 0.068(7) 0.040(8) 0.028(7) -0.021(6) -0.011(3) 0.020(4)
C14 0.060(7) 0.062(7) 0.048(7) -0.022(6) -0.009(5) 0.024(6)
C15 0.073(7) 0.081(8) 0.063(8) -0.034(7) -0.017(3) 0.041(4)
C16 0.068(7) 0.078(7) 0.052(6) -0.030(6) -0.011(5) 0.035(6)
C17 0.085(8) 0.098(8) 0.076(8) -0.038(7) -0.016(6) 0.051(7)
loop_
_atom_type_symbol
_atom_type_description
_atom_type_scat_dispersion_real
_atom_type_scat_dispersion_imag
_atom_type_scat_source
C C 0.0181 0.0091 'International Tables Vol C Tables 4.2.6.8 and 6.1.1.4'
H H 0.0000 0.0000 'International Tables Vol C Tables 4.2.6.8 and 6.1.1.4'
N N 0.0311 0.0180 'International Tables Vol C Tables 4.2.6.8 and 6.1.1.4'
O O 0.0492 0.0322 'International Tables Vol C Tables 4.2.6.8 and 6.1.1.4'
Cu Cu -1.9646 0.5888 'International Tables Vol C Tables 4.2.6.8 and 6.1.1.4'
In In 0.0822 5.0449 'International Tables Vol C Tables 4.2.6.8 and 6.1.1.4'
loop_
_geom_angle_atom_site_label_1
_geom_angle_atom_site_label_2
_geom_angle_atom_site_label_3
_geom_angle
_geom_angle_site_symmetry_1
_geom_angle_site_symmetry_3
O2 In1 O3 180.0 . .
O2 In1 O1 93.75(12) . 10_666
O3 In1 O1 86.25(12) . 10_666
O2 In1 O1 93.75(12) . 21_665
O3 In1 O1 86.25(12) . 21_665
O1 In1 O1 90.6(2) 10_666 21_665
O2 In1 O1 93.75(12) . 16_557
O3 In1 O1 86.25(12) . 16_557
O1 In1 O1 88.9(2) 10_666 16_557
O1 In1 O1 172.5(2) 21_665 16_557
O2 In1 O1 93.76(12) . .
O3 In1 O1 86.24(12) . .
O1 In1 O1 172.5(2) 10_666 .
O1 In1 O1 88.9(2) 21_665 .
O1 In1 O1 90.6(2) 16_557 .
Cu1 Cu1 N2 83.7(5) 7_556 .
Cu1 Cu1 O5 93.5(6) 7_556 .
N2 Cu1 O5 94.3(4) . .
Cu1 Cu1 O4 88.2(6) 7_556 .
N2 Cu1 O4 170.8(7) . .
O5 Cu1 O4 81.8(4) . .
Cu1 Cu1 N1 77.1(5) 7_556 .
N2 Cu1 N1 87.6(4) . .
O5 Cu1 N1 170.2(7) . .
O4 Cu1 N1 95.0(4) . .
O5 Cu1 N1 96.8(5) . 7_556
O4 Cu1 N1 142.8(7) . 7_556
N1 Cu1 N1 80.2(5) . 7_556
N2 Cu1 N2 86.7(5) . 7_556
O5 Cu1 N2 143.9(7) . 7_556
O4 Cu1 N2 91.6(5) . 7_556
N1 Cu1 N2 67.8(3) 7_556 7_556
Cu1 Cu1 Cu1 90.0 7_556 19_655
N2 Cu1 Cu1 134.2(3) . 19_655
N1 Cu1 Cu1 135.0(3) . 19_655
N1 Cu1 Cu1 126.3(3) 7_556 19_655
N2 Cu1 Cu1 122.9(3) 7_556 19_655
C7 O1 In1 133.3(4) . .
In1 O2 In1 120.000(1) . 3_655
In1 O2 In1 120.0 . 14_667
In1 O2 In1 120.0 3_655 14_667
C12 O4 O5 75.2(13) . 13_656
C12 O4 Cu1 129.9(4) . .
O5 O4 Cu1 91.5(7) 13_656 .
C12 O4 Cu1 129.9(4) . 19_655
O5 O4 Cu1 91.5(7) 13_656 19_655
Cu1 O4 Cu1 98.0(6) . 19_655
C15 O5 O4 78.8(14) . 13_656
C15 O5 Cu1 128.9(5) . .
O4 O5 Cu1 86.8(7) 13_656 .
C15 O5 Cu1 128.9(5) . 19_655
O4 O5 Cu1 86.8(7) 13_656 19_655
Cu1 O5 Cu1 98.5(5) . 19_655
N2 N1 C10 76.8(12) 7_556 .
N2 N1 C1 68.2(8) 7_556 7_556
C10 N1 C1 119.5(12) . 7_556
N2 N1 C6 101.7(11) 7_556 .
C10 N1 C6 122.8(10) . .
C1 N1 C17 98.9(11) 7_556 7_556
C6 N1 C17 119.2(11) . 7_556
N2 N1 Cu1 103.6(9) 7_556 .
C10 N1 Cu1 123.2(9) . .
C1 N1 Cu1 112.3(7) 7_556 .
C6 N1 Cu1 112.9(7) . .
C17 N1 Cu1 123.1(9) 7_556 .
C10 N1 Cu1 109.0(10) . 7_556
C1 N1 Cu1 89.9(7) 7_556 7_556
C6 N1 Cu1 116.5(7) . 7_556
C17 N1 Cu1 87.7(9) 7_556 7_556
N1 N2 C17 93.5(15) 7_556 .
C17 N2 C1 126.4(13) . .
C1 N2 C10 107.7(11) . 7_556
N1 N2 Cu1 95.4(10) 7_556 .
C17 N2 Cu1 125.6(11) . .
C1 N2 Cu1 106.7(7) . .
C10 N2 Cu1 121.7(9) 7_556 .
C17 N2 Cu1 117.2(12) . 7_556
C1 N2 Cu1 89.7(7) . 7_556
C10 N2 Cu1 89.3(9) 7_556 7_556
O8 N3 O8 123(2) . 21_665
O8 N3 O7 118.5(10) . .
O8 N3 O7 118.5(10) 21_665 .
C6 C1 C1 81(2) 7_556 7_556
C6 C1 C5 72.6(9) 7_556 7_556
C1 C1 C5 121.9(9) 7_556 7_556
C6 C1 C2 73.6(10) 7_556 .
C1 C1 C2 118.3(5) 7_556 .
C6 C1 C6 114.3(16) 7_556 .
C5 C1 C6 115.8(7) 7_556 .
C2 C1 C6 111.5 . .
C6 C1 N2 115.6(14) 7_556 .
C1 C1 N2 122.0(6) 7_556 .
C5 C1 N2 116.0(13) 7_556 .
C2 C1 N2 119.6(9) . .
C6 C1 N2 115.6(8) . .
C6 C1 N1 73.7(12) 7_556 7_556
C1 C1 N1 106.8(10) 7_556 7_556
C5 C1 N1 113.8(12) 7_556 7_556
C2 C1 N1 118.0(8) . 7_556
C6 C1 N1 129.8(9) . 7_556
C5 C2 C4 150(9) 7_556 7_556
C5 C2 C1 86(6) 7_556 .
C4 C2 C1 121.3(10) 7_556 .
C5 C2 C3 130(10) 7_556 .
C1 C2 C3 111.5 . .
C5 C2 C6 79(9) 7_556 7_556
C4 C2 C6 116.3(14) 7_556 7_556
C3 C2 C6 89.9(8) . 7_556
C4 C3 C4 73.6(18) 7_556 .
C4 C3 C2 111.5 . .
C4 C3 C5 69.1(14) 7_556 7_556
C4 C3 C5 114.5(9) . 7_556
C4 C3 C3 51.1(15) 7_556 7_556
C2 C3 C3 88.1(6) . 7_556
C5 C3 C3 91.3(10) 7_556 7_556
C3 C4 C2 79.5(10) 7_556 7_556
C3 C4 C5 78.9(10) 7_556 .
C3 C4 C3 102.7(18) 7_556 .
C2 C4 C3 109.4(8) 7_556 .
C5 C4 C3 111.5 . .
C3 C4 C4 73.5(17) 7_556 7_556
C2 C4 C4 117.4(8) 7_556 7_556
C5 C4 C4 119.02(18) . 7_556
C2 C5 C1 90(6) 7_556 7_556
C2 C5 C6 97(9) 7_556 .
C1 C5 C4 115.1(6) 7_556 .
C6 C5 C4 111.5 . .
C1 C5 C3 107.6(11) 7_556 7_556
C6 C5 C3 87.7(7) . 7_556
C1 C6 C5 72.1(13) 7_556 .
C5 C6 C1 111.5 . .
C1 C6 C2 71.4(15) 7_556 7_556
C1 C6 C2 107.8(9) . 7_556
C1 C6 N1 71.8(8) 7_556 .
C5 C6 N1 112.6(9) . .
C1 C6 N1 98.3(8) . .
C2 C6 N1 115.8(12) 7_556 .
O1 C7 O1 127.0(6) . 19_655
O1 C7 C8 116.1(3) . .
O1 C7 C8 116.1(3) 19_655 .
O1 C7 C13 116.1(3) . 13_656
O1 C7 C13 116.1(3) 19_655 13_656
C13 C8 C9 88(3) 13_656 19_655
C13 C8 C9 88(3) 13_656 .
C9 C8 C9 117(2) 19_655 .
C13 C8 C7 89(5) 13_656 .
C9 C8 C7 121.5(10) 19_655 .
C9 C8 C7 121.5(10) . .
C9 C8 C14 115.0(17) . 13_656
C7 C8 C14 115.2(13) . 13_656
C9 C8 C14 115.0(17) 19_655 7_556
C7 C8 C14 115.2(13) . 7_556
C14 C8 C14 102.9(18) 13_656 7_556
C14 C9 C8 83(3) 7_556 .
C14 C9 C11 101(2) 7_556 .
C8 C9 C11 122.0(15) . .
C11 C9 C13 121.1(14) . 13_656
C8 C9 C16 117.1(14) . 7_556
C13 C9 C16 104.7(13) 13_656 7_556
C17 C10 N1 101.0(17) 7_556 .
C17 C10 C11 91.6(18) 7_556 .
N1 C10 C11 125.4(11) . .
C11 C10 N2 118.7(11) . 7_556
N1 C10 C16 128.0(11) . 7_556
N2 C10 C16 97.3(10) 7_556 7_556
C16 C11 C12 100.7(19) 7_556 .
C16 C11 C9 75.4(14) 7_556 .
C12 C11 C9 118.9(13) . .
C16 C11 C10 90.8(17) 7_556 .
C12 C11 C10 126.5(11) . .
C9 C11 C10 114.6(12) . .
C12 C11 C14 116.6(13) . 7_556
C10 C11 C14 112.4(12) . 7_556
C9 C11 C15 104.7(13) . 13_656
C10 C11 C15 118.9(11) . 13_656
C14 C11 C15 88.7(12) 7_556 13_656
C12 C11 C17 126.6(12) . 7_556
C9 C11 C17 104.0(12) . 7_556
C14 C11 C17 92.0(12) 7_556 7_556
C15 C11 C17 96.5(11) 13_656 7_556
C15 C12 O4 106.4(18) 13_656 .
C15 C12 C11 80.3(13) 13_656 .
O4 C12 C11 119.7(8) . .
C15 C12 C11 80.3(13) 13_656 19_655
O4 C12 C11 119.7(8) . 19_655
C11 C12 C11 120.5(16) . 19_655
O4 C12 C16 123.4(11) . 7_556
C11 C12 C16 107.3(14) 19_655 7_556
O4 C12 C16 123.4(11) . 13_656
C11 C12 C16 107.3(14) . 13_656
C16 C12 C16 84.6(13) 7_556 13_656
C8 C13 C14 97(3) 13_656 19_655
C8 C13 C14 97(3) 13_656 .
C14 C13 C14 119.9(19) 19_655 .
C14 C13 C9 120.0(15) . 13_656
C8 C13 C9 73(3) 13_656 7_556
C14 C13 C9 120.0(15) 19_655 7_556
C9 C13 C9 108.9(18) 13_656 7_556
C8 C13 C7 73(5) 13_656 13_656
C14 C13 C7 120.0(9) 19_655 13_656
C14 C13 C7 120.0(9) . 13_656
C9 C13 C7 113.0(10) 13_656 13_656
C9 C13 C7 113.0(10) 7_556 13_656
C9 C14 C13 92(3) 7_556 .
C9 C14 C16 90(2) 7_556 .
C13 C14 C16 122.6(16) . .
C9 C14 C8 73(3) 7_556 13_656
C16 C14 C8 122.7(17) . 13_656
C13 C14 C11 115.4(16) . 7_556
C8 C14 C11 105.0(16) 13_656 7_556
C12 C15 O5 99.6(18) 13_656 .
C12 C15 C16 86.7(13) 13_656 19_655
O5 C15 C16 120.1(8) . 19_655
C12 C15 C16 86.7(13) 13_656 .
O5 C15 C16 120.1(8) . .
C16 C15 C16 119.8(16) 19_655 .
O5 C15 C11 118.5(11) . 7_556
C16 C15 C11 113.3(14) 19_655 7_556
O5 C15 C11 118.5(11) . 13_656
C16 C15 C11 113.3(14) . 13_656
C11 C15 C11 91.9(15) 7_556 13_656
C11 C16 C14 93.4(16) 7_556 .
C11 C16 C15 92.2(19) 7_556 .
C14 C16 C15 117.2(14) . .
C11 C16 C17 89.0(17) 7_556 .
C14 C16 C17 118.5(14) . .
C15 C16 C17 124.1(12) . .
C15 C16 C9 118.3(14) . 7_556
C17 C16 C9 114.1(13) . 7_556
C14 C16 C10 114.8(12) . 7_556
C15 C16 C10 120.4(12) . 7_556
C9 C16 C10 98.1(11) 7_556 7_556
C14 C16 C12 111.3(13) . 13_656
C17 C16 C12 116.2(12) . 13_656
C10 C16 C12 92.6(10) 7_556 13_656
C10 C17 N2 88.5(18) 7_556 .
C10 C17 C16 88.5(18) 7_556 .
N2 C17 C16 125.4(15) . .
N2 C17 C11 117.3(15) . 7_556
C16 C17 N1 116.0(14) . 7_556
C11 C17 N1 90.6(11) 7_556 7_556
loop_
_geom_bond_atom_site_label_1
_geom_bond_atom_site_label_2
_geom_bond_distance
_geom_bond_site_symmetry_2
In1 O2 2.0351(7) .
In1 O3 2.139(8) .
In1 O1 2.167(3) 10_666
In1 O1 2.167(3) 21_665
In1 O1 2.167(3) 16_557
In1 O1 2.167(3) .
Cu1 Cu1 1.755(7) 7_556
Cu1 N2 1.899(11) .
Cu1 O5 1.905(8) .
Cu1 O4 1.913(8) .
Cu1 N1 1.920(10) .
Cu1 N1 2.295(13) 7_556
Cu1 N2 2.441(14) 7_556
Cu1 Cu1 2.886(4) 19_655
O1 C7 1.259(5) .
O4 C12 1.30(2) .
O4 O5 1.81(2) 13_656
O5 C15 1.31(2) .
O7 N3 1.225(9) .
O8 N3 1.169(14) .
N1 N2 1.123(17) 7_556
N1 C10 1.318(15) .
N1 C1 1.526(13) 7_556
N1 C6 1.543(11) .
N1 C17 1.73(2) 7_556
N2 C17 1.253(17) .
N2 C1 1.523(11) .
N2 C10 1.524(17) 7_556
C1 C1 1.34(2) 7_556
C1 C5 1.499(11) 7_556
C1 C2 1.503(5) .
C1 C6 1.504(5) .
C2 C4 1.403(14) 7_556
C2 C3 1.503(5) .
C2 C6 1.52(2) 7_556
C3 C4 1.503(5) .
C3 C5 1.579(17) 7_556
C4 C5 1.503(5) .
C4 C4 1.50(3) 7_556
C5 C6 1.503(5) .
C7 C8 1.45(3) .
C7 C13 1.517(19) 13_656
C8 C9 1.43(2) 19_655
C8 C9 1.43(2) .
C8 C14 1.48(2) 13_656
C8 C14 1.48(2) 7_556
C9 C11 1.443(17) .
C9 C13 1.49(2) 13_656
C9 C16 1.497(18) 7_556
C10 C11 1.450(19) .
C11 C12 1.413(16) .
C13 C14 1.338(19) 19_655
C13 C14 1.339(19) .
C14 C16 1.360(19) .
C15 C16 1.411(16) 19_655
C15 C16 1.411(16) .
C16 C17 1.49(2) .
