#------------------------------------------------------------------------------
#$Date: 2019-11-17 05:17:55 +0200 (Sun, 17 Nov 2019) $
#$Revision: 228078 $
#$URL: file:///home/coder/svn-repositories/cod/cif/7/12/15/7121563.cif $
#------------------------------------------------------------------------------
#
# This file is available in the Crystallography Open Database (COD),
# http://www.crystallography.net/
#
# All data on this site have been placed in the public domain by the
# contributors.
#
data_7121563
loop_
_publ_author_name
'Omoto, Kenichiro'
'Hosono, Nobuhiko'
'Gochomori, Mika'
'Albrecht, Ken'
'Yamamoto, Kimihisa'
'Kitagawa, Susumu'
_publ_section_title
;
 Anisotropic convergence of dendritic macromolecules facilitated by a
 heteroleptic metal-organic polyhedron scaffold.
;
_journal_issue                   41
_journal_name_full
'Chemical communications (Cambridge, England)'
_journal_page_first              5209
_journal_page_last               5212
_journal_paper_doi               10.1039/c8cc02460j
_journal_volume                  54
_journal_year                    2018
_chemical_formula_moiety         'C360 H198 Cu12 N18 O60'
_chemical_formula_sum            'C360 H198 Cu12 N18 O60'
_chemical_formula_weight         6498.16
_space_group_crystal_system      trigonal
_space_group_IT_number           167
_space_group_name_Hall           '-R 3 2"c'
_space_group_name_H-M_alt        'R -3 c :H'
_symmetry_space_group_name_Hall  '-R 3 2"c'
_symmetry_space_group_name_H-M   'R -3 c :H'
_atom_sites_solution_hydrogens   geom
_atom_sites_solution_primary     direct
_atom_sites_solution_secondary   difmap
_audit_update_record
;
2018-03-02 deposited with the CCDC.
2018-04-27 downloaded from the CCDC.
;
_cell_angle_alpha                90.0000
_cell_angle_beta                 90.0000
_cell_angle_gamma                120.0000
_cell_formula_units_Z            6
_cell_length_a                   32.3220(8)
_cell_length_b                   32.3220(8)
_cell_length_c                   78.505(3)
_cell_measurement_reflns_used    21431
_cell_measurement_temperature    93
_cell_measurement_theta_max      22.42
_cell_measurement_theta_min      2.91
_cell_volume                     71027(4)
_computing_cell_refinement       'CrysAlisPro 1.171.39.20a (Rigaku OD, 2015)'
_computing_data_collection       'CrysAlisPro 1.171.39.20a (Rigaku OD, 2015)'
_computing_data_reduction        'CrysAlisPro 1.171.39.20a (Rigaku OD, 2015)'
_computing_molecular_graphics    'CrystalStructure 4.2'
_computing_publication_material  'CrystalStructure 4.2 (Rigaku, 2017)'
_computing_structure_refinement  'SHELXL Version 2017/1 (Sheldrick, 2008)'
_computing_structure_solution    'SHELXS97 (Sheldrick, 2008)'
_diffrn_ambient_temperature      93
_diffrn_measured_fraction_theta_full 0.998
_diffrn_measured_fraction_theta_max 0.941
_diffrn_measurement_device_type  'Rigaku XtaLAB P200'
_diffrn_radiation_type           'Mo K\a'
_diffrn_radiation_wavelength     0.71073
_diffrn_reflns_av_R_equivalents  0.1507
_diffrn_reflns_Laue_measured_fraction_full 0.998
_diffrn_reflns_Laue_measured_fraction_max 0.941
_diffrn_reflns_limit_h_max       45
_diffrn_reflns_limit_h_min       -38
_diffrn_reflns_limit_k_max       27
_diffrn_reflns_limit_k_min       -44
_diffrn_reflns_limit_l_max       107
_diffrn_reflns_limit_l_min       -108
_diffrn_reflns_number            215015
_diffrn_reflns_point_group_measured_fraction_full 0.998
_diffrn_reflns_point_group_measured_fraction_max 0.941
_diffrn_reflns_theta_full        25.242
_diffrn_reflns_theta_max         30.771
_diffrn_reflns_theta_min         2.822
_diffrn_standards_number         0
_exptl_absorpt_coefficient_mu    0.581
_exptl_absorpt_correction_T_max  1.000
_exptl_absorpt_correction_T_min  0.342
_exptl_absorpt_correction_type   multi-scan
_exptl_absorpt_process_details
;
CrysAlisPro 1.171.39.20a (Rigaku Oxford Diffraction, 2015)
Empirical absorption correction using spherical harmonics,
 implemented in SCALE3 ABSPACK scaling algorithm.
;
_exptl_crystal_colour            blue
_exptl_crystal_density_diffrn    0.911
_exptl_crystal_density_method    'not measured'
_exptl_crystal_description       block
_exptl_crystal_F_000             19872.00
_exptl_crystal_size_max          0.1
_exptl_crystal_size_mid          0.1
_exptl_crystal_size_min          0.1
_refine_diff_density_max         1.88
_refine_diff_density_min         -0.37
_refine_ls_extinction_method     none
_refine_ls_goodness_of_fit_ref   1.023
_refine_ls_hydrogen_treatment    constr
_refine_ls_number_parameters     885
_refine_ls_number_reflns         23230
_refine_ls_number_restraints     820
_refine_ls_R_factor_all          0.2244
_refine_ls_R_factor_gt           0.0915
_refine_ls_shift/su_max          0.001
_refine_ls_structure_factor_coef Fsqd
_refine_ls_weighting_details
'w = 1/[\s^2^(Fo^2^)+(0.1705P)^2^] where P=(Fo^2^+2Fc^2^)/3'
_refine_ls_weighting_scheme      calc
_refine_ls_wR_factor_gt          0.2694
_refine_ls_wR_factor_ref         0.3313
_reflns_Friedel_coverage         0.000
_reflns_number_gt                8612
_reflns_number_total             23230
_reflns_threshold_expression     F^2^>2.0\s(F^2^)
_cod_data_source_file            c8cc02460j2.cif
_cod_data_source_block           Cu12IpG26L6
_cod_depositor_comments          'Adding full bibliography for 7121563.cif.'
_cod_database_code               7121563
_shelx_res_file
;
TITL xcalibur
    shelxl.res
    created by SHELXL-2017/1 at 16:02:04 on 23-Feb-2018
CELL  0.71073 32.32200 32.32200 78.50500 90.000 90.000 120.000
ZERR  6 0.00080 0.00080 0.00300 0.000 0.000 0.000
LATT 3
SYMM    -Y,    +X-Y,    +Z
SYMM    -X+Y,    -X,    +Z
SYMM    -Y,    -X, 1/2+Z
SYMM    +X,    +X-Y, 1/2+Z
SYMM    -X+Y,    +Y, 1/2+Z
SFAC C H CU N O
UNIT 2160 1188 72 108 360
L.S. 50

FMAP 2
PLAN -50
WPDB -2
BOND $H
CONF
LIST 4
TEMP 23.0
ACTA
ABIN

DFIX 1.40 0.0200 C20 N1
DFIX 1.40 0.0200 C20 N4
DFIX 1.40 0.0200 C72 N4
DFIX 1.40 0.0200 C61 N4
DFIX 2.30 0.0200 C66 N4
DFIX 2.30 0.0200 C67 N4

DFIX 2.30 0.0200 C25 C31

DFIX 2.30 0.0200 C26 C31

DFIX 1.4000 0.0200 C54 C56
DFIX 1.4 0.0200 C96 N6
DFIX 1.4 0.0200 C85 N6
DFIX 1.4 0.0200 C84 N5
DFIX 1.4 0.0200 C73 N5

FLAT 0.1000 C48 C49 C51 C52 C53 C54 C56 C57 C58 C59 C60 C55 N3
FLAT 0.1000 C61 C62 C63 C64 C65 C66 C67 C68 C69 C70 C71 C72 N4 C20

FLAT 0.1000 C85 C86 C87 C88 C89 C90 C91 C92 C93 C94 C95 C96 N6

FLAT 0.1000  N5 C73 C74 C75 C76 C77 C78 C79 C80 C81 C82 C83 C84
FLAT 0.1000  N2 C47 C46 C45 C44 C43 C42 C41 C40 C39 C38 C37 C36

DELU 0.0100 0.0100 C56 C57 C58 C59 C60 C55 N3 C48 C49 C51 C52 C53 C54
DELU 0.0100 0.0100 N6 C85 C86 C87 C88 C89 C90 C91 C92 C93 C94 C95 C96
DELU 0.0100 0.0100 N2 C47 C46 C45 C44 C43 C42 C41 C40 C39 C38 C37 C36
DELU 0.0100 0.0100 N5 C73 C74 C75 C76 C77 C78 C79 C80 C81 C82 C83 C84
DELU 0.0100 0.0100 N1 C31 C50 C35 C34 C33 C32 C26 C27 C28 C29 C30 C25
DELU 0.0100 0.0100 N4 C61 C62 C63 C64 C65 C66 C68 C67 C69 C70 C71 C72

SIMU 0.0400 0.0800 C56 C57 C58 C59 C60 C55 N3 C48 C49 C51 C52 C53 C54
SIMU 0.0400 0.08000 N6 C85 C86 C87 C88 C89 C90 C91 C92 C93 C94 C95 C96
SIMU 0.0400 0.0800 N2 C47 C46 C45 C44 C43 C42 C41 C40 C39 C38 C37 C36
SIMU 0.0400 0.0800 N5 C73 C74 C75 C76 C77 C78 C79 C80 C81 C82 C83 C84
SIMU 0.0400 0.0800 N1 C31 C50 C35 C34 C33 C32 C26 C27 C28 C29 C30 C25
SIMU 0.0400 0.0800 N4 C61 C62 C63 C64 C65 C66 C68 C67 C69 C70 C71 C72
omit -5 5 2
omit   -1   1  16
omit   -6   6   6
omit  -5   7   6
REM HTAB
HTAB
WGHT    0.170500
FVAR       0.01678   0.53999   0.41500
PART 1

N5    4    0.021368    0.656026    0.129393    21.00000    0.07343    0.06918 =
         0.13260    0.04023    0.04115    0.04145
AFIX  66
C73   1   -0.006393    0.612601    0.137139    21.00000    0.06266    0.04965 =
         0.10610    0.02754    0.00200    0.01914
C74   1   -0.049069    0.595584    0.146015    21.00000    0.07599    0.03706 =
         0.12791    0.02481    0.01823    0.00792
AFIX  43
H74   2   -0.062790    0.614743    0.147296    21.00000   -1.20000
AFIX  65
C75   1   -0.071238    0.549933    0.152977    21.00000    0.11093    0.03846 =
         0.15482    0.03276    0.05286    0.01673
AFIX  43
H75   2   -0.099791    0.538548    0.158916    21.00000   -1.20000
AFIX  65
C76   1   -0.050730    0.521297    0.151063    21.00000    0.11098    0.05553 =
         0.14682    0.02429    0.02166    0.02588
AFIX  43
H76   2   -0.065562    0.490753    0.155721    21.00000   -1.20000
AFIX  65
C77   1   -0.008054    0.538313    0.142187    21.00000    0.13459    0.06432 =
         0.15331    0.02500    0.03656    0.05314
AFIX  43
H77   2    0.005667    0.519154    0.140906    21.00000   -1.20000
AFIX  65
C78   1    0.014115    0.583964    0.135225    21.00000    0.08775    0.05797 =
         0.17070    0.03463    0.01745    0.03697
AFIX  66

C79   1    0.057161    0.609662    0.124974    21.00000    0.09135    0.07595 =
         0.15645    0.03044    0.01833    0.05133
C80   1    0.093383    0.601583    0.119458    21.00000    0.12632    0.09697 =
         0.17445    0.01056    0.02435    0.07829
AFIX  43
H80   2    0.091209    0.572182    0.121418    21.00000   -1.20000
AFIX  65
C81   1    0.132853    0.637447    0.111012    21.00000    0.10795    0.12938 =
         0.15283   -0.01208    0.01792    0.06075
AFIX  43
H81   2    0.157088    0.632041    0.107321    21.00000   -1.20000
AFIX  65
C82   1    0.136102    0.681389    0.108082    21.00000    0.09468    0.12265 =
         0.13559    0.00122    0.02660    0.04937
AFIX  43
H82   2    0.162510    0.705385    0.102431    21.00000   -1.20000
AFIX  65
C83   1    0.099881    0.689469    0.113598    21.00000    0.08891    0.09029 =
         0.12580    0.01531    0.03838    0.03081
AFIX  43
H83   2    0.102055    0.718869    0.111637    21.00000   -1.20000
AFIX  65
C84   1    0.060410    0.653605    0.122044    21.00000    0.06097    0.06397 =
         0.14720    0.01481    0.02152    0.03532
AFIX  66

C25   1   -0.019925    0.758561    0.123447    21.00000    0.13351    0.06788 =
         0.05687    0.00790   -0.00546    0.05078
C26   1   -0.012885    0.744663    0.139440    21.00000    0.12532    0.08368 =
         0.04928    0.01996    0.01124    0.04919
C27   1   -0.000304    0.709500    0.140884    21.00000    0.17217    0.07916 =
         0.07531    0.02982    0.01499    0.06380
AFIX  43
H27   2    0.004406    0.700202    0.151584    21.00000   -1.20000
AFIX  65
C28   1    0.005238    0.688235    0.126335    21.00000    0.19662    0.09171 =
         0.09520    0.01958    0.02494    0.08230
C29   1   -0.001802    0.702133    0.110343    21.00000    0.25923    0.08145 =
         0.08434    0.01206    0.01627    0.09344
AFIX  43
H29   2    0.001906    0.687905    0.100609    21.00000   -1.20000
AFIX  65
C30   1   -0.014383    0.737296    0.108898    21.00000    0.22219    0.10414 =
         0.06528   -0.02120   -0.02726    0.09555
AFIX  43
H30   2   -0.019093    0.746594    0.098198    21.00000   -1.20000
AFIX  66

C31   1   -0.024773    0.807717    0.142885    21.00000    0.09097    0.07671 =
         0.05110    0.00454    0.00534    0.02767
C32   1   -0.014754    0.776563    0.151776    21.00000    0.07098    0.07567 =
         0.05386    0.02289    0.01888    0.03008
C33   1   -0.010428    0.779633    0.169410    21.00000    0.09362    0.07736 =
         0.05927   -0.00516    0.00854    0.04463
AFIX  43
H33   2   -0.003725    0.758788    0.175359    21.00000   -1.20000
AFIX  65
C34   1   -0.016119    0.813856    0.178154    21.00000    0.09360    0.08702 =
         0.05604   -0.00542    0.00136    0.06381

C35   1   -0.026138    0.845010    0.169263    21.00000    0.09358    0.11975 =
         0.07322   -0.01191   -0.00659    0.07945
AFIX  43
H35   2   -0.029945    0.867908    0.175113    21.00000   -1.20000
AFIX  65
C50   1   -0.030464    0.841941    0.151628    21.00000    0.11358    0.11834 =
         0.06722    0.00737   -0.00120    0.07823
AFIX  43
H50   2   -0.037167    0.862786    0.145680    21.00000   -1.20000
AFIX   0

N1    4   -0.022217    0.802067    0.125555    21.00000    0.08391    0.09503 =
         0.05857    0.00444    0.00025    0.05407
N6    4   -0.009092    0.820008    0.195614    21.00000    0.12201    0.09224 =
         0.05379    0.00752    0.01454    0.06014
AFIX  66
C85   1   -0.032071    0.785772    0.207823    21.00000    0.06896    0.09817 =
         0.07072    0.01345    0.01131    0.04152
C86   1   -0.070214    0.739486    0.206098    21.00000    0.09080    0.11911 =
         0.08745    0.01417   -0.00684    0.02636
AFIX  43
H86   2   -0.082733    0.727667    0.195366    21.00000   -1.20000
AFIX  65
C87   1   -0.089647    0.710865    0.220412    21.00000    0.16511    0.10298 =
         0.10615    0.04998   -0.02832    0.01689
AFIX  43
H87   2   -0.115168    0.679897    0.219258    21.00000   -1.20000
AFIX  65
C88   1   -0.070937    0.728530    0.236452    21.00000    0.07862    0.07566 =
         0.07909    0.01697    0.02024    0.03622
AFIX  43
H88   2   -0.083939    0.709381    0.246030    21.00000   -1.20000
AFIX  65
C89   1   -0.032793    0.774816    0.238178    21.00000    0.09995    0.12433 =
         0.07266    0.01621    0.02412    0.06806
AFIX  43
H89   2   -0.020275    0.786636    0.248910    21.00000   -1.20000
AFIX  65
C90   1   -0.013360    0.803438    0.223864    21.00000    0.09885    0.09001 =
         0.06756    0.00790    0.01853    0.05579
AFIX  66

C91   1    0.025833    0.850739    0.221555    21.00000    0.08772    0.09958 =
         0.06908   -0.00826   -0.00119    0.06107
C92   1    0.059540    0.886109    0.232087    21.00000    0.09936    0.12420 =
         0.06356    0.00992    0.00233    0.04493
AFIX  43
H92   2    0.059132    0.880767    0.243742    21.00000   -1.20000
AFIX  65
C93   1    0.093857    0.929466    0.225200    21.00000    0.15941    0.12036 =
         0.08295   -0.00731    0.01459    0.00728
AFIX  43
H93   2    0.116409    0.953131    0.232246    21.00000   -1.20000
AFIX  65
C94   1    0.094467    0.937451    0.207780    21.00000    0.19745    0.10671 =
         0.07883   -0.00168    0.00939    0.00442
AFIX  43
H94   2    0.117427    0.966460    0.203172    21.00000   -1.20000
AFIX  65
C95   1    0.060761    0.902081    0.197247    21.00000    0.13865    0.10888 =
         0.07688   -0.01241    0.02173    0.02272
AFIX  43
H95   2    0.061169    0.907424    0.185592    21.00000   -1.20000
AFIX  65
C96   1    0.026443    0.858725    0.204135    21.00000    0.09677    0.08431 =
         0.05890   -0.00489    0.02171    0.05742
AFIX  66

PART 0

PART 2
C36   1    0.042678    0.653083    0.118689   -21.00000    0.05165    0.06114 =
         0.09248    0.01152   -0.00271    0.03893
C37   1    0.080852    0.689760    0.109984   -21.00000    0.05367    0.07768 =
         0.06373    0.01427    0.00391    0.03588
AFIX  43
H37   2    0.083831    0.719871    0.109400   -21.00000   -1.20000
AFIX  65
C38   1    0.114576    0.681432    0.102151   -21.00000    0.07211    0.08568 =
         0.04495   -0.00323   -0.00091    0.04377
AFIX  43
H38   2    0.140117    0.705971    0.096327   -21.00000   -1.20000
AFIX  65
C39   1    0.110124    0.636427    0.103023   -21.00000    0.09649    0.10364 =
         0.05936   -0.00518   -0.00681    0.06941
AFIX  43
H39   2    0.132687    0.630855    0.097782   -21.00000   -1.20000
AFIX  65
C40   1    0.071949    0.599750    0.111728   -21.00000    0.10614    0.07776 =
         0.07816   -0.00239   -0.01076    0.07368
AFIX  43
H40   2    0.068971    0.569639    0.112312   -21.00000   -1.20000
AFIX  65
C41   1    0.038226    0.608078    0.119561   -21.00000    0.08707    0.08801 =
         0.09764    0.02205    0.00186    0.06676
AFIX  66

C42   1   -0.004512    0.578681    0.130390   -21.00000    0.07474    0.06864 =
         0.12643    0.02735   -0.00953    0.03072
C43   1   -0.026892    0.531583    0.135980   -21.00000    0.12744    0.06969 =
         0.16860    0.02400   -0.01404    0.02155
AFIX  43
H43   2   -0.014017    0.512308    0.133297   -21.00000   -1.20000
AFIX  65
C44   1   -0.068513    0.513293    0.145581   -21.00000    0.11931    0.10469 =
         0.21515    0.04622    0.00313    0.00957
AFIX  43
H44   2   -0.083486    0.481781    0.149322   -21.00000   -1.20000
AFIX  65
C45   1   -0.087755    0.542100    0.149592   -21.00000    0.16446    0.09260 =
         0.18909    0.03019    0.05463    0.00513
AFIX  43
H45   2   -0.115603    0.529863    0.156016   -21.00000   -1.20000
AFIX  65
C46   1   -0.065376    0.589199    0.144002   -21.00000    0.07356    0.11101 =
         0.14483    0.03603    0.02658    0.01747
AFIX  43
H46   2   -0.078251    0.608473    0.146686   -21.00000   -1.20000
AFIX  65
C47   1   -0.023755    0.607489    0.134401   -21.00000    0.04274    0.07908 =
         0.11483    0.02614    0.00413    0.01922
AFIX   0

N2    4    0.004527    0.653230    0.127749   -21.00000    0.06354    0.08137 =
         0.08989    0.02178    0.01768    0.04105
N3    4   -0.033456    0.832977    0.192721   -21.00000    0.08993    0.10963 =
         0.05543    0.00294   -0.00283    0.08547
AFIX  66
C48   1   -0.070765    0.830761    0.201224   -21.00000    0.09607    0.10164 =
         0.05524    0.00816    0.00948    0.06548
C49   1   -0.117990    0.811165    0.196006   -21.00000    0.08281    0.16206 =
         0.08550   -0.00255    0.01181    0.08095
AFIX  43
H49   2   -0.127135    0.797528    0.185247   -21.00000   -1.20000
AFIX  65
C51   1   -0.151547    0.811953    0.206870   -21.00000    0.10558    0.18021 =
         0.09608    0.00548    0.01763    0.09290
AFIX  43
H51   2   -0.183144    0.798841    0.203379   -21.00000   -1.20000
AFIX  65
C52   1   -0.137879    0.832336    0.222952   -21.00000    0.13181    0.21371 =
         0.08417    0.00547    0.01658    0.11049
AFIX  43
H52   2   -0.160331    0.832863    0.230221   -21.00000   -1.20000
AFIX  65
C53   1   -0.090654    0.851932    0.228170   -21.00000    0.13436    0.14428 =
         0.06509    0.00091    0.02010    0.10105
AFIX  43
H53   2   -0.081510    0.865570    0.238930   -21.00000   -1.20000
AFIX  65
C54   1   -0.057097    0.851145    0.217306   -21.00000    0.10195    0.10328 =
         0.07798   -0.01027    0.00819    0.06018
AFIX  66

C55   1    0.005061    0.855906    0.203510   -21.00000    0.08914    0.07632 =
         0.07575    0.00445    0.00627    0.05105
C56   1   -0.007433    0.867696    0.218953   -21.00000    0.10435    0.06588 =
         0.06316    0.00329   -0.00434    0.05402
C57   1    0.027119    0.891336    0.231397   -21.00000    0.10423    0.12300 =
         0.07445    0.00603    0.00084    0.02485
AFIX  43
H57   2    0.018760    0.899224    0.241729   -21.00000   -1.20000
AFIX  65
C58   1    0.074166    0.903186    0.228397   -21.00000    0.10301    0.10422 =
         0.09360   -0.00610   -0.00809    0.02288
AFIX  43
H58   2    0.097284    0.919003    0.236723   -21.00000   -1.20000
AFIX  65
C59   1    0.086661    0.891396    0.212954   -21.00000    0.09776    0.09717 =
         0.09477    0.00094   -0.01154    0.04069
AFIX  43
H59   2    0.118138    0.899324    0.210947   -21.00000   -1.20000
AFIX  65
C60   1    0.052109    0.867756    0.200510   -21.00000    0.08339    0.05860 =
         0.07014    0.00968    0.00409    0.04105
AFIX  43
H60   2    0.060469    0.859868    0.190177   -21.00000   -1.20000
AFIX   0

N4    4   -0.034676    0.798121    0.124147   -21.00000    0.03868    0.03894 =
         0.06678   -0.01087    0.00449    0.00373
AFIX  66
C61   1   -0.029849    0.814393    0.140498   -21.00000    0.05697    0.06549 =
         0.06614   -0.00351    0.01014    0.03013
C62   1   -0.038201    0.849639    0.146915   -21.00000    0.05931    0.07362 =
         0.06375   -0.00060    0.01444    0.03837
AFIX  43
H62   2   -0.043435    0.869002    0.139501   -21.00000   -1.20000
AFIX  65

C63   1   -0.038732    0.855946    0.164411   -21.00000    0.08275    0.07120 =
         0.07328   -0.00004    0.00605    0.05244
AFIX  43
H63   2   -0.044320    0.879529    0.168704   -21.00000   -1.20000
AFIX  65
C64   1   -0.030909    0.827006    0.175492   -21.00000    0.08573    0.09186 =
         0.07830   -0.01028   -0.00872    0.07191
C65   1   -0.022557    0.791759    0.169076   -21.00000    0.05977    0.06097 =
         0.07072   -0.00594    0.00952    0.03487
AFIX  43
H65   2   -0.017323    0.772396    0.176489   -21.00000   -1.20000
AFIX  65

C66   1   -0.022026    0.785452    0.151579   -21.00000    0.07462    0.05657 =
         0.05576    0.00296    0.01861    0.02251
AFIX  66

C67   1   -0.012575    0.753299    0.140125   -21.00000    0.04777    0.03242 =
         0.05247    0.00155    0.01154    0.00201
C68   1   -0.002763    0.716272    0.141911   -21.00000    0.04333    0.05567 =
         0.04420    0.01286    0.01812    0.00838
AFIX  43
H68   2    0.001325    0.706992    0.152703   -21.00000   -1.20000
AFIX  65
C69   1    0.000940    0.693117    0.127567   -21.00000    0.08351    0.03233 =
         0.07064    0.01715    0.02491    0.03036
C70   1   -0.005170    0.706988    0.111437   -21.00000    0.08362    0.04896 =
         0.04791    0.00855    0.02884    0.03424
AFIX  43
H70   2   -0.002692    0.691495    0.101839   -21.00000   -1.20000
AFIX  65

C71   1   -0.014983    0.744014    0.109650   -21.00000    0.10294    0.03604 =
         0.05569    0.01670    0.02412    0.03124
AFIX  43
H71   2   -0.019070    0.753294    0.098858   -21.00000   -1.20000
AFIX  65
C72   1   -0.018686    0.767170    0.123994   -21.00000    0.05968    0.03183 =
         0.05261   -0.00021    0.01374    0.00633
AFIX   0

PART 0

CU1   3    0.171747    0.968721    0.083280    11.00000    0.04416    0.06569 =
         0.05664    0.01350   -0.00147    0.03493
CU2   3    0.128958    0.975812    0.055637    11.00000    0.04028    0.06357 =
         0.06201    0.01729   -0.00136    0.03051
O1    5    0.229653    1.014111    0.070669    11.00000    0.04834    0.07276 =
         0.04763    0.01205    0.00106    0.03075
O2    5    0.193129    1.015872    0.046686    11.00000    0.04966    0.09143 =
         0.05476    0.02013    0.00388    0.03544
O3    5    0.105940    0.925373    0.090902    11.00000    0.05225    0.07843 =
         0.08807    0.02368    0.00218    0.04089
O4    5    0.070094    0.935685    0.067991    11.00000    0.03947    0.06379 =
         0.08843    0.02662    0.00955    0.03035
O5    5    0.166684    1.022814    0.091808    11.00000    0.06498    0.07099 =
         0.08299    0.01747    0.00453    0.04839
O6    5    0.134209    1.031262    0.067990    11.00000    0.05455    0.06093 =
         0.08094    0.01436    0.00078    0.03823
O7    5    0.171518    0.915913    0.071585    11.00000    0.06331    0.07271 =
         0.06403   -0.00070   -0.01474    0.04139
O8    5    0.131982    0.918710    0.048627    11.00000    0.05533    0.07693 =
         0.06197   -0.00195   -0.01398    0.04070
O9    5    0.206632    0.965603    0.105921    11.00000    0.11213    0.10047 =
         0.08351    0.01633   -0.01759    0.07292
O10   5    0.091306    0.981697    0.034679    11.00000    0.12319    0.16133 =
         0.18330    0.07778   -0.08487    0.03048
C1    1    0.229578    1.026802    0.055859    11.00000    0.05428    0.05886 =
         0.05606    0.00396   -0.00630    0.03394
C2    1    0.277279    1.057166    0.047501    11.00000    0.04470    0.05586 =
         0.05255   -0.00128   -0.00026    0.03005
C3    1    0.318422    1.072703    0.056879    11.00000    0.05375    0.08011 =
         0.05289   -0.00228   -0.00083    0.02956
AFIX  43
H3    2    0.316420    1.064339    0.068308    11.00000   -1.20000
AFIX   0
C4    1    0.362485    1.100507    0.049483    11.00000    0.04610    0.11581 =
         0.06889   -0.00148   -0.01196    0.02937
AFIX  43
H4    2    0.390117    1.112338    0.056009    11.00000   -1.20000
AFIX   0
C5    1    0.365383    1.110749    0.032238    11.00000    0.04163    0.10644 =
         0.06477    0.00217    0.00669    0.02510
AFIX  43
H5    2    0.395173    1.128021    0.027085    11.00000   -1.20000
AFIX   0
C6    1    0.324184    1.095467    0.022537    11.00000    0.04921    0.06999 =
         0.05539    0.00315    0.00064    0.03162
C7    1    0.280371    1.068835    0.030478    11.00000    0.04033    0.06021 =
         0.05696    0.00071    0.00264    0.03181
AFIX  43
H7    2    0.252503    1.058625    0.024214    11.00000   -1.20000
AFIX   0
C8    1    0.327331    1.106493    0.004575    11.00000    0.05063    0.07144 =
         0.07203    0.00357    0.00606    0.02806
C9    1    0.330324    1.118261   -0.009838    11.00000    0.05203    0.07496 =
         0.06682    0.00580    0.00556    0.02503
C10   1    0.135460    0.803727    0.026791    11.00000    0.05994    0.08404 =
         0.05986    0.00535   -0.00743    0.03838
C11   1    0.156685    0.781330    0.035714    11.00000    0.10019    0.08367 =
         0.09525   -0.00784   -0.02277    0.06326
AFIX  43
H11   2    0.158950    0.756173    0.030967    11.00000   -1.20000
AFIX   0
C12   1    0.174338    0.798683    0.052140    11.00000    0.13121    0.10846 =
         0.08510   -0.00948   -0.04043    0.09025
AFIX  43
H12   2    0.186856    0.783400    0.058602    11.00000   -1.20000
AFIX   0
C13   1    0.173630    0.836758    0.058772    11.00000    0.09970    0.09991 =
         0.06527   -0.01001   -0.02912    0.07099
AFIX  43
H13   2    0.187184    0.848343    0.069405    11.00000   -1.20000
AFIX   0
C14   1    0.152975    0.858766    0.049938    11.00000    0.05636    0.07323 =
         0.06279    0.00351   -0.00171    0.04070
C15   1    0.133543    0.842058    0.034067    11.00000    0.06162    0.07407 =
         0.05691   -0.00120   -0.00587    0.04391
AFIX  43
H15   2    0.119081    0.856434    0.028185    11.00000   -1.20000
AFIX   0
C16   1    0.151935    0.900706    0.057113    11.00000    0.04676    0.06680 =
         0.06169    0.00368   -0.00316    0.03187
C17   1    0.069877    0.918338    0.082069    11.00000    0.05075    0.04600 =
         0.09548   -0.00038    0.00985    0.02954
C18   1    0.022265    0.886620    0.090326    11.00000    0.05189    0.04224 =
         0.07640   -0.00071    0.00948    0.02408
C19   1    0.017454    0.858259    0.104277    11.00000    0.07112    0.05052 =
         0.07878    0.00262    0.00898    0.03754
AFIX  43
H19   2    0.044423    0.859516    0.109022    11.00000   -1.20000
AFIX   0
C20   1   -0.026136    0.828725    0.111071    11.00000    0.06724    0.05438 =
         0.06190    0.00667    0.01783    0.02674
C21   1   -0.066346    0.826671    0.104540    11.00000    0.04862    0.05069 =
         0.07223   -0.00067    0.01230    0.01463
AFIX  43
H21   2   -0.095971    0.806957    0.109508    11.00000   -1.20000
AFIX   0

C22   1   -0.062619    0.854057    0.090531    11.00000    0.04352    0.04069 =
         0.07024   -0.00268    0.01337    0.01534
C23   1   -0.019670    0.882814    0.083505    11.00000    0.04708    0.04381 =
         0.07657   -0.00236    0.00299    0.02550
AFIX  43
H23   2   -0.017664    0.900600    0.073909    11.00000   -1.20000
AFIX   0
C24   1    0.148852    1.042432    0.082680    11.00000    0.04260    0.05666 =
         0.07492    0.01453    0.00500    0.02546

HKLF 4




REM  xcalibur
REM R1 =  0.0915 for    8612 Fo > 4sig(Fo)  and  0.2244 for all   23230 data
REM    885 parameters refined using    820 restraints

END

WGHT      0.1707      0.0000

REM No hydrogen bonds found for HTAB generation

REM Highest difference peak  1.877,  deepest hole -0.367,  1-sigma level  0.087
Q1    1   0.2347  0.9978  0.1129  11.00000  0.05    1.88
Q2    1   0.2202  0.9597  0.1183  11.00000  0.05    1.57
Q3    1  -0.1222  0.7146  0.2299  11.00000  0.05    1.17
Q4    1  -0.1531  0.7836  0.2240  11.00000  0.05    0.64
Q5    1   0.1900  0.9985  0.0835  11.00000  0.05    0.63
Q6    1   0.1478  1.0015  0.0579  11.00000  0.05    0.56
Q7    1   0.1137  0.9958  0.0213  11.00000  0.05    0.54
Q8    1   0.1003  1.0091  0.0386  11.00000  0.05    0.54
Q9    1   0.1059  0.9790  0.0279  11.00000  0.05    0.51
Q10   1   0.1316  0.9679  0.0623  11.00000  0.05    0.44
Q11   1   0.1648  0.9537  0.0927  11.00000  0.05    0.39
Q12   1  -0.1254  0.8352  0.1880  11.00000  0.05    0.38
Q13   1  -0.0451  0.9002  0.2171  11.00000  0.05    0.38
Q14   1   0.0987  0.9499  0.0664  11.00000  0.05    0.36
Q15   1   0.0603  0.5698  0.1000  11.00000  0.05    0.35
Q16   1   0.1523  1.0379  0.0894  11.00000  0.05    0.35
Q17   1   0.3209  1.1222 -0.0046  11.00000  0.05    0.33
Q18   1   0.0591  0.9674  0.0261  11.00000  0.05    0.32
Q19   1  -0.0005  0.8800  0.0859  11.00000  0.05    0.31
Q20   1   0.0906  0.9148  0.0859  11.00000  0.05    0.31
Q21   1   0.3511  1.1394 -0.0338  11.00000  0.05    0.31
Q22   1   0.0297  0.5867  0.1532  11.00000  0.05    0.30
Q23   1  -0.0667  0.6890  0.2275  11.00000  0.05    0.30
Q24   1   0.0520  0.6974  0.0984  11.00000  0.05    0.30
Q25   1  -0.0196  0.7460  0.1465  11.00000  0.05    0.29
Q26   1   0.0219  0.8833  0.0985  11.00000  0.05    0.29
Q27   1  -0.0321  0.8283  0.1187  11.00000  0.05    0.29
Q28   1   0.1604  0.9103  0.0641  11.00000  0.05    0.29
Q29   1   0.3608  1.0903  0.0401  11.00000  0.05    0.28
Q30   1   0.3928  1.1347  0.0109  11.00000  0.05    0.28
Q31   1  -0.0457  0.7360  0.1666  11.00000  0.05    0.28
Q32   1   0.3478  1.0946  0.0264  11.00000  0.05    0.27
Q33   1   0.0122  0.7549  0.1090  11.00000  0.05    0.27
Q34   1   0.3329  1.1261  0.0075  11.00000  0.05    0.27
Q35   1  -0.1385  0.6460  0.2206  11.00000  0.05    0.27
Q36   1   0.1383  0.9388  0.0488  11.00000  0.05    0.27
Q37   1   0.3470  1.1522 -0.0110  11.00000  0.05    0.26
Q38   1  -0.1605  0.8173  0.2412  11.00000  0.05    0.26
Q39   1   0.3409  1.1600 -0.0232  11.00000  0.05    0.26
Q40   1  -0.1892  0.8154  0.2277  11.00000  0.05    0.25
Q41   1  -0.0685  0.5287  0.1400  11.00000  0.05    0.25
Q42   1  -0.0610  0.5828  0.1296  11.00000  0.05    0.25
Q43   1  -0.1168  0.6981  0.2436  11.00000  0.05    0.25
Q44   1  -0.1312  0.8101  0.1890  11.00000  0.05    0.25
Q45   1   0.0699  0.7202  0.1041  11.00000  0.05    0.25
Q46   1   0.4040  1.1584  0.0245  11.00000  0.05    0.24
Q47   1  -0.1199  0.8178  0.2319  11.00000  0.05    0.24
Q48   1   0.0100  0.6603  0.0903  11.00000  0.05    0.24
Q49   1  -0.0789  0.5258  0.1358  11.00000  0.05    0.24
Q50   1   0.0433  0.9364  0.2005  11.00000  0.05    0.24
;
_shelx_res_checksum              39466
_shelx_fab_file
;
    0    3    0    947.27      0.00
   -2    4    0    908.51      0.00
   -1    5    0    -36.90      0.00
   -3    6    0    136.21      0.00
    0    6    0    917.97      0.00
   -2    7    0    205.22      0.00
   -4    8    0    144.06      0.00
   -1    8    0    419.90      0.00
   -3    9    0    -41.37      0.00
    0    9    0    -58.06      0.00
   -5   10    0   -154.54      0.00
   -2   10    0    240.29      0.00
   -4   11    0   -193.06      0.00
   -1   11    0    141.86      0.00
   -6   12    0    -15.49      0.00
   -3   12    0     -6.92      0.00
    0   12    0    106.71      0.00
   -5   13    0    140.41      0.00
   -2   13    0     17.10      0.00
   -7   14    0    194.47      0.00
   -4   14    0    -20.25      0.00
   -1   14    0     16.92      0.00
   -6   15    0     25.62      0.00
   -3   15    0     58.36      0.00
    0   15    0     65.28      0.00
   -8   16    0    159.91      0.00
   -5   16    0    109.22      0.00
   -2   16    0     64.13      0.00
   -7   17    0    -41.99      0.00
   -4   17    0     32.41      0.00
   -1   17    0     -5.64      0.00
   -9   18    0     68.88      0.00
   -6   18    0     -2.62      0.00
   -3   18    0     54.62      0.00
    0   18    0    -10.04      0.00
   -8   19    0     16.00      0.00
   -5   19    0    -31.10      0.00
   -2   19    0    -27.39      0.00
  -10   20    0      5.40      0.00
   -7   20    0     38.56      0.00
   -4   20    0    -20.69      0.00
   -1   20    0    -28.70      0.00
   -9   21    0    -62.03      0.00
   -6   21    0    -23.11      0.00
   -3   21    0      0.10      0.00
    0   21    0     68.55      0.00
  -11   22    0      7.05      0.00
   -8   22    0     17.92      0.00
   -5   22    0     -0.49      0.00
   -2   22    0      7.01      0.00
  -10   23    0     22.69      0.00
   -7   23    0     -4.80      0.00
   -4   23    0     18.79      0.00
   -1   23    0    -31.73      0.00
  -12   24    0    -52.42      0.00
   -9   24    0     15.21      0.00
   -6   24    0      5.91      0.00
   -3   24    0     19.20      0.00
    0   24    0     16.82      0.00
  -11   25    0    -13.18      0.00
   -8   25    0      3.03      0.00
   -5   25    0     -6.67      0.00
   -2   25    0      2.75      0.00
  -13   26    0      4.30      0.00
  -10   26    0     -1.24      0.00
   -7   26    0     -3.03      0.00
   -4   26    0     -5.65      0.00
   -1   26    0     -7.94      0.00
  -12   27    0    -17.23      0.00
   -9   27    0     -2.56      0.00
   -6   27    0      4.86      0.00
   -3   27    0     25.16      0.00
    0   27    0    -16.31      0.00
  -14   28    0     12.21      0.00
  -11   28    0     18.70      0.00
   -8   28    0     12.35      0.00
   -5   28    0     25.56      0.00
   -2   28    0     15.33      0.00
  -13   29    0     37.93      0.00
  -10   29    0     19.24      0.00
   -7   29    0      3.32      0.00
   -4   29    0      7.39      0.00
   -1   29    0    -12.01      0.00
  -15   30    0     23.65      0.00
  -12   30    0     20.13      0.00
   -9   30    0      5.32      0.00
   -6   30    0     14.97      0.00
   -3   30    0    -11.45      0.00
    0   30    0     11.95      0.00
  -14   31    0     -2.11      0.00
  -11   31    0     -5.23      0.00
   -8   31    0     32.14      0.00
   -5   31    0     27.94      0.00
   -2   31    0    -21.92      0.00
  -16   32    0     46.27      0.00
  -13   32    0     13.56      0.00
  -10   32    0     -7.28      0.00
   -7   32    0     -8.19      0.00
   -4   32    0      5.12      0.00
   -1   32    0     -2.16      0.00
  -15   33    0     -0.12      0.00
  -12   33    0     -9.16      0.00
   -9   33    0      0.13      0.00
   -6   33    0     -8.80      0.00
   -3   33    0    -11.38      0.00
    0   33    0     -8.71      0.00
  -17   34    0      2.38      0.00
  -14   34    0    -19.92      0.00
  -11   34    0    -23.09      0.00
   -8   34    0     -4.59      0.00
   -5   34    0    -43.62      0.00
   -2   34    0     39.38      0.00
  -16   35    0     14.52      0.00
  -13   35    0      1.91      0.00
  -10   35    0     13.37      0.00
   -7   35    0      1.95      0.00
   -4   35    0      0.24      0.00
   -1   35    0     29.25      0.00
  -18   36    0     -0.70      0.00
  -15   36    0      3.75      0.00
  -12   36    0     15.03      0.00
   -9   36    0    -11.67      0.00
   -6   36    0     15.13      0.00
   -3   36    0    -35.87      0.00
    0   36    0      7.64      0.00
  -17   37    0     21.82      0.00
  -14   37    0     14.73      0.00
  -11   37    0      6.96      0.00
   -8   37    0     -2.64      0.00
   -5   37    0     28.86      0.00
   -2   37    0    -18.00      0.00
  -19   38    0    -32.69      0.00
  -16   38    0    -26.83      0.00
  -13   38    0     29.20      0.00
  -10   38    0     -7.39      0.00
   -7   38    0    -23.24      0.00
   -4   38    0     -6.51      0.00
   -1   38    0      3.87      0.00
  -18   39    0     -5.81      0.00
  -15   39    0    -19.60      0.00
  -12   39    0      6.19      0.00
   -9   39    0     -6.20      0.00
   -6   39    0    -24.02      0.00
   -3   39    0     -1.69      0.00
  -20   40    0    -15.68      0.00
  -17   40    0      3.94      0.00
  -14   40    0     -2.92      0.00
  -11   40    0     -1.75      0.00
   -8   40    0    -14.49      0.00
  -19   41    0    -15.70      0.00
  -16   41    0      6.68      0.00
  -13   41    0    -11.73      0.00
  -10   41    0    -41.68      0.00
   -7   41    0    -17.43      0.00
  -21   42    0     19.12      0.00
  -18   42    0     19.69      0.00
  -15   42    0     15.38      0.00
  -12   42    0     -7.34      0.00
   -9   42    0    -20.87      0.00
  -20   43    0     26.12      0.00
  -17   43    0     -9.60      0.00
  -14   43    0    -29.83      0.00
  -11   43    0    -20.93      0.00
  -22   44    0     18.13      0.00
  -19   44    0     -2.26      0.00
  -16   44    0     -6.10      0.00
  -13   44    0     25.74      0.00
  -10   44    0      9.49      0.00
   -2    3    1   1341.85      0.00
   -1    4    1   -263.77      0.00
   -3    5    1     66.42      0.00
   -5    6    1    307.03      0.00
   -2    6    1    505.24      0.00
   -4    7    1    565.69      0.00
   -1    7    1   -500.92      0.00
   -6    8    1    147.41      0.00
   -3    8    1     36.48      0.00
   -8    9    1    295.58      0.00
   -5    9    1     88.62      0.00
   -2    9    1     45.87      0.00
   -7   10    1    112.31      0.00
   -4   10    1   -117.47      0.00
   -1   10    1    -42.29      0.00
   -9   11    1    103.77      0.00
   -6   11    1     63.52      0.00
   -3   11    1    -54.74      0.00
  -11   12    1   -125.78      0.00
   -8   12    1     90.28      0.00
   -5   12    1     -7.28      0.00
   -2   12    1     36.69      0.00
  -10   13    1     46.63      0.00
   -7   13    1     21.56      0.00
   -4   13    1    -30.60      0.00
   -1   13    1    -11.40      0.00
  -12   14    1     90.45      0.00
   -9   14    1    -38.63      0.00
   -6   14    1     17.70      0.00
   -3   14    1    -26.20      0.00
  -14   15    1     26.69      0.00
  -11   15    1     20.21      0.00
   -8   15    1    -78.36      0.00
   -5   15    1     46.38      0.00
   -2   15    1    -72.58      0.00
  -13   16    1     36.57      0.00
  -10   16    1    -38.30      0.00
   -7   16    1      5.16      0.00
   -4   16    1    -78.45      0.00
   -1   16    1    -46.74      0.00
  -15   17    1     38.70      0.00
  -12   17    1    -31.04      0.00
   -9   17    1    -31.00      0.00
   -6   17    1    -94.23      0.00
   -3   17    1    -56.84      0.00
  -17   18    1     -4.60      0.00
  -14   18    1      9.33      0.00
  -11   18    1    -41.03      0.00
   -8   18    1     21.87      0.00
   -5   18    1     -3.79      0.00
   -2   18    1      0.24      0.00
  -16   19    1      3.87      0.00
  -13   19    1      6.28      0.00
  -10   19    1     14.98      0.00
   -7   19    1     10.41      0.00
   -4   19    1    -36.61      0.00
   -1   19    1     -2.86      0.00
  -18   20    1     14.45      0.00
  -15   20    1     36.95      0.00
  -12   20    1    -26.07      0.00
   -9   20    1    -29.74      0.00
   -6   20    1     -2.24      0.00
   -3   20    1    -29.91      0.00
  -20   21    1     -0.97      0.00
  -17   21    1     16.06      0.00
  -14   21    1    -10.76      0.00
  -11   21    1     49.53      0.00
   -8   21    1     10.77      0.00
   -5   21    1     58.74      0.00
   -2   21    1    -30.76      0.00
  -19   22    1      3.04      0.00
  -16   22    1    -45.56      0.00
  -13   22    1     30.62      0.00
  -10   22    1     19.19      0.00
   -7   22    1     23.65      0.00
   -4   22    1     37.40      0.00
   -1   22    1    -20.08      0.00
  -21   23    1     29.24      0.00
  -18   23    1     25.27      0.00
  -15   23    1     26.07      0.00
  -12   23    1    -10.99      0.00
   -9   23    1      5.41      0.00
   -6   23    1    -23.71      0.00
   -3   23    1    -22.38      0.00
  -23   24    1      0.23      0.00
  -20   24    1     12.66      0.00
  -17   24    1     -2.33      0.00
  -14   24    1      5.43      0.00
  -11   24    1     24.47      0.00
   -8   24    1     28.09      0.00
   -5   24    1    -21.43      0.00
   -2   24    1     17.06      0.00
  -22   25    1    -16.95      0.00
  -19   25    1     -6.83      0.00
  -16   25    1     -6.02      0.00
  -13   25    1     13.80      0.00
  -10   25    1     16.95      0.00
   -7   25    1      6.83      0.00
   -4   25    1      1.85      0.00
   -1   25    1     -5.79      0.00
  -24   26    1     -3.60      0.00
  -21   26    1     28.47      0.00
  -18   26    1    -14.19      0.00
  -15   26    1     19.91      0.00
  -12   26    1    -21.02      0.00
   -9   26    1      4.22      0.00
   -6   26    1     14.06      0.00
   -3   26    1      8.69      0.00
  -26   27    1      3.28      0.00
  -23   27    1     -8.23      0.00
  -20   27    1      7.56      0.00
  -17   27    1      4.51      0.00
  -14   27    1      3.30      0.00
  -11   27    1      8.45      0.00
   -8   27    1     13.07      0.00
   -5   27    1     22.98      0.00
   -2   27    1     17.23      0.00
  -25   28    1     11.73      0.00
  -22   28    1     -5.29      0.00
  -19   28    1     -2.24      0.00
  -16   28    1     -1.03      0.00
  -13   28    1     19.36      0.00
  -10   28    1     16.17      0.00
   -7   28    1      5.79      0.00
   -4   28    1      8.12      0.00
   -1   28    1     -3.72      0.00
  -27   29    1     11.67      0.00
  -24   29    1     -1.38      0.00
  -21   29    1      2.99      0.00
  -18   29    1     -5.01      0.00
  -15   29    1     -9.32      0.00
  -12   29    1    -17.75      0.00
   -9   29    1     10.03      0.00
   -6   29    1    -13.86      0.00
   -3   29    1    -25.90      0.00
  -29   30    1    -13.81      0.00
  -26   30    1      4.56      0.00
  -23   30    1     20.74      0.00
  -20   30    1     10.74      0.00
  -17   30    1     15.01      0.00
  -14   30    1     -5.87      0.00
  -11   30    1    -28.26      0.00
   -8   30    1    -13.41      0.00
   -5   30    1     -6.99      0.00
   -2   30    1     -5.97      0.00
  -28   31    1     14.78      0.00
  -25   31    1    -18.21      0.00
  -22   31    1    -42.22      0.00
  -19   31    1      5.42      0.00
  -16   31    1    -12.35      0.00
  -13   31    1      0.54      0.00
  -10   31    1     13.43      0.00
   -7   31    1     18.35      0.00
   -4   31    1      7.78      0.00
   -1   31    1    -17.87      0.00
  -30   32    1     15.48      0.00
  -27   32    1     26.01      0.00
  -24   32    1    -28.68      0.00
  -21   32    1     -3.51      0.00
  -18   32    1      3.74      0.00
  -15   32    1      3.07      0.00
  -12   32    1     11.80      0.00
   -9   32    1     -3.11      0.00
   -6   32    1    -18.87      0.00
   -3   32    1     -3.22      0.00
  -32   33    1     -9.46      0.00
  -29   33    1     11.91      0.00
  -26   33    1      8.90      0.00
  -23   33    1     20.31      0.00
  -20   33    1     -2.16      0.00
  -17   33    1     26.95      0.00
  -14   33    1    -10.69      0.00
  -11   33    1     -2.97      0.00
   -8   33    1     -6.95      0.00
   -5   33    1      5.67      0.00
   -2   33    1     -5.25      0.00
  -31   34    1    -12.47      0.00
  -28   34    1     32.77      0.00
  -25   34    1     51.26      0.00
  -22   34    1      9.34      0.00
  -19   34    1    -11.20      0.00
  -16   34    1     13.54      0.00
  -13   34    1     14.84      0.00
  -10   34    1     -7.06      0.00
   -7   34    1     -4.38      0.00
   -4   34    1    -37.37      0.00
   -1   34    1    -14.65      0.00
  -33   35    1     -1.44      0.00
  -30   35    1    -10.41      0.00
  -27   35    1      5.65      0.00
  -24   35    1    -26.72      0.00
  -21   35    1     30.14      0.00
  -18   35    1      5.94      0.00
  -15   35    1     27.32      0.00
  -12   35    1      2.17      0.00
   -9   35    1      4.33      0.00
   -6   35    1     10.60      0.00
   -3   35    1      1.63      0.00
  -35   36    1    -25.48      0.00
  -32   36    1    -12.61      0.00
  -29   36    1     -3.44      0.00
  -26   36    1    -10.16      0.00
  -23   36    1      8.60      0.00
  -20   36    1     14.78      0.00
  -17   36    1     -9.99      0.00
  -14   36    1     -7.34      0.00
  -11   36    1    -26.81      0.00
   -8   36    1     -4.85      0.00
   -5   36    1     -0.14      0.00
   -2   36    1      2.16      0.00
  -34   37    1    -16.46      0.00
  -31   37    1      3.66      0.00
  -28   37    1    -24.06      0.00
  -25   37    1      4.64      0.00
  -22   37    1    -13.47      0.00
  -19   37    1     17.97      0.00
  -16   37    1     -4.65      0.00
  -13   37    1     13.73      0.00
  -10   37    1      3.55      0.00
   -7   37    1    -22.26      0.00
   -4   37    1     -2.40      0.00
   -1   37    1     43.79      0.00
  -36   38    1      3.68      0.00
  -33   38    1    -22.15      0.00
  -30   38    1    -19.44      0.00
  -27   38    1     -0.03      0.00
  -24   38    1    -27.41      0.00
  -21   38    1      3.79      0.00
  -18   38    1     18.63      0.00
  -15   38    1     11.83      0.00
  -12   38    1    -19.09      0.00
   -9   38    1    -17.73      0.00
   -6   38    1    -16.05      0.00
   -3   38    1     -8.52      0.00
  -35   39    1    -44.76      0.00
  -32   39    1      0.73      0.00
  -29   39    1     -6.24      0.00
  -26   39    1      0.99      0.00
  -23   39    1    -23.41      0.00
  -20   39    1    -12.54      0.00
  -17   39    1     20.65      0.00
  -14   39    1    -29.47      0.00
  -11   39    1    -30.21      0.00
   -8   39    1    -12.45      0.00
   -5   39    1      0.31      0.00
   -2   39    1     -0.46      0.00
  -34   40    1      5.81      0.00
  -31   40    1      2.61      0.00
  -28   40    1     -0.57      0.00
  -25   40    1     -2.11      0.00
  -22   40    1     48.78      0.00
  -19   40    1     50.51      0.00
  -16   40    1     16.08      0.00
  -13   40    1     14.84      0.00
  -10   40    1     26.95      0.00
   -7   40    1     -5.84      0.00
   -4   40    1    -10.33      0.00
  -36   41    1    -21.88      0.00
  -33   41    1    -13.68      0.00
  -30   41    1     -9.15      0.00
  -27   41    1     -8.47      0.00
  -24   41    1    -26.52      0.00
  -21   41    1    -25.08      0.00
  -18   41    1     18.65      0.00
  -15   41    1     11.22      0.00
  -12   41    1    -16.33      0.00
   -9   41    1      2.40      0.00
   -6   41    1    -16.45      0.00
  -35   42    1     11.71      0.00
  -32   42    1     -4.66      0.00
  -29   42    1     17.69      0.00
  -26   42    1     -2.85      0.00
  -23   42    1      4.12      0.00
  -20   42    1      5.55      0.00
  -17   42    1     15.36      0.00
  -14   42    1     15.27      0.00
  -11   42    1     26.00      0.00
   -8   42    1    -25.09      0.00
  -34   43    1      4.84      0.00
  -31   43    1     -3.09      0.00
  -28   43    1     38.09      0.00
  -25   43    1     35.43      0.00
  -22   43    1     20.55      0.00
  -19   43    1    -25.25      0.00
  -16   43    1      3.60      0.00
  -13   43    1      4.06      0.00
  -10   43    1     -0.05      0.00
  -33   44    1    -24.58      0.00
  -30   44    1     -9.47      0.00
  -27   44    1     25.22      0.00
  -24   44    1     57.26      0.00
  -21   44    1    -28.99      0.00
  -18   44    1    -28.02      0.00
  -15   44    1     19.43      0.00
  -12   44    1     25.32      0.00
   -1    3    2   -691.97      0.00
   -3    4    2   -881.23      0.00
    0    4    2    884.42      0.00
   -5    5    2   -707.18      0.00
   -2    5    2   -446.05      0.00
   -4    6    2    419.82      0.00
   -1    6    2    374.01      0.00
   -6    7    2    240.84      0.00
   -3    7    2    -82.46      0.00
    0    7    2    135.05      0.00
   -8    8    2    295.36      0.00
   -5    8    2   -259.59      0.00
   -2    8    2    196.41      0.00
   -7    9    2   -110.13      0.00
   -4    9    2    145.51      0.00
   -1    9    2    218.76      0.00
   -9   10    2     -0.90      0.00
   -6   10    2      9.69      0.00
   -3   10    2    120.84      0.00
    0   10    2    -13.07      0.00
  -11   11    2   -226.59      0.00
   -8   11    2      7.42      0.00
   -5   11    2    -93.53      0.00
   -2   11    2     40.36      0.00
  -10   12    2     41.38      0.00
   -7   12    2    123.54      0.00
   -4   12    2     25.53      0.00
   -1   12    2    117.63      0.00
  -12   13    2    -15.58      0.00
   -9   13    2     89.91      0.00
   -6   13    2     15.66      0.00
   -3   13    2    -43.95      0.00
    0   13    2     13.70      0.00
  -14   14    2     30.39      0.00
  -11   14    2      2.12      0.00
   -8   14    2     89.26      0.00
   -5   14    2    -60.08      0.00
   -2   14    2     31.52      0.00
  -13   15    2      5.12      0.00
  -10   15    2     51.57      0.00
   -7   15    2      6.71      0.00
   -4   15    2    -78.01      0.00
   -1   15    2     -4.06      0.00
  -15   16    2     33.77      0.00
  -12   16    2     35.88      0.00
   -9   16    2     47.43      0.00
   -6   16    2    -56.24      0.00
   -3   16    2     46.54      0.00
    0   16    2     71.59      0.00
  -17   17    2     32.70      0.00
  -14   17    2    -21.47      0.00
  -11   17    2     -0.79      0.00
   -8   17    2    -24.09      0.00
   -5   17    2    -15.45      0.00
   -2   17    2     17.63      0.00
  -16   18    2     28.32      0.00
  -13   18    2      7.41      0.00
  -10   18    2      5.88      0.00
   -7   18    2     94.79      0.00
   -4   18    2    -65.39      0.00
   -1   18    2     54.18      0.00
  -18   19    2    -29.70      0.00
  -15   19    2     85.05      0.00
  -12   19    2    -33.73      0.00
   -9   19    2     18.17      0.00
   -6   19    2    -53.47      0.00
   -3   19    2     -4.39      0.00
    0   19    2     16.18      0.00
  -20   20    2     -3.57      0.00
  -17   20    2    -28.49      0.00
  -14   20    2     58.11      0.00
  -11   20    2      5.13      0.00
   -8   20    2    -27.78      0.00
   -5   20    2     45.71      0.00
   -2   20    2     42.04      0.00
  -19   21    2     17.06      0.00
  -16   21    2    -18.39      0.00
  -13   21    2     11.69      0.00
  -10   21    2    -49.05      0.00
   -7   21    2    -48.62      0.00
   -4   21    2     37.30      0.00
   -1   21    2     49.49      0.00
  -21   22    2      5.80      0.00
  -18   22    2     27.28      0.00
  -15   22    2     55.57      0.00
  -12   22    2      0.12      0.00
   -9   22    2     21.28      0.00
   -6   22    2    -25.55      0.00
   -3   22    2     20.99      0.00
    0   22    2     18.51      0.00
  -23   23    2     -5.07      0.00
  -20   23    2      0.01      0.00
  -17   23    2     28.19      0.00
  -14   23    2     -0.18      0.00
  -11   23    2     11.62      0.00
   -8   23    2     -0.22      0.00
   -5   23    2     11.02      0.00
   -2   23    2     14.04      0.00
  -22   24    2      3.25      0.00
  -19   24    2    -14.50      0.00
  -16   24    2     -3.12      0.00
  -13   24    2     11.75      0.00
  -10   24    2     40.78      0.00
   -7   24    2     39.14      0.00
   -4   24    2      6.18      0.00
   -1   24    2     33.73      0.00
  -24   25    2      1.01      0.00
  -21   25    2     26.33      0.00
  -18   25    2      1.15      0.00
  -15   25    2     29.48      0.00
  -12   25    2    -19.27      0.00
   -9   25    2    -14.97      0.00
   -6   25    2     -7.01      0.00
   -3   25    2      3.45      0.00
    0   25    2      1.76      0.00
  -26   26    2      3.10      0.00
  -23   26    2      5.08      0.00
  -20   26    2     21.13      0.00
  -17   26    2     26.52      0.00
  -14   26    2    -10.79      0.00
  -11   26    2      0.45      0.00
   -8   26    2    -21.84      0.00
   -5   26    2     -8.57      0.00
   -2   26    2      8.45      0.00
  -25   27    2      1.18      0.00
  -22   27    2    -15.02      0.00
  -19   27    2    -18.49      0.00
  -16   27    2     -4.78      0.00
  -13   27    2    -11.84      0.00
  -10   27    2     16.74      0.00
   -7   27    2     14.72      0.00
   -4   27    2     22.76      0.00
   -1   27    2     21.72      0.00
  -27   28    2      7.17      0.00
  -24   28    2     13.69      0.00
  -21   28    2      5.61      0.00
  -18   28    2     13.00      0.00
  -15   28    2      6.84      0.00
  -12   28    2     -3.98      0.00
   -9   28    2     -1.90      0.00
   -6   28    2     -8.07      0.00
   -3   28    2    -26.21      0.00
    0   28    2    -34.13      0.00
  -29   29    2    -13.93      0.00
  -26   29    2      5.21      0.00
  -23   29    2      8.42      0.00
  -20   29    2     14.36      0.00
  -17   29    2     14.12      0.00
  -14   29    2    -35.23      0.00
  -11   29    2     -0.47      0.00
   -8   29    2    -18.51      0.00
   -5   29    2     -2.24      0.00
   -2   29    2    -20.77      0.00
  -28   30    2     21.21      0.00
  -25   30    2     -2.58      0.00
  -22   30    2      3.80      0.00
  -19   30    2    -11.57      0.00
  -16   30    2     -2.75      0.00
  -13   30    2     -9.56      0.00
  -10   30    2    -24.40      0.00
   -7   30    2    -14.22      0.00
   -4   30    2      1.50      0.00
   -1   30    2     -2.85      0.00
  -30   31    2     25.30      0.00
  -27   31    2     22.04      0.00
  -24   31    2     30.81      0.00
  -21   31    2     -1.44      0.00
  -18   31    2      2.12      0.00
  -15   31    2     17.64      0.00
  -12   31    2     -8.87      0.00
   -9   31    2     13.04      0.00
   -6   31    2      9.99      0.00
   -3   31    2     -4.36      0.00
    0   31    2    -16.90      0.00
  -32   32    2     -3.15      0.00
  -29   32    2    -19.55      0.00
  -26   32    2      8.51      0.00
  -23   32    2     27.98      0.00
  -20   32    2    -13.13      0.00
  -17   32    2     -5.72      0.00
  -14   32    2      9.82      0.00
  -11   32    2    -26.57      0.00
   -8   32    2    -18.22      0.00
   -5   32    2    -25.59      0.00
   -2   32    2      1.39      0.00
  -31   33    2    -21.24      0.00
  -28   33    2     -4.03      0.00
  -25   33    2     39.85      0.00
  -22   33    2     14.77      0.00
  -19   33    2     12.61      0.00
  -16   33    2      0.45      0.00
  -13   33    2    -16.91      0.00
  -10   33    2    -11.06      0.00
   -7   33    2    -23.81      0.00
   -4   33    2      0.57      0.00
   -1   33    2     -2.24      0.00
  -33   34    2     -7.59      0.00
  -30   34    2     -3.19      0.00
  -27   34    2    -23.61      0.00
  -24   34    2    -33.32      0.00
  -21   34    2    -11.15      0.00
  -18   34    2     -9.82      0.00
  -15   34    2    -23.01      0.00
  -12   34    2     -8.03      0.00
   -9   34    2      9.08      0.00
   -6   34    2      8.26      0.00
   -3   34    2    -32.42      0.00
    0   34    2    -27.26      0.00
  -35   35    2    -29.07      0.00
  -32   35    2    -39.55      0.00
  -29   35    2     -4.61      0.00
  -26   35    2    -21.81      0.00
  -23   35    2      9.54      0.00
  -20   35    2      7.84      0.00
  -17   35    2     -4.12      0.00
  -14   35    2      3.03      0.00
  -11   35    2    -14.46      0.00
   -8   35    2    -26.99      0.00
   -5   35    2      7.10      0.00
   -2   35    2    -24.59      0.00
  -34   36    2     30.05      0.00
  -31   36    2    -14.91      0.00
  -28   36    2      4.77      0.00
  -25   36    2     13.67      0.00
  -22   36    2     18.84      0.00
  -19   36    2    -17.77      0.00
  -16   36    2    -13.52      0.00
  -13   36    2     -2.48      0.00
  -10   36    2     -8.63      0.00
   -7   36    2    -11.11      0.00
   -4   36    2      2.92      0.00
   -1   36    2    -24.91      0.00
  -36   37    2    -17.78      0.00
  -33   37    2    -14.52      0.00
  -30   37    2     16.64      0.00
  -27   37    2     22.23      0.00
  -24   37    2    -22.09      0.00
  -21   37    2    -35.32      0.00
  -18   37    2      9.66      0.00
  -15   37    2    -12.04      0.00
  -12   37    2      4.25      0.00
   -9   37    2    -15.64      0.00
   -6   37    2     -8.15      0.00
   -3   37    2    -29.73      0.00
    0   37    2    -45.38      0.00
  -38   38    2     -4.00      0.00
  -35   38    2     -4.16      0.00
  -32   38    2     38.92      0.00
  -29   38    2      8.91      0.00
  -26   38    2    -21.72      0.00
  -23   38    2     31.01      0.00
  -20   38    2     16.20      0.00
  -17   38    2     19.07      0.00
  -14   38    2     33.95      0.00
  -11   38    2     -1.49      0.00
   -8   38    2    -16.56      0.00
   -5   38    2    -18.39      0.00
   -2   38    2     41.38      0.00
  -37   39    2    -22.72      0.00
  -34   39    2    -16.51      0.00
  -31   39    2     12.80      0.00
  -28   39    2     -9.44      0.00
  -25   39    2    -24.02      0.00
  -22   39    2    -21.69      0.00
  -19   39    2    -11.50      0.00
  -16   39    2     -6.03      0.00
  -13   39    2    -22.15      0.00
  -10   39    2    -10.34      0.00
   -7   39    2      3.30      0.00
   -4   39    2     18.59      0.00
  -36   40    2     14.39      0.00
  -33   40    2     45.83      0.00
  -30   40    2    -14.72      0.00
  -27   40    2      7.83      0.00
  -24   40    2    -26.91      0.00
  -21   40    2    -48.86      0.00
  -18   40    2      2.19      0.00
  -15   40    2      8.18      0.00
  -12   40    2     43.84      0.00
   -9   40    2     -3.67      0.00
   -6   40    2     18.92      0.00
  -35   41    2      6.35      0.00
  -32   41    2      7.10      0.00
  -29   41    2      5.88      0.00
  -26   41    2    -22.14      0.00
  -23   41    2     11.80      0.00
  -20   41    2    -14.14      0.00
  -17   41    2     -7.32      0.00
  -14   41    2     34.53      0.00
  -11   41    2      0.56      0.00
   -8   41    2    -32.20      0.00
   -5   41    2     14.38      0.00
  -34   42    2    -37.29      0.00
  -31   42    2    -32.63      0.00
  -28   42    2     -6.77      0.00
  -25   42    2     -0.65      0.00
  -22   42    2    -31.67      0.00
  -19   42    2     -1.09      0.00
  -16   42    2    -40.83      0.00
  -13   42    2     -1.60      0.00
  -10   42    2    -11.49      0.00
   -7   42    2    -21.48      0.00
  -33   43    2     -8.65      0.00
  -30   43    2     -5.73      0.00
  -27   43    2    -25.76      0.00
  -24   43    2     21.44      0.00
  -21   43    2     14.85      0.00
  -18   43    2     15.40      0.00
  -12   43    2     14.99      0.00
   -9   43    2      1.55      0.00
  -32   44    2     35.44      0.00
  -29   44    2    -16.40      0.00
  -26   44    2     12.44      0.00
  -23   44    2    -36.99      0.00
  -17   44    2     -7.11      0.00
  -14   44    2     -0.65      0.00
  -11   44    2     26.62      0.00
  -13   45    2      3.77      0.00
   -2    4    3   -317.14      0.00
   -4    5    3    952.26      0.00
   -1    5    3    293.33      0.00
   -3    6    3    -97.18      0.00
   -5    7    3    -93.11      0.00
   -2    7    3     26.78      0.00
   -7    8    3   -230.95      0.00
   -4    8    3     84.08      0.00
   -1    8    3     25.34      0.00
   -6    9    3     23.42      0.00
   -3    9    3    268.92      0.00
   -8   10    3     49.47      0.00
   -5   10    3     12.78      0.00
   -2   10    3     86.55      0.00
  -10   11    3     81.94      0.00
   -7   11    3   -195.00      0.00
   -4   11    3     19.82      0.00
   -1   11    3     -5.00      0.00
   -9   12    3    -32.61      0.00
   -6   12    3    155.27      0.00
   -3   12    3    123.92      0.00
  -11   13    3     -4.52      0.00
   -8   13    3    -38.88      0.00
   -5   13    3     92.69      0.00
   -2   13    3    -57.80      0.00
  -13   14    3    -66.88      0.00
  -10   14    3    -24.44      0.00
   -7   14    3    -71.83      0.00
   -4   14    3     45.36      0.00
   -1   14    3    -20.00      0.00
  -12   15    3     -2.28      0.00
   -9   15    3     30.16      0.00
   -6   15    3      9.70      0.00
   -3   15    3     85.66      0.00
  -14   16    3    -60.42      0.00
  -11   16    3    -58.92      0.00
   -8   16    3     23.91      0.00
   -5   16    3    -32.98      0.00
   -2   16    3     29.07      0.00
  -16   17    3     36.77      0.00
  -13   17    3   -103.03      0.00
  -10   17    3    -52.31      0.00
   -7   17    3    -37.03      0.00
   -4   17    3    -14.58      0.00
   -1   17    3     17.59      0.00
  -15   18    3      2.31      0.00
  -12   18    3    -34.64      0.00
   -9   18    3      8.82      0.00
   -6   18    3      9.92      0.00
   -3   18    3    -63.98      0.00
  -17   19    3    -26.17      0.00
  -14   19    3    -28.89      0.00
  -11   19    3     20.98      0.00
   -8   19    3    -79.85      0.00
   -5   19    3     31.85      0.00
   -2   19    3    -19.34      0.00
  -19   20    3     38.97      0.00
  -16   20    3     10.40      0.00
  -13   20    3    -50.00      0.00
  -10   20    3    -46.35      0.00
   -7   20    3    -14.64      0.00
   -4   20    3     20.17      0.00
   -1   20    3     -0.58      0.00
  -18   21    3      0.17      0.00
  -15   21    3     12.68      0.00
  -12   21    3     -7.42      0.00
   -9   21    3      4.43      0.00
   -6   21    3    -69.80      0.00
   -3   21    3     -6.44      0.00
  -20   22    3    -27.59      0.00
  -17   22    3     16.89      0.00
  -14   22    3    -38.71      0.00
  -11   22    3      3.52      0.00
   -8   22    3     11.78      0.00
   -5   22    3    -12.06      0.00
   -2   22    3     -9.90      0.00
  -22   23    3     11.99      0.00
  -19   23    3     19.11      0.00
  -16   23    3     -5.29      0.00
  -13   23    3    -10.98      0.00
  -10   23    3     -3.96      0.00
   -7   23    3      9.63      0.00
   -4   23    3     -0.14      0.00
   -1   23    3      6.11      0.00
  -21   24    3     24.40      0.00
  -18   24    3     -9.88      0.00
  -15   24    3     30.11      0.00
  -12   24    3    -37.72      0.00
   -9   24    3    -31.62      0.00
   -6   24    3    -23.03      0.00
   -3   24    3     -4.13      0.00
  -23   25    3    -29.88      0.00
  -20   25    3     10.41      0.00
  -17   25    3     46.33      0.00
  -14   25    3     37.68      0.00
  -11   25    3     12.27      0.00
   -8   25    3    -29.10      0.00
   -5   25    3    -13.34      0.00
   -2   25    3     -1.15      0.00
  -25   26    3     12.22      0.00
  -22   26    3      0.23      0.00
  -19   26    3     -2.96      0.00
  -16   26    3    -24.42      0.00
  -13   26    3     19.55      0.00
  -10   26    3     -6.31      0.00
   -7   26    3      0.38      0.00
   -4   26    3      9.05      0.00
   -1   26    3     22.58      0.00
  -24   27    3      3.13      0.00
  -21   27    3     12.54      0.00
  -18   27    3      1.00      0.00
  -15   27    3    -15.90      0.00
  -12   27    3     -1.01      0.00
   -9   27    3     -2.81      0.00
   -6   27    3     11.70      0.00
   -3   27    3      4.91      0.00
  -26   28    3    -21.91      0.00
  -23   28    3     12.14      0.00
  -20   28    3     10.68      0.00
  -17   28    3     53.60      0.00
  -14   28    3     -7.76      0.00
  -11   28    3     -9.89      0.00
   -8   28    3      4.57      0.00
   -5   28    3    -24.00      0.00
   -2   28    3    -22.26      0.00
  -28   29    3      8.20      0.00
  -25   29    3     14.18      0.00
  -22   29    3     15.59      0.00
  -19   29    3     18.98      0.00
  -16   29    3     14.70      0.00
  -13   29    3     -1.01      0.00
  -10   29    3    -42.61      0.00
   -7   29    3    -27.32      0.00
   -4   29    3    -26.22      0.00
   -1   29    3      7.27      0.00
  -27   30    3     -2.10      0.00
  -24   30    3    -16.40      0.00
  -21   30    3      9.81      0.00
  -18   30    3     -1.17      0.00
  -15   30    3      0.32      0.00
  -12   30    3    -17.63      0.00
   -9   30    3    -21.49      0.00
   -6   30    3      1.58      0.00
   -3   30    3      1.93      0.00
  -29   31    3     -7.87      0.00
  -26   31    3     -6.98      0.00
  -23   31    3     11.89      0.00
  -20   31    3      8.60      0.00
  -17   31    3     28.44      0.00
  -14   31    3    -22.90      0.00
  -11   31    3    -19.22      0.00
   -8   31    3     -8.74      0.00
   -5   31    3    -15.45      0.00
   -2   31    3      3.18      0.00
  -31   32    3    -19.58      0.00
  -28   32    3      4.10      0.00
  -25   32    3    -11.75      0.00
  -22   32    3     10.68      0.00
  -19   32    3     11.70      0.00
  -16   32    3     12.57      0.00
  -13   32    3    -11.49      0.00
  -10   32    3     -4.84      0.00
   -7   32    3    -16.66      0.00
   -4   32    3    -12.31      0.00
   -1   32    3      3.86      0.00
  -30   33    3      8.67      0.00
  -27   33    3      3.70      0.00
  -24   33    3    -30.51      0.00
  -21   33    3     10.47      0.00
  -18   33    3      3.63      0.00
  -15   33    3    -16.57      0.00
  -12   33    3    -13.20      0.00
   -9   33    3    -17.58      0.00
   -6   33    3     10.14      0.00
   -3   33    3     -2.02      0.00
  -32   34    3      5.40      0.00
  -29   34    3     -0.18      0.00
  -26   34    3     -4.50      0.00
  -23   34    3     18.52      0.00
  -20   34    3     30.82      0.00
  -17   34    3      2.30      0.00
  -14   34    3      0.20      0.00
  -11   34    3     21.17      0.00
   -8   34    3    -12.59      0.00
   -5   34    3     -6.42      0.00
   -2   34    3    -19.54      0.00
  -34   35    3    -25.76      0.00
  -31   35    3    -23.36      0.00
  -28   35    3    -10.88      0.00
  -25   35    3      6.74      0.00
  -22   35    3    -25.92      0.00
  -19   35    3     13.83      0.00
  -16   35    3    -35.57      0.00
  -13   35    3    -11.01      0.00
  -10   35    3     -0.12      0.00
   -7   35    3      1.35      0.00
   -4   35    3     -7.77      0.00
   -1   35    3     -2.70      0.00
  -33   36    3      8.41      0.00
  -30   36    3    -11.45      0.00
  -27   36    3     27.00      0.00
  -24   36    3     30.02      0.00
  -21   36    3     22.86      0.00
  -18   36    3     15.48      0.00
  -15   36    3     14.79      0.00
  -12   36    3    -28.01      0.00
   -9   36    3    -18.92      0.00
   -6   36    3      4.08      0.00
   -3   36    3      4.27      0.00
  -35   37    3     24.12      0.00
  -32   37    3    -55.08      0.00
  -29   37    3    -22.66      0.00
  -26   37    3    -30.63      0.00
  -23   37    3    -12.93      0.00
  -20   37    3      6.56      0.00
  -17   37    3     -5.39      0.00
  -14   37    3    -10.48      0.00
  -11   37    3      4.39      0.00
   -8   37    3      5.37      0.00
   -5   37    3     27.65      0.00
   -2   37    3     -6.74      0.00
  -37   38    3    -25.23      0.00
  -34   38    3    -25.90      0.00
  -31   38    3    -13.06      0.00
  -28   38    3    -25.73      0.00
  -25   38    3     -3.63      0.00
  -22   38    3     19.89      0.00
  -19   38    3     16.66      0.00
  -16   38    3      7.84      0.00
  -13   38    3    -14.16      0.00
  -10   38    3     -7.31      0.00
   -7   38    3     38.78      0.00
   -4   38    3    -27.60      0.00
   -1   38    3    -41.01      0.00
  -36   39    3     18.14      0.00
  -33   39    3      8.84      0.00
  -30   39    3     -4.71      0.00
  -27   39    3     -6.66      0.00
  -24   39    3     21.47      0.00
  -21   39    3      6.78      0.00
  -18   39    3      3.40      0.00
  -15   39    3      0.90      0.00
  -12   39    3    -16.57      0.00
   -9   39    3    -22.45      0.00
   -6   39    3     10.62      0.00
   -3   39    3     25.06      0.00
  -35   40    3      5.60      0.00
  -32   40    3     -1.42      0.00
  -29   40    3     22.94      0.00
  -26   40    3     -4.08      0.00
  -23   40    3    -15.46      0.00
  -20   40    3      8.05      0.00
  -17   40    3     -3.63      0.00
  -14   40    3    -14.90      0.00
  -11   40    3     48.87      0.00
   -8   40    3    -10.57      0.00
   -5   40    3     -0.15      0.00
  -34   41    3      0.66      0.00
  -31   41    3     -7.17      0.00
  -28   41    3     -9.17      0.00
  -25   41    3    -21.21      0.00
  -22   41    3      7.64      0.00
  -19   41    3     16.94      0.00
  -16   41    3      0.85      0.00
  -13   41    3     11.25      0.00
  -10   41    3     -9.30      0.00
   -7   41    3    -39.93      0.00
  -33   42    3     40.57      0.00
  -30   42    3     -8.56      0.00
  -27   42    3      0.47      0.00
  -24   42    3     18.26      0.00
  -21   42    3    -10.61      0.00
  -18   42    3     15.65      0.00
  -15   42    3     -2.10      0.00
  -12   42    3    -19.44      0.00
   -9   42    3    -46.39      0.00
  -32   43    3     14.47      0.00
  -29   43    3     -0.89      0.00
  -26   43    3    -11.31      0.00
  -23   43    3     -7.37      0.00
  -20   43    3    -16.39      0.00
  -17   43    3     -8.06      0.00
  -14   43    3     -0.81      0.00
  -11   43    3     -2.15      0.00
  -34   44    3     10.79      0.00
  -31   44    3      3.40      0.00
  -28   44    3     19.75      0.00
  -25   44    3     -2.79      0.00
  -22   44    3      3.47      0.00
  -19   44    3     -5.14      0.00
  -16   44    3     15.58      0.00
  -13   44    3    -18.28      0.00
    0    2    4    -34.06      0.00
   -2    3    4   -227.84      0.00
   -4    4    4    498.14      0.00
   -1    4    4   -326.34      0.00
   -3    5    4    315.07      0.00
    0    5    4    670.23      0.00
   -5    6    4    435.90      0.00
   -2    6    4     -1.76      0.00
   -7    7    4   -179.62      0.00
   -4    7    4    -18.24      0.00
   -1    7    4     -3.37      0.00
   -6    8    4    436.26      0.00
   -3    8    4    316.55      0.00
    0    8    4    270.83      0.00
   -8    9    4     62.21      0.00
   -5    9    4    -24.29      0.00
   -2    9    4    255.50      0.00
  -10   10    4     32.96      0.00
   -7   10    4    112.91      0.00
   -4   10    4   -117.74      0.00
   -1   10    4    -86.48      0.00
   -9   11    4    -29.35      0.00
   -6   11    4    148.79      0.00
   -3   11    4     65.07      0.00
    0   11    4    -14.99      0.00
  -11   12    4    -62.41      0.00
   -8   12    4    -20.01      0.00
   -5   12    4     96.87      0.00
   -2   12    4    -57.82      0.00
  -13   13    4     95.61      0.00
  -10   13    4     29.29      0.00
   -7   13    4     -2.23      0.00
   -4   13    4     92.56      0.00
   -1   13    4    -80.52      0.00
  -12   14    4     16.74      0.00
   -9   14    4   -109.99      0.00
   -6   14    4     48.74      0.00
   -3   14    4     97.49      0.00
    0   14    4      7.59      0.00
  -14   15    4    -49.39      0.00
  -11   15    4     11.75      0.00
   -8   15    4     -0.53      0.00
   -5   15    4     33.45      0.00
   -2   15    4    -23.11      0.00
  -16   16    4     96.31      0.00
  -13   16    4    -72.26      0.00
  -10   16    4      4.28      0.00
   -7   16    4     35.45      0.00
   -4   16    4    -80.65      0.00
   -1   16    4     31.93      0.00
  -15   17    4     46.03      0.00
  -12   17    4    -22.64      0.00
   -9   17    4     66.45      0.00
   -6   17    4     19.92      0.00
   -3   17    4    -68.97      0.00
    0   17    4    -38.29      0.00
  -17   18    4     -5.70      0.00
  -14   18    4     11.19      0.00
  -11   18    4     49.61      0.00
   -8   18    4     55.94      0.00
   -5   18    4     76.24      0.00
   -2   18    4      3.17      0.00
  -19   19    4     46.65      0.00
  -16   19    4      2.56      0.00
  -13   19    4     39.15      0.00
  -10   19    4     33.56      0.00
   -7   19    4    -25.62      0.00
   -4   19    4    -41.32      0.00
   -1   19    4    -11.58      0.00
  -18   20    4     43.81      0.00
  -15   20    4     -7.32      0.00
  -12   20    4     -8.26      0.00
   -9   20    4     37.62      0.00
   -6   20    4     10.64      0.00
   -3   20    4     19.37      0.00
    0   20    4    -20.79      0.00
  -20   21    4    -21.01      0.00
  -17   21    4     27.08      0.00
  -14   21    4    -25.78      0.00
  -11   21    4     47.02      0.00
   -8   21    4      7.33      0.00
   -5   21    4      7.53      0.00
   -2   21    4    -37.76      0.00
  -22   22    4     18.62      0.00
  -19   22    4    -14.58      0.00
  -16   22    4     14.53      0.00
  -13   22    4    -23.69      0.00
  -10   22    4    -27.51      0.00
   -7   22    4     38.63      0.00
   -4   22    4    -25.01      0.00
   -1   22    4     24.27      0.00
  -21   23    4     13.20      0.00
  -18   23    4     15.90      0.00
  -15   23    4     16.40      0.00
  -12   23    4    -26.20      0.00
   -9   23    4     14.49      0.00
   -6   23    4     -2.85      0.00
   -3   23    4    -10.95      0.00
    0   23    4    -21.88      0.00
  -23   24    4     10.20      0.00
  -20   24    4    -35.91      0.00
  -17   24    4    -12.70      0.00
  -14   24    4     67.66      0.00
  -11   24    4     49.09      0.00
   -8   24    4     -7.57      0.00
   -5   24    4     18.84      0.00
   -2   24    4      6.27      0.00
  -25   25    4     53.05      0.00
  -22   25    4     14.25      0.00
  -19   25    4     -1.15      0.00
  -16   25    4    -19.14      0.00
  -13   25    4     -6.99      0.00
  -10   25    4    -16.38      0.00
   -7   25    4    -12.78      0.00
   -4   25    4    -10.93      0.00
   -1   25    4     -6.25      0.00
  -24   26    4     24.07      0.00
  -21   26    4     34.28      0.00
  -18   26    4     28.89      0.00
  -15   26    4      4.91      0.00
  -12   26    4    -21.81      0.00
   -9   26    4     17.09      0.00
   -6   26    4     -9.53      0.00
   -3   26    4     18.21      0.00
    0   26    4     -1.35      0.00
  -26   27    4     11.25      0.00
  -23   27    4     -6.02      0.00
  -20   27    4    -14.55      0.00
  -17   27    4     25.22      0.00
  -14   27    4    -18.68      0.00
  -11   27    4      3.04      0.00
   -8   27    4    -10.05      0.00
   -5   27    4     14.42      0.00
   -2   27    4      2.53      0.00
  -28   28    4      9.14      0.00
  -25   28    4      3.24      0.00
  -22   28    4    -13.57      0.00
  -19   28    4      3.68      0.00
  -16   28    4    -10.07      0.00
  -13   28    4    -12.39      0.00
  -10   28    4     15.80      0.00
   -7   28    4     -8.59      0.00
   -4   28    4    -36.69      0.00
   -1   28    4    -15.50      0.00
  -27   29    4     -9.24      0.00
  -24   29    4     16.13      0.00
  -21   29    4     -9.46      0.00
  -18   29    4     -2.42      0.00
  -15   29    4    -26.33      0.00
  -12   29    4    -14.88      0.00
   -9   29    4     -0.64      0.00
   -6   29    4     -9.26      0.00
   -3   29    4    -12.66      0.00
    0   29    4      3.81      0.00
  -29   30    4     -7.12      0.00
  -26   30    4      5.64      0.00
  -23   30    4     13.95      0.00
  -20   30    4    -44.01      0.00
  -17   30    4    -11.20      0.00
  -14   30    4    -12.99      0.00
  -11   30    4    -41.77      0.00
   -8   30    4      6.68      0.00
   -5   30    4      9.01      0.00
   -2   30    4     19.85      0.00
  -31   31    4     -7.33      0.00
  -28   31    4     -6.16      0.00
  -25   31    4      4.64      0.00
  -22   31    4    -11.76      0.00
  -19   31    4    -12.36      0.00
  -16   31    4     -2.38      0.00
  -13   31    4      7.07      0.00
  -10   31    4    -20.53      0.00
   -7   31    4     28.09      0.00
   -4   31    4    -17.96      0.00
   -1   31    4     17.29      0.00
  -30   32    4     -5.32      0.00
  -27   32    4     -7.60      0.00
  -24   32    4      2.88      0.00
  -21   32    4     10.65      0.00
  -18   32    4     12.99      0.00
  -15   32    4    -12.35      0.00
  -12   32    4     -1.79      0.00
   -9   32    4     10.40      0.00
   -6   32    4    -34.90      0.00
   -3   32    4     20.21      0.00
    0   32    4      3.89      0.00
  -32   33    4    -17.54      0.00
  -29   33    4      4.49      0.00
  -26   33    4    -11.65      0.00
  -23   33    4     13.43      0.00
  -20   33    4    -17.50      0.00
  -17   33    4     -0.72      0.00
  -14   33    4     -3.72      0.00
  -11   33    4     16.92      0.00
   -8   33    4     18.75      0.00
   -5   33    4      1.87      0.00
   -2   33    4     12.76      0.00
  -34   34    4    -44.50      0.00
  -31   34    4    -36.37      0.00
  -28   34    4      1.25      0.00
  -25   34    4      2.00      0.00
  -22   34    4     -4.71      0.00
  -19   34    4    -16.37      0.00
  -16   34    4     -8.57      0.00
  -13   34    4    -12.33      0.00
  -10   34    4     -2.87      0.00
   -7   34    4     -1.58      0.00
   -4   34    4    -17.15      0.00
   -1   34    4    -27.39      0.00
  -33   35    4    -29.87      0.00
  -30   35    4    -32.82      0.00
  -27   35    4     26.03      0.00
  -24   35    4     29.36      0.00
  -21   35    4    -10.71      0.00
  -18   35    4    -14.76      0.00
  -15   35    4    -20.42      0.00
  -12   35    4     -1.58      0.00
   -9   35    4    -36.99      0.00
   -6   35    4      1.62      0.00
   -3   35    4     -9.05      0.00
    0   35    4     44.22      0.00
  -35   36    4    -17.86      0.00
  -32   36    4     -8.65      0.00
  -29   36    4     17.15      0.00
  -26   36    4    -24.64      0.00
  -23   36    4      7.15      0.00
  -20   36    4      8.61      0.00
  -17   36    4    -30.35      0.00
  -14   36    4     13.83      0.00
  -11   36    4    -26.88      0.00
   -8   36    4      1.66      0.00
   -5   36    4      3.19      0.00
   -2   36    4    -11.12      0.00
  -37   37    4     -5.27      0.00
  -34   37    4    -36.53      0.00
  -31   37    4    -14.21      0.00
  -28   37    4    -21.74      0.00
  -25   37    4     23.14      0.00
  -22   37    4     27.44      0.00
  -19   37    4     25.78      0.00
  -16   37    4     -0.77      0.00
  -13   37    4    -10.37      0.00
  -10   37    4    -24.84      0.00
   -7   37    4    -14.47      0.00
   -4   37    4     22.00      0.00
   -1   37    4    -25.64      0.00
  -36   38    4     -2.30      0.00
  -33   38    4    -25.37      0.00
  -30   38    4     16.62      0.00
  -27   38    4      3.98      0.00
  -24   38    4    -19.24      0.00
  -21   38    4      9.81      0.00
  -18   38    4    -19.86      0.00
  -15   38    4    -18.97      0.00
  -12   38    4     13.92      0.00
   -9   38    4      7.55      0.00
   -6   38    4     28.67      0.00
   -3   38    4     15.69      0.00
    0   38    4    -17.52      0.00
  -35   39    4     36.74      0.00
  -32   39    4      6.12      0.00
  -29   39    4     10.76      0.00
  -26   39    4     18.63      0.00
  -23   39    4     29.14      0.00
  -20   39    4     32.49      0.00
  -17   39    4      1.38      0.00
  -14   39    4    -14.63      0.00
  -11   39    4    -36.00      0.00
   -8   39    4     54.78      0.00
   -5   39    4     17.43      0.00
   -2   39    4      7.74      0.00
  -37   40    4     19.98      0.00
  -34   40    4    -16.39      0.00
  -31   40    4    -30.80      0.00
  -28   40    4     23.36      0.00
  -25   40    4     -1.60      0.00
  -22   40    4      4.50      0.00
  -19   40    4     -8.73      0.00
  -16   40    4      3.79      0.00
  -13   40    4      5.97      0.00
  -10   40    4    -12.87      0.00
   -7   40    4     52.04      0.00
   -4   40    4     31.43      0.00
  -36   41    4    -37.16      0.00
  -33   41    4    -11.40      0.00
  -30   41    4     -2.04      0.00
  -27   41    4    -20.29      0.00
  -24   41    4     -0.37      0.00
  -21   41    4    -12.21      0.00
  -18   41    4    -12.63      0.00
  -15   41    4    -19.60      0.00
  -12   41    4     43.44      0.00
   -9   41    4    -16.34      0.00
   -6   41    4    -33.06      0.00
  -35   42    4      7.66      0.00
  -32   42    4      2.80      0.00
  -29   42    4     15.24      0.00
  -26   42    4    -30.11      0.00
  -23   42    4     27.57      0.00
  -20   42    4     11.96      0.00
  -17   42    4      9.77      0.00
  -14   42    4     -4.00      0.00
  -11   42    4     -8.63      0.00
   -8   42    4     -6.15      0.00
  -34   43    4    -35.28      0.00
  -31   43    4    -16.46      0.00
  -28   43    4     -2.39      0.00
  -25   43    4     25.06      0.00
  -22   43    4      2.00      0.00
  -19   43    4     50.30      0.00
  -16   43    4    -33.31      0.00
  -13   43    4     26.03      0.00
  -10   43    4     -4.58      0.00
  -33   44    4     34.53      0.00
  -30   44    4     10.79      0.00
  -27   44    4     11.03      0.00
  -24   44    4      4.06      0.00
  -21   44    4    -30.44      0.00
  -18   44    4      9.77      0.00
  -15   44    4    -17.21      0.00
  -12   44    4     27.95      0.00
  -14   45    4    -11.86      0.00
   -1    3    5   -388.35      0.00
   -3    4    5   -485.21      0.00
   -2    5    5   -759.12      0.00
   -4    6    5   -224.38      0.00
   -1    6    5   -575.60      0.00
   -6    7    5    -20.45      0.00
   -3    7    5   -106.02      0.00
   -5    8    5   -179.22      0.00
   -2    8    5     86.27      0.00
   -7    9    5     58.30      0.00
   -4    9    5    -41.85      0.00
   -1    9    5    -96.09      0.00
   -9   10    5   -154.24      0.00
   -6   10    5    -50.30      0.00
   -3   10    5    -93.19      0.00
   -8   11    5    -21.83      0.00
   -5   11    5     64.50      0.00
   -2   11    5    -95.60      0.00
  -10   12    5    -26.25      0.00
   -7   12    5    -51.53      0.00
   -4   12    5     80.64      0.00
   -1   12    5     10.72      0.00
  -12   13    5     44.51      0.00
   -9   13    5    -76.89      0.00
   -6   13    5   -101.24      0.00
   -3   13    5     26.31      0.00
  -11   14    5    -36.26      0.00
   -8   14    5     60.25      0.00
   -5   14    5     -2.73      0.00
   -2   14    5     23.60      0.00
  -13   15    5    -66.81      0.00
  -10   15    5    -28.44      0.00
   -7   15    5     24.39      0.00
   -4   15    5    -52.29      0.00
   -1   15    5     29.71      0.00
  -15   16    5     -5.17      0.00
  -12   16    5      7.07      0.00
   -9   16    5    -50.85      0.00
   -6   16    5     66.54      0.00
   -3   16    5    -14.46      0.00
  -14   17    5     -2.61      0.00
  -11   17    5     69.15      0.00
   -8   17    5     12.94      0.00
   -5   17    5     80.62      0.00
   -2   17    5     10.77      0.00
  -16   18    5     -1.80      0.00
  -13   18    5    -12.23      0.00
  -10   18    5     15.59      0.00
   -7   18    5    -29.31      0.00
   -4   18    5     40.74      0.00
   -1   18    5    -20.04      0.00
  -18   19    5      3.36      0.00
  -15   19    5    -17.41      0.00
  -12   19    5     16.67      0.00
   -9   19    5    -28.23      0.00
   -6   19    5      5.07      0.00
   -3   19    5     33.85      0.00
  -17   20    5     20.84      0.00
  -14   20    5    -23.70      0.00
  -11   20    5     49.12      0.00
   -8   20    5     36.58      0.00
   -5   20    5    -52.44      0.00
   -2   20    5     32.24      0.00
  -19   21    5     35.45      0.00
  -16   21    5      1.13      0.00
  -13   21    5    -38.79      0.00
  -10   21    5    -35.89      0.00
   -7   21    5    -10.01      0.00
   -4   21    5    -35.45      0.00
   -1   21    5     -2.34      0.00
  -21   22    5     18.04      0.00
  -18   22    5      7.21      0.00
  -15   22    5     35.96      0.00
  -12   22    5    -27.02      0.00
   -9   22    5    -14.75      0.00
   -6   22    5     -0.25      0.00
   -3   22    5     -1.58      0.00
  -20   23    5     -4.11      0.00
  -17   23    5    -15.40      0.00
  -14   23    5    -12.15      0.00
  -11   23    5     26.11      0.00
   -8   23    5     14.34      0.00
   -5   23    5     13.72      0.00
   -2   23    5      8.96      0.00
  -22   24    5      3.21      0.00
  -19   24    5     39.40      0.00
  -16   24    5      9.33      0.00
  -13   24    5     22.32      0.00
  -10   24    5    -22.73      0.00
   -7   24    5    -21.92      0.00
   -4   24    5    -34.11      0.00
   -1   24    5     -3.29      0.00
  -24   25    5    -19.69      0.00
  -21   25    5      3.59      0.00
  -18   25    5     63.69      0.00
  -15   25    5     11.92      0.00
  -12   25    5      6.44      0.00
   -9   25    5    -25.86      0.00
   -6   25    5    -28.07      0.00
   -3   25    5     16.90      0.00
  -23   26    5    -23.88      0.00
  -20   26    5    -18.53      0.00
  -17   26    5    -24.62      0.00
  -14   26    5    -34.23      0.00
  -11   26    5     13.54      0.00
   -8   26    5     -9.79      0.00
   -5   26    5     -3.01      0.00
   -2   26    5     23.82      0.00
  -25   27    5      3.31      0.00
  -22   27    5    -14.44      0.00
  -19   27    5    -18.91      0.00
  -16   27    5     -1.17      0.00
  -13   27    5      5.55      0.00
  -10   27    5    -13.60      0.00
   -7   27    5     -7.98      0.00
   -4   27    5    -24.04      0.00
   -1   27    5    -48.72      0.00
  -27   28    5      8.08      0.00
  -24   28    5     -4.55      0.00
  -21   28    5    -24.79      0.00
  -18   28    5     -3.92      0.00
  -15   28    5     -6.30      0.00
  -12   28    5    -28.88      0.00
   -9   28    5     -0.72      0.00
   -6   28    5    -10.62      0.00
   -3   28    5      5.28      0.00
  -26   29    5     -6.49      0.00
  -23   29    5      7.53      0.00
  -20   29    5     -3.84      0.00
  -17   29    5     -7.23      0.00
  -14   29    5      1.21      0.00
  -11   29    5    -22.84      0.00
   -8   29    5    -26.77      0.00
   -5   29    5     -1.35      0.00
   -2   29    5     18.03      0.00
  -28   30    5      3.02      0.00
  -25   30    5     -1.33      0.00
  -22   30    5     -1.88      0.00
  -19   30    5     -8.92      0.00
  -16   30    5      8.61      0.00
  -13   30    5      5.35      0.00
  -10   30    5      9.14      0.00
   -7   30    5     17.17      0.00
   -4   30    5      2.75      0.00
   -1   30    5    -19.19      0.00
  -30   31    5      1.09      0.00
  -27   31    5    -12.40      0.00
  -24   31    5    -19.40      0.00
  -21   31    5     -9.88      0.00
  -18   31    5     21.29      0.00
  -15   31    5     19.95      0.00
  -12   31    5      4.77      0.00
   -9   31    5     10.76      0.00
   -6   31    5      9.82      0.00
   -3   31    5     -7.56      0.00
  -29   32    5     28.82      0.00
  -26   32    5    -18.64      0.00
  -23   32    5     -3.83      0.00
  -20   32    5     13.60      0.00
  -17   32    5     20.03      0.00
  -14   32    5     13.99      0.00
  -11   32    5     22.18      0.00
   -8   32    5     41.87      0.00
   -5   32    5    -16.99      0.00
   -2   32    5     22.46      0.00
  -31   33    5     -0.19      0.00
  -28   33    5     -1.97      0.00
  -25   33    5     23.97      0.00
  -22   33    5    -27.06      0.00
  -19   33    5    -31.36      0.00
  -16   33    5    -14.69      0.00
  -13   33    5      2.77      0.00
  -10   33    5      9.65      0.00
   -7   33    5      1.04      0.00
   -4   33    5     30.33      0.00
   -1   33    5      1.62      0.00
  -33   34    5    -18.14      0.00
  -30   34    5     -1.58      0.00
  -27   34    5    -13.71      0.00
  -24   34    5     -8.26      0.00
  -21   34    5     -4.68      0.00
  -18   34    5     14.43      0.00
  -15   34    5      2.04      0.00
  -12   34    5     14.11      0.00
   -9   34    5     -4.88      0.00
   -6   34    5    -14.72      0.00
   -3   34    5     -1.29      0.00
  -32   35    5     22.74      0.00
  -29   35    5     -9.71      0.00
  -26   35    5    -19.33      0.00
  -23   35    5      8.74      0.00
  -20   35    5      9.48      0.00
  -17   35    5     -2.56      0.00
  -14   35    5     -5.31      0.00
  -11   35    5     -7.32      0.00
   -8   35    5    -26.41      0.00
   -5   35    5    -11.57      0.00
   -2   35    5     22.10      0.00
  -34   36    5     -6.66      0.00
  -31   36    5     17.03      0.00
  -28   36    5     -3.38      0.00
  -25   36    5    -12.07      0.00
  -22   36    5     -5.96      0.00
  -19   36    5     -2.77      0.00
  -16   36    5     -6.09      0.00
  -13   36    5     33.92      0.00
  -10   36    5      9.90      0.00
   -7   36    5     -4.30      0.00
   -4   36    5      3.03      0.00
   -1   36    5    -22.95      0.00
  -36   37    5    -11.76      0.00
  -33   37    5      6.93      0.00
  -30   37    5    -21.33      0.00
  -27   37    5     -7.65      0.00
  -24   37    5     12.60      0.00
  -21   37    5     16.27      0.00
  -18   37    5     11.17      0.00
  -15   37    5     17.23      0.00
  -12   37    5      7.37      0.00
   -9   37    5     37.40      0.00
   -6   37    5     14.24      0.00
   -3   37    5      6.65      0.00
  -35   38    5    -11.11      0.00
  -32   38    5    -31.47      0.00
  -29   38    5     57.53      0.00
  -26   38    5     12.92      0.00
  -23   38    5      9.48      0.00
  -20   38    5     34.31      0.00
  -17   38    5     17.58      0.00
  -14   38    5     -0.20      0.00
  -11   38    5      1.46      0.00
   -8   38    5    -11.48      0.00
   -5   38    5     53.18      0.00
   -2   38    5     24.63      0.00
  -37   39    5      3.42      0.00
  -34   39    5     16.09      0.00
  -31   39    5     -4.27      0.00
  -28   39    5     -9.70      0.00
  -25   39    5     -4.50      0.00
  -22   39    5    -15.22      0.00
  -19   39    5    -12.64      0.00
  -16   39    5     30.22      0.00
  -13   39    5     25.50      0.00
  -10   39    5     40.88      0.00
   -7   39    5     -0.47      0.00
   -4   39    5     21.79      0.00
  -36   40    5      7.59      0.00
  -33   40    5     -3.44      0.00
  -30   40    5     -4.10      0.00
  -27   40    5     36.92      0.00
  -24   40    5     15.99      0.00
  -21   40    5    -22.77      0.00
  -18   40    5     19.68      0.00
  -15   40    5      1.89      0.00
  -12   40    5    -37.98      0.00
   -9   40    5     32.33      0.00
   -6   40    5      5.63      0.00
  -35   41    5      8.45      0.00
  -32   41    5    -22.80      0.00
  -29   41    5    -17.96      0.00
  -26   41    5    -21.14      0.00
  -23   41    5    -39.47      0.00
  -20   41    5     17.46      0.00
  -17   41    5     29.08      0.00
  -14   41    5     22.39      0.00
  -11   41    5      5.35      0.00
   -8   41    5    -24.48      0.00
   -5   41    5     49.68      0.00
  -34   42    5     44.16      0.00
  -31   42    5     32.54      0.00
  -28   42    5     -8.03      0.00
  -25   42    5     18.96      0.00
  -22   42    5     23.48      0.00
  -19   42    5      3.19      0.00
  -16   42    5     14.65      0.00
  -13   42    5     10.19      0.00
  -10   42    5    -31.71      0.00
   -7   42    5     11.92      0.00
  -33   43    5    -28.25      0.00
  -30   43    5      6.79      0.00
  -27   43    5      1.25      0.00
  -24   43    5     29.81      0.00
  -21   43    5     12.90      0.00
  -18   43    5     -4.22      0.00
  -15   43    5    -30.49      0.00
  -12   43    5      0.61      0.00
   -9   43    5     20.18      0.00
  -32   44    5     13.11      0.00
  -29   44    5      3.24      0.00
  -26   44    5     21.98      0.00
  -23   44    5     18.52      0.00
  -20   44    5     -3.72      0.00
  -17   44    5    -33.01      0.00
  -14   44    5    -35.72      0.00
  -11   44    5    -27.10      0.00
  -13   45    5     33.58      0.00
   -1    2    6    864.41      0.00
   -3    3    6   -415.13      0.00
    0    3    6   -549.07      0.00
   -2    4    6   -879.60      0.00
   -4    5    6    349.62      0.00
   -1    5    6   -387.10      0.00
   -6    6    6    222.16      0.00
   -3    6    6    -85.87      0.00
    0    6    6     -2.82      0.00
   -5    7    6     94.11      0.00
   -2    7    6    119.59      0.00
   -7    8    6    178.61      0.00
   -4    8    6   -147.33      0.00
   -1    8    6    131.41      0.00
   -9    9    6    200.05      0.00
   -6    9    6     68.22      0.00
   -3    9    6   -277.97      0.00
    0    9    6    168.62      0.00
   -8   10    6     76.07      0.00
   -5   10    6   -169.45      0.00
   -2   10    6    -45.35      0.00
  -10   11    6     39.13      0.00
   -7   11    6   -132.25      0.00
   -4   11    6      4.49      0.00
   -1   11    6   -151.03      0.00
  -12   12    6    178.89      0.00
   -9   12    6     -8.72      0.00
   -6   12    6    -18.17      0.00
   -3   12    6     -8.78      0.00
    0   12    6   -119.16      0.00
  -11   13    6     77.39      0.00
   -8   13    6    -64.81      0.00
   -5   13    6     80.95      0.00
   -2   13    6     36.68      0.00
  -13   14    6    -98.34      0.00
  -10   14    6   -197.79      0.00
   -7   14    6     31.65      0.00
   -4   14    6    -47.50      0.00
   -1   14    6   -116.78      0.00
  -15   15    6     36.89      0.00
  -12   15    6    -29.73      0.00
   -9   15    6     18.73      0.00
   -6   15    6    124.66      0.00
   -3   15    6    -16.37      0.00
    0   15    6     25.01      0.00
  -14   16    6     12.75      0.00
  -11   16    6   -134.31      0.00
   -8   16    6    -15.67      0.00
   -5   16    6      8.20      0.00
   -2   16    6     14.01      0.00
  -16   17    6    -27.05      0.00
  -13   17    6     28.55      0.00
  -10   17    6    -13.69      0.00
   -7   17    6    -44.35      0.00
   -4   17    6     11.66      0.00
   -1   17    6    -36.08      0.00
  -18   18    6     -4.83      0.00
  -15   18    6    -66.62      0.00
  -12   18    6     -5.07      0.00
   -9   18    6     -7.52      0.00
   -6   18    6    -46.99      0.00
   -3   18    6     42.68      0.00
    0   18    6    -59.72      0.00
  -17   19    6      3.26      0.00
  -14   19    6    -74.86      0.00
  -11   19    6      4.78      0.00
   -8   19    6    -25.35      0.00
   -5   19    6     -5.04      0.00
   -2   19    6    -72.88      0.00
  -19   20    6     28.54      0.00
  -16   20    6      4.32      0.00
  -13   20    6    -27.85      0.00
  -10   20    6    -15.53      0.00
   -7   20    6    -10.04      0.00
   -4   20    6    -29.09      0.00
   -1   20    6    -21.63      0.00
  -21   21    6     19.43      0.00
  -18   21    6     -1.05      0.00
  -15   21    6    -33.89      0.00
  -12   21    6      3.53      0.00
   -9   21    6    -26.20      0.00
   -6   21    6     -5.77      0.00
   -3   21    6     -3.03      0.00
    0   21    6    -36.45      0.00
  -20   22    6      7.35      0.00
  -17   22    6    -39.41      0.00
  -14   22    6      0.62      0.00
  -11   22    6    -36.63      0.00
   -8   22    6     13.35      0.00
   -5   22    6     56.41      0.00
   -2   22    6      6.93      0.00
  -22   23    6      4.31      0.00
  -19   23    6     18.62      0.00
  -16   23    6      6.75      0.00
  -13   23    6     40.09      0.00
  -10   23    6      0.22      0.00
   -7   23    6      1.94      0.00
   -4   23    6    -33.16      0.00
   -1   23    6    -13.46      0.00
  -24   24    6    -26.74      0.00
  -21   24    6    -27.77      0.00
  -18   24    6     25.23      0.00
  -15   24    6     42.13      0.00
  -12   24    6    -17.83      0.00
   -9   24    6     15.04      0.00
   -6   24    6    -12.93      0.00
   -3   24    6      1.63      0.00
    0   24    6    -37.76      0.00
  -23   25    6      6.54      0.00
  -20   25    6     -9.49      0.00
  -17   25    6     12.78      0.00
  -14   25    6    -22.90      0.00
  -11   25    6    -38.89      0.00
   -8   25    6    -17.50      0.00
   -5   25    6    -16.69      0.00
   -2   25    6    -34.81      0.00
  -25   26    6     20.99      0.00
  -22   26    6    -12.55      0.00
  -19   26    6     -0.06      0.00
  -16   26    6     -0.26      0.00
  -13   26    6     -7.78      0.00
  -10   26    6     13.27      0.00
   -7   26    6     11.48      0.00
   -4   26    6      3.76      0.00
   -1   26    6    -31.17      0.00
  -27   27    6     -6.04      0.00
  -24   27    6      8.65      0.00
  -21   27    6    -13.83      0.00
  -18   27    6     32.87      0.00
  -15   27    6     22.35      0.00
  -12   27    6     -1.08      0.00
   -9   27    6    -16.38      0.00
   -6   27    6    -11.08      0.00
   -3   27    6      3.95      0.00
    0   27    6    -18.24      0.00
  -26   28    6    -11.13      0.00
  -23   28    6      6.83      0.00
  -20   28    6      7.58      0.00
  -17   28    6     32.06      0.00
  -14   28    6     19.48      0.00
  -11   28    6      4.38      0.00
   -8   28    6      8.95      0.00
   -5   28    6      6.47      0.00
   -2   28    6    -25.97      0.00
  -28   29    6    -10.37      0.00
  -25   29    6      7.32      0.00
  -22   29    6     -5.67      0.00
  -19   29    6     -5.25      0.00
  -16   29    6    -18.13      0.00
  -13   29    6     20.02      0.00
  -10   29    6     -6.09      0.00
   -7   29    6     18.33      0.00
   -4   29    6     24.28      0.00
   -1   29    6     -3.90      0.00
  -30   30    6      6.65      0.00
  -27   30    6      1.24      0.00
  -24   30    6    -12.45      0.00
  -21   30    6      7.80      0.00
  -18   30    6     31.58      0.00
  -15   30    6     18.58      0.00
  -12   30    6      6.21      0.00
   -9   30    6      0.93      0.00
   -6   30    6     -9.43      0.00
   -3   30    6    -12.20      0.00
    0   30    6    -14.98      0.00
  -29   31    6     12.11      0.00
  -26   31    6     11.40      0.00
  -23   31    6    -14.35      0.00
  -20   31    6     14.92      0.00
  -17   31    6     27.98      0.00
  -14   31    6      9.23      0.00
  -11   31    6      2.47      0.00
   -8   31    6     10.93      0.00
   -5   31    6    -18.86      0.00
   -2   31    6     -2.31      0.00
  -31   32    6    -10.93      0.00
  -28   32    6    -24.40      0.00
  -25   32    6     18.77      0.00
  -22   32    6     -9.87      0.00
  -19   32    6    -18.23      0.00
  -16   32    6      8.34      0.00
  -13   32    6     -9.40      0.00
  -10   32    6     -9.63      0.00
   -7   32    6     25.83      0.00
   -4   32    6      2.03      0.00
   -1   32    6     20.43      0.00
  -33   33    6     60.43      0.00
  -30   33    6    -20.31      0.00
  -27   33    6     -8.28      0.00
  -24   33    6      9.98      0.00
  -21   33    6     -3.68      0.00
  -18   33    6     15.72      0.00
  -15   33    6     16.80      0.00
  -12   33    6     -2.52      0.00
   -9   33    6      4.83      0.00
   -6   33    6    -26.79      0.00
   -3   33    6    -41.90      0.00
    0   33    6     12.57      0.00
  -32   34    6     31.09      0.00
  -29   34    6     15.07      0.00
  -26   34    6    -17.08      0.00
  -23   34    6    -15.15      0.00
  -20   34    6    -18.91      0.00
  -17   34    6     10.16      0.00
  -14   34    6      9.49      0.00
  -11   34    6    -14.16      0.00
   -8   34    6    -12.28      0.00
   -5   34    6    -12.11      0.00
   -2   34    6    -36.76      0.00
  -34   35    6     22.38      0.00
  -31   35    6     33.03      0.00
  -28   35    6     -6.88      0.00
  -25   35    6     22.51      0.00
  -22   35    6      5.45      0.00
  -19   35    6     12.80      0.00
  -16   35    6      7.71      0.00
  -13   35    6     11.99      0.00
  -10   35    6    -19.97      0.00
   -7   35    6    -41.31      0.00
   -4   35    6     -5.33      0.00
   -1   35    6     -8.72      0.00
  -36   36    6      7.88      0.00
  -33   36    6     14.40      0.00
  -30   36    6     36.86      0.00
  -27   36    6     -6.68      0.00
  -24   36    6    -10.99      0.00
  -21   36    6     -2.38      0.00
  -18   36    6     20.15      0.00
  -15   36    6    -34.55      0.00
  -12   36    6     10.32      0.00
   -9   36    6    -11.20      0.00
   -6   36    6     25.64      0.00
   -3   36    6     13.13      0.00
    0   36    6    -41.90      0.00
  -35   37    6      5.28      0.00
  -32   37    6    -31.40      0.00
  -29   37    6     -7.81      0.00
  -26   37    6     -1.39      0.00
  -23   37    6     -5.92      0.00
  -20   37    6      8.28      0.00
  -17   37    6    -10.10      0.00
  -14   37    6     31.37      0.00
  -11   37    6     14.16      0.00
   -8   37    6     -2.13      0.00
   -5   37    6    -30.28      0.00
   -2   37    6     24.59      0.00
  -37   38    6     18.46      0.00
  -34   38    6      2.96      0.00
  -31   38    6      8.95      0.00
  -28   38    6      5.82      0.00
  -25   38    6     -6.01      0.00
  -22   38    6    -19.08      0.00
  -19   38    6      9.35      0.00
  -16   38    6    -47.21      0.00
  -13   38    6    -36.32      0.00
  -10   38    6     14.55      0.00
   -7   38    6     30.31      0.00
   -4   38    6    -19.32      0.00
   -1   38    6    -13.71      0.00
  -36   39    6     11.42      0.00
  -33   39    6     17.36      0.00
  -30   39    6    -30.84      0.00
  -27   39    6    -27.41      0.00
  -24   39    6    -16.14      0.00
  -21   39    6      8.39      0.00
  -18   39    6    -31.71      0.00
  -15   39    6      2.47      0.00
  -12   39    6    -24.89      0.00
   -9   39    6    -37.71      0.00
   -6   39    6     34.81      0.00
   -3   39    6    -23.18      0.00
  -35   40    6      6.45      0.00
  -32   40    6     -7.53      0.00
  -29   40    6    -18.62      0.00
  -26   40    6    -35.91      0.00
  -23   40    6    -18.24      0.00
  -20   40    6    -53.56      0.00
  -17   40    6    -38.09      0.00
  -14   40    6     28.63      0.00
  -11   40    6     -6.92      0.00
   -8   40    6      6.08      0.00
   -5   40    6    -10.18      0.00
  -34   41    6    -16.82      0.00
  -31   41    6     -6.92      0.00
  -28   41    6     35.26      0.00
  -25   41    6     -2.77      0.00
  -22   41    6      5.98      0.00
  -19   41    6      4.01      0.00
  -16   41    6    -37.32      0.00
  -13   41    6     -3.57      0.00
  -10   41    6    -10.22      0.00
   -7   41    6    -30.91      0.00
  -33   42    6    -21.48      0.00
  -30   42    6    -39.40      0.00
  -27   42    6    -39.57      0.00
  -24   42    6    -16.15      0.00
  -21   42    6     17.43      0.00
  -18   42    6     19.69      0.00
  -15   42    6    -32.38      0.00
  -12   42    6    -27.95      0.00
   -9   42    6    -34.26      0.00
  -32   43    6    -21.37      0.00
  -29   43    6    -37.41      0.00
  -26   43    6      7.06      0.00
  -23   43    6      9.79      0.00
  -20   43    6     -5.86      0.00
  -17   43    6      1.10      0.00
  -14   43    6    -33.93      0.00
  -11   43    6      1.19      0.00
  -34   44    6     -5.86      0.00
  -31   44    6      6.21      0.00
  -25   44    6     -9.17      0.00
  -19   44    6     21.66      0.00
  -16   44    6    -23.15      0.00
  -13   44    6     27.95      0.00
   -2    3    7   -525.07      0.00
   -1    4    7   -166.50      0.00
   -3    5    7    389.65      0.00
   -5    6    7    -70.14      0.00
   -2    6    7   -314.03      0.00
   -4    7    7    -93.29      0.00
   -1    7    7    -19.78      0.00
   -6    8    7    371.60      0.00
   -3    8    7    -73.80      0.00
   -8    9    7    -21.38      0.00
   -5    9    7      9.39      0.00
   -2    9    7   -294.54      0.00
   -7   10    7     70.12      0.00
   -4   10    7     -4.64      0.00
   -1   10    7    -71.87      0.00
   -9   11    7     10.08      0.00
   -6   11    7      4.42      0.00
   -3   11    7   -128.37      0.00
  -11   12    7    -20.02      0.00
   -8   12    7     45.64      0.00
   -5   12    7   -171.77      0.00
   -2   12    7     32.35      0.00
  -10   13    7      2.51      0.00
   -7   13    7     -0.01      0.00
   -4   13    7    -25.31      0.00
   -1   13    7    -11.72      0.00
  -12   14    7     -4.60      0.00
   -9   14    7    -65.66      0.00
   -6   14    7     66.58      0.00
   -3   14    7    -53.33      0.00
  -14   15    7     51.03      0.00
  -11   15    7     99.91      0.00
   -8   15    7    -45.00      0.00
   -5   15    7     16.35      0.00
   -2   15    7    -70.75      0.00
  -13   16    7    103.79      0.00
  -10   16    7      4.51      0.00
   -7   16    7     21.45      0.00
   -4   16    7      0.48      0.00
   -1   16    7    -56.34      0.00
  -15   17    7    -20.39      0.00
  -12   17    7    -28.48      0.00
   -9   17    7    -17.34      0.00
   -6   17    7     21.69      0.00
   -3   17    7    -16.57      0.00
  -17   18    7     49.83      0.00
  -14   18    7     49.60      0.00
  -11   18    7      3.29      0.00
   -8   18    7     46.21      0.00
   -5   18    7    -48.34      0.00
   -2   18    7     24.19      0.00
  -16   19    7     10.35      0.00
  -13   19    7    -32.19      0.00
  -10   19    7     15.23      0.00
   -7   19    7     -0.04      0.00
   -4   19    7    -21.69      0.00
   -1   19    7    -33.75      0.00
  -18   20    7     -5.03      0.00
  -15   20    7     24.16      0.00
  -12   20    7     37.05      0.00
   -9   20    7     -2.31      0.00
   -6   20    7     24.37      0.00
   -3   20    7      0.40      0.00
  -20   21    7     31.12      0.00
  -17   21    7    -28.09      0.00
  -14   21    7    -22.11      0.00
  -11   21    7    -10.53      0.00
   -8   21    7      5.49      0.00
   -5   21    7     20.62      0.00
   -2   21    7      9.82      0.00
  -19   22    7     41.25      0.00
  -16   22    7    -36.78      0.00
  -13   22    7      4.95      0.00
  -10   22    7     -2.25      0.00
   -7   22    7    -21.41      0.00
   -4   22    7     -1.98      0.00
   -1   22    7    -29.75      0.00
  -21   23    7     -8.12      0.00
  -18   23    7    -17.29      0.00
  -15   23    7    -14.69      0.00
  -12   23    7     10.97      0.00
   -9   23    7    -15.08      0.00
   -6   23    7      9.48      0.00
   -3   23    7    -12.27      0.00
  -23   24    7     18.15      0.00
  -20   24    7     14.66      0.00
  -17   24    7    -35.27      0.00
  -14   24    7     -2.43      0.00
  -11   24    7     -4.03      0.00
   -8   24    7     -1.16      0.00
   -5   24    7    -11.97      0.00
   -2   24    7      3.65      0.00
  -22   25    7     -3.59      0.00
  -19   25    7     18.80      0.00
  -16   25    7     -3.69      0.00
  -13   25    7    -24.12      0.00
  -10   25    7     -4.92      0.00
   -7   25    7     15.83      0.00
   -4   25    7      1.97      0.00
   -1   25    7      8.44      0.00
  -24   26    7     -2.70      0.00
  -21   26    7    -25.85      0.00
  -18   26    7     -9.52      0.00
  -15   26    7     18.80      0.00
  -12   26    7     -0.98      0.00
   -9   26    7     23.40      0.00
   -6   26    7    -10.81      0.00
   -3   26    7     21.28      0.00
  -26   27    7     -3.97      0.00
  -23   27    7      0.34      0.00
  -20   27    7     -8.38      0.00
  -17   27    7    -15.00      0.00
  -14   27    7      3.09      0.00
  -11   27    7      3.09      0.00
   -8   27    7     -4.34      0.00
   -5   27    7     13.69      0.00
   -2   27    7      0.56      0.00
  -25   28    7     13.81      0.00
  -22   28    7      2.73      0.00
  -19   28    7    -12.55      0.00
  -16   28    7    -23.99      0.00
  -13   28    7    -33.87      0.00
  -10   28    7    -13.94      0.00
   -7   28    7     10.92      0.00
   -4   28    7      8.39      0.00
   -1   28    7     -7.23      0.00
  -27   29    7     14.06      0.00
  -24   29    7     -5.29      0.00
  -21   29    7      1.53      0.00
  -18   29    7     28.49      0.00
  -15   29    7      3.70      0.00
  -12   29    7    -11.00      0.00
   -9   29    7      6.87      0.00
   -6   29    7    -35.70      0.00
   -3   29    7    -21.18      0.00
  -29   30    7     13.53      0.00
  -26   30    7      1.40      0.00
  -23   30    7    -10.36      0.00
  -20   30    7      4.90      0.00
  -17   30    7      0.97      0.00
  -14   30    7     17.00      0.00
  -11   30    7     -6.98      0.00
   -8   30    7      5.01      0.00
   -5   30    7    -14.82      0.00
   -2   30    7     -2.40      0.00
  -28   31    7      4.94      0.00
  -25   31    7     -0.97      0.00
  -22   31    7     17.04      0.00
  -19   31    7     24.51      0.00
  -16   31    7      3.34      0.00
  -13   31    7     -9.21      0.00
  -10   31    7      7.23      0.00
   -7   31    7     -4.77      0.00
   -4   31    7     -8.45      0.00
   -1   31    7    -12.76      0.00
  -30   32    7      6.63      0.00
  -27   32    7      8.22      0.00
  -24   32    7     -7.43      0.00
  -21   32    7    -23.06      0.00
  -18   32    7      2.70      0.00
  -15   32    7     -3.48      0.00
  -12   32    7     -5.14      0.00
   -9   32    7      7.23      0.00
   -6   32    7     21.90      0.00
   -3   32    7     -9.85      0.00
  -32   33    7     -3.39      0.00
  -29   33    7     12.67      0.00
  -26   33    7     22.92      0.00
  -23   33    7      5.53      0.00
  -20   33    7     11.58      0.00
  -17   33    7      3.62      0.00
  -14   33    7     18.36      0.00
  -11   33    7      0.07      0.00
   -8   33    7     -5.55      0.00
   -5   33    7    -19.55      0.00
   -2   33    7      0.15      0.00
  -31   34    7     13.19      0.00
  -28   34    7      2.59      0.00
  -25   34    7     16.98      0.00
  -22   34    7     33.57      0.00
  -19   34    7    -23.79      0.00
  -16   34    7    -25.40      0.00
  -13   34    7      1.99      0.00
  -10   34    7    -18.13      0.00
   -7   34    7    -35.41      0.00
   -4   34    7    -12.71      0.00
   -1   34    7    -16.34      0.00
  -33   35    7    -16.68      0.00
  -30   35    7     -6.75      0.00
  -27   35    7    -16.23      0.00
  -24   35    7     -3.84      0.00
  -21   35    7    -10.24      0.00
  -18   35    7    -10.46      0.00
  -15   35    7     -5.56      0.00
  -12   35    7     11.59      0.00
   -9   35    7    -13.86      0.00
   -6   35    7     -1.08      0.00
   -3   35    7      2.78      0.00
  -35   36    7     -6.06      0.00
  -32   36    7    -17.32      0.00
  -29   36    7     -7.89      0.00
  -26   36    7     -2.24      0.00
  -23   36    7     -0.65      0.00
  -20   36    7     12.15      0.00
  -17   36    7    -19.56      0.00
  -14   36    7    -22.76      0.00
  -11   36    7      3.47      0.00
   -8   36    7     15.84      0.00
   -5   36    7    -31.21      0.00
   -2   36    7      9.30      0.00
  -34   37    7      5.29      0.00
  -31   37    7    -11.86      0.00
  -28   37    7    -31.54      0.00
  -25   37    7     10.31      0.00
  -22   37    7     14.06      0.00
  -19   37    7    -18.72      0.00
  -16   37    7     15.41      0.00
  -13   37    7     11.39      0.00
  -10   37    7     -2.41      0.00
   -7   37    7     -8.59      0.00
   -4   37    7     -7.44      0.00
   -1   37    7     21.30      0.00
  -36   38    7     -6.32      0.00
  -33   38    7     26.99      0.00
  -30   38    7     28.19      0.00
  -27   38    7      7.94      0.00
  -24   38    7    -23.70      0.00
  -21   38    7     -1.00      0.00
  -18   38    7     10.65      0.00
  -15   38    7     26.20      0.00
  -12   38    7     -8.35      0.00
   -9   38    7    -28.49      0.00
   -6   38    7    -51.60      0.00
   -3   38    7      8.96      0.00
  -35   39    7    -33.50      0.00
  -32   39    7    -33.35      0.00
  -29   39    7    -17.28      0.00
  -26   39    7      0.44      0.00
  -23   39    7     -3.02      0.00
  -20   39    7     21.69      0.00
  -17   39    7     -4.63      0.00
  -14   39    7     -2.27      0.00
  -11   39    7     13.01      0.00
   -8   39    7     -5.94      0.00
   -5   39    7     -5.43      0.00
   -2   39    7    -25.93      0.00
  -37   40    7      8.78      0.00
  -34   40    7      3.71      0.00
  -31   40    7     -1.89      0.00
  -28   40    7     29.29      0.00
  -25   40    7      6.96      0.00
  -22   40    7    -19.46      0.00
  -19   40    7     45.04      0.00
  -16   40    7     34.85      0.00
  -13   40    7      1.14      0.00
  -10   40    7      9.87      0.00
   -7   40    7     -1.92      0.00
   -4   40    7     25.66      0.00
  -36   41    7     -1.80      0.00
  -33   41    7     -3.94      0.00
  -30   41    7    -38.96      0.00
  -27   41    7    -12.34      0.00
  -24   41    7    -25.33      0.00
  -21   41    7     -7.09      0.00
  -18   41    7     42.04      0.00
  -15   41    7     39.20      0.00
  -12   41    7     25.41      0.00
   -9   41    7      4.50      0.00
   -6   41    7    -66.62      0.00
  -35   42    7      2.75      0.00
  -32   42    7     -9.06      0.00
  -29   42    7     14.48      0.00
  -26   42    7    -15.69      0.00
  -23   42    7     36.49      0.00
  -20   42    7     45.31      0.00
  -17   42    7     15.11      0.00
  -14   42    7     -2.12      0.00
  -11   42    7      3.81      0.00
   -8   42    7    -27.88      0.00
  -34   43    7    -28.84      0.00
  -31   43    7    -36.44      0.00
  -28   43    7     12.88      0.00
  -25   43    7     47.78      0.00
  -22   43    7     38.39      0.00
  -19   43    7      4.90      0.00
  -16   43    7     44.48      0.00
  -13   43    7     24.62      0.00
  -10   43    7     26.32      0.00
  -33   44    7      9.89      0.00
  -30   44    7     29.80      0.00
  -27   44    7     33.15      0.00
  -24   44    7     28.89      0.00
  -18   44    7    -10.98      0.00
  -15   44    7     -8.39      0.00
  -12   44    7     -8.93      0.00
  -14   45    7      5.55      0.00
    0    1    8   1636.95      0.00
   -2    2    8   -871.65      0.00
   -1    3    8   -583.63      0.00
   -3    4    8   -155.94      0.00
    0    4    8    479.73      0.00
   -5    5    8   -371.09      0.00
   -2    5    8   -289.19      0.00
   -4    6    8   -449.62      0.00
   -1    6    8   -103.63      0.00
   -6    7    8     91.43      0.00
   -3    7    8     -7.47      0.00
    0    7    8    245.36      0.00
   -8    8    8     99.14      0.00
   -5    8    8   -149.70      0.00
   -2    8    8     55.38      0.00
   -7    9    8    -92.64      0.00
   -4    9    8   -263.80      0.00
   -1    9    8   -116.50      0.00
   -9   10    8   -199.20      0.00
   -6   10    8   -262.65      0.00
   -3   10    8     -2.06      0.00
    0   10    8    -53.50      0.00
  -11   11    8     38.74      0.00
   -8   11    8    -65.26      0.00
   -5   11    8    -99.12      0.00
   -2   11    8     93.66      0.00
  -10   12    8   -114.14      0.00
   -7   12    8    -76.22      0.00
   -4   12    8    -72.20      0.00
   -1   12    8      1.30      0.00
  -12   13    8    -59.59      0.00
   -9   13    8     34.01      0.00
   -6   13    8     68.27      0.00
   -3   13    8   -108.02      0.00
    0   13    8     45.63      0.00
  -14   14    8     37.68      0.00
  -11   14    8     -0.69      0.00
   -8   14    8    134.01      0.00
   -5   14    8    -68.16      0.00
   -2   14    8     39.30      0.00
  -13   15    8     14.72      0.00
  -10   15    8    -31.51      0.00
   -7   15    8      0.84      0.00
   -4   15    8     61.03      0.00
   -1   15    8     11.89      0.00
  -15   16    8      0.52      0.00
  -12   16    8      6.33      0.00
   -9   16    8      6.82      0.00
   -6   16    8      5.52      0.00
   -3   16    8     16.85      0.00
    0   16    8     52.54      0.00
  -17   17    8     -8.27      0.00
  -14   17    8    -23.60      0.00
  -11   17    8    -48.84      0.00
   -8   17    8     56.93      0.00
   -5   17    8     -4.88      0.00
   -2   17    8     29.89      0.00
  -16   18    8     -0.38      0.00
  -13   18    8     -1.30      0.00
  -10   18    8    -54.75      0.00
   -7   18    8    -35.00      0.00
   -4   18    8     -1.01      0.00
   -1   18    8    -29.45      0.00
  -18   19    8    -45.61      0.00
  -15   19    8     14.32      0.00
  -12   19    8     11.31      0.00
   -9   19    8     32.25      0.00
   -6   19    8     26.72      0.00
   -3   19    8      5.66      0.00
    0   19    8    -27.23      0.00
  -20   20    8     -9.04      0.00
  -17   20    8    -39.83      0.00
  -14   20    8    -20.06      0.00
  -11   20    8    -30.75      0.00
   -8   20    8     -9.69      0.00
   -5   20    8    -31.48      0.00
   -2   20    8    -45.30      0.00
  -19   21    8     -1.26      0.00
  -16   21    8     -8.44      0.00
  -13   21    8    -29.62      0.00
  -10   21    8    -38.38      0.00
   -7   21    8    -59.47      0.00
   -4   21    8     26.56      0.00
   -1   21    8      3.59      0.00
  -21   22    8     10.59      0.00
  -18   22    8    -57.88      0.00
  -15   22    8     -7.98      0.00
  -12   22    8    -19.29      0.00
   -9   22    8     11.87      0.00
   -6   22    8      7.27      0.00
   -3   22    8     16.41      0.00
    0   22    8      0.14      0.00
  -23   23    8    -30.66      0.00
  -20   23    8     15.68      0.00
  -17   23    8    -40.68      0.00
  -14   23    8     12.34      0.00
  -11   23    8    -32.17      0.00
   -8   23    8     -4.99      0.00
   -5   23    8    -11.80      0.00
   -2   23    8    -36.78      0.00
  -22   24    8    -12.53      0.00
  -19   24    8     10.55      0.00
  -16   24    8    -15.14      0.00
  -13   24    8    -19.03      0.00
  -10   24    8     18.60      0.00
   -7   24    8      9.62      0.00
   -4   24    8     -1.09      0.00
   -1   24    8      1.71      0.00
  -24   25    8      5.51      0.00
  -21   25    8     -0.43      0.00
  -18   25    8     -9.36      0.00
  -15   25    8    -10.56      0.00
  -12   25    8      8.75      0.00
   -9   25    8    -14.09      0.00
   -6   25    8    -20.68      0.00
   -3   25    8     -4.44      0.00
    0   25    8     -4.51      0.00
  -26   26    8    -13.16      0.00
  -23   26    8    -13.01      0.00
  -20   26    8    -30.49      0.00
  -17   26    8    -15.89      0.00
  -14   26    8    -24.87      0.00
  -11   26    8     -0.97      0.00
   -8   26    8     -5.79      0.00
   -5   26    8    -20.65      0.00
   -2   26    8     14.21      0.00
  -25   27    8     -1.23      0.00
  -22   27    8     -0.29      0.00
  -19   27    8     -4.81      0.00
  -16   27    8     24.67      0.00
  -13   27    8    -21.40      0.00
  -10   27    8    -16.30      0.00
   -7   27    8     -5.79      0.00
   -4   27    8      9.92      0.00
   -1   27    8     -6.93      0.00
  -27   28    8    -11.30      0.00
  -24   28    8     -1.29      0.00
  -21   28    8    -28.82      0.00
  -18   28    8     -0.08      0.00
  -15   28    8     -0.76      0.00
  -12   28    8      3.65      0.00
   -9   28    8      4.44      0.00
   -6   28    8     21.12      0.00
   -3   28    8    -15.05      0.00
    0   28    8     -0.58      0.00
  -29   29    8      8.71      0.00
  -26   29    8     12.22      0.00
  -23   29    8    -29.67      0.00
  -20   29    8     18.66      0.00
  -17   29    8     11.98      0.00
  -14   29    8      0.27      0.00
  -11   29    8     17.42      0.00
   -8   29    8    -16.55      0.00
   -5   29    8     -0.83      0.00
   -2   29    8    -22.86      0.00
  -28   30    8    -28.42      0.00
  -25   30    8     -4.54      0.00
  -22   30    8     -4.16      0.00
  -19   30    8     -4.85      0.00
  -16   30    8      1.93      0.00
  -13   30    8    -21.31      0.00
  -10   30    8    -34.73      0.00
   -7   30    8    -14.92      0.00
   -4   30    8      4.69      0.00
   -1   30    8    -17.67      0.00
  -30   31    8    -26.65      0.00
  -27   31    8     -8.44      0.00
  -24   31    8     17.64      0.00
  -21   31    8    -18.19      0.00
  -18   31    8    -13.07      0.00
  -15   31    8      3.80      0.00
  -12   31    8    -15.70      0.00
   -9   31    8      4.38      0.00
   -6   31    8    -17.98      0.00
   -3   31    8      4.88      0.00
    0   31    8     24.15      0.00
  -32   32    8    -24.55      0.00
  -29   32    8    -14.07      0.00
  -26   32    8     -3.65      0.00
  -23   32    8     -3.19      0.00
  -20   32    8    -22.42      0.00
  -17   32    8    -14.94      0.00
  -14   32    8     -8.51      0.00
  -11   32    8    -38.88      0.00
   -8   32    8    -19.07      0.00
   -5   32    8     -2.12      0.00
   -2   32    8    -16.41      0.00
  -31   33    8      9.92      0.00
  -28   33    8    -26.49      0.00
  -25   33    8    -22.08      0.00
  -22   33    8     -9.38      0.00
  -19   33    8      0.54      0.00
  -16   33    8      0.70      0.00
  -13   33    8      4.88      0.00
  -10   33    8    -15.66      0.00
   -7   33    8    -39.16      0.00
   -4   33    8      0.08      0.00
   -1   33    8     19.00      0.00
  -33   34    8    -14.03      0.00
  -30   34    8    -33.31      0.00
  -27   34    8    -11.51      0.00
  -24   34    8    -26.31      0.00
  -21   34    8      3.50      0.00
  -18   34    8    -14.75      0.00
  -15   34    8    -26.51      0.00
  -12   34    8    -11.56      0.00
   -9   34    8    -21.16      0.00
   -6   34    8    -18.81      0.00
   -3   34    8     15.35      0.00
    0   34    8    -28.72      0.00
  -35   35    8     33.41      0.00
  -32   35    8    -28.07      0.00
  -29   35    8     -8.77      0.00
  -26   35    8      4.14      0.00
  -23   35    8    -22.05      0.00
  -20   35    8     -4.82      0.00
  -17   35    8    -13.36      0.00
  -14   35    8    -15.96      0.00
  -11   35    8     -9.09      0.00
   -8   35    8      3.20      0.00
   -5   35    8     20.49      0.00
   -2   35    8     37.97      0.00
  -34   36    8     27.91      0.00
  -31   36    8     -2.88      0.00
  -28   36    8     -7.51      0.00
  -25   36    8    -16.54      0.00
  -22   36    8     -0.05      0.00
  -19   36    8      0.35      0.00
  -16   36    8    -10.79      0.00
  -13   36    8    -16.47      0.00
  -10   36    8      8.17      0.00
   -7   36    8     13.68      0.00
   -4   36    8      1.84      0.00
   -1   36    8      8.39      0.00
  -36   37    8    -24.53      0.00
  -33   37    8    -24.57      0.00
  -30   37    8      4.04      0.00
  -27   37    8      6.72      0.00
  -24   37    8     12.69      0.00
  -21   37    8    -12.16      0.00
  -18   37    8    -12.74      0.00
  -15   37    8      7.25      0.00
  -12   37    8     11.30      0.00
   -9   37    8    -25.39      0.00
   -6   37    8     -4.59      0.00
   -3   37    8    -26.17      0.00
    0   37    8     28.66      0.00
  -38   38    8      3.26      0.00
  -35   38    8     -6.72      0.00
  -32   38    8     19.66      0.00
  -29   38    8    -19.31      0.00
  -26   38    8    -38.03      0.00
  -23   38    8    -22.02      0.00
  -20   38    8    -31.81      0.00
  -17   38    8    -11.58      0.00
  -14   38    8     23.14      0.00
  -11   38    8     -5.87      0.00
   -8   38    8     25.19      0.00
   -5   38    8     45.50      0.00
   -2   38    8     35.53      0.00
  -37   39    8     -4.15      0.00
  -34   39    8    -29.47      0.00
  -31   39    8      7.08      0.00
  -28   39    8    -13.65      0.00
  -25   39    8    -29.47      0.00
  -22   39    8      3.31      0.00
  -19   39    8    -21.64      0.00
  -16   39    8    -39.62      0.00
  -13   39    8     31.69      0.00
  -10   39    8    -16.02      0.00
   -7   39    8    -34.98      0.00
   -4   39    8     63.48      0.00
  -36   40    8     -6.00      0.00
  -33   40    8     29.90      0.00
  -30   40    8     -2.29      0.00
  -27   40    8      5.73      0.00
  -24   40    8    -25.81      0.00
  -21   40    8    -41.57      0.00
  -18   40    8    -26.19      0.00
  -15   40    8     -5.65      0.00
  -12   40    8     47.98      0.00
   -9   40    8     18.34      0.00
   -6   40    8     -1.02      0.00
  -35   41    8     18.85      0.00
  -32   41    8    -12.80      0.00
  -29   41    8      8.39      0.00
  -26   41    8     11.43      0.00
  -23   41    8     -8.12      0.00
  -20   41    8    -14.94      0.00
  -17   41    8     32.40      0.00
  -14   41    8     15.82      0.00
  -11   41    8      2.21      0.00
   -8   41    8      1.73      0.00
   -5   41    8     19.86      0.00
  -34   42    8     -4.23      0.00
  -31   42    8    -36.18      0.00
  -28   42    8     12.28      0.00
  -25   42    8     33.97      0.00
  -22   42    8    -35.69      0.00
  -19   42    8     -7.92      0.00
  -16   42    8    -28.13      0.00
  -13   42    8      8.23      0.00
  -10   42    8     -1.81      0.00
   -7   42    8    -12.13      0.00
  -33   43    8      3.29      0.00
  -30   43    8     -3.56      0.00
  -27   43    8     23.35      0.00
  -24   43    8     38.15      0.00
  -21   43    8     18.31      0.00
  -18   43    8    -44.20      0.00
  -15   43    8    -10.06      0.00
  -12   43    8    -11.25      0.00
   -9   43    8     -1.25      0.00
  -32   44    8     -2.84      0.00
  -26   44    8      0.65      0.00
  -23   44    8    -44.50      0.00
  -20   44    8    -24.03      0.00
  -17   44    8     -3.68      0.00
  -14   44    8     12.31      0.00
  -11   44    8     14.41      0.00
   -1    2    9    886.03      0.00
   -2    4    9    -43.45      0.00
   -4    5    9    148.11      0.00
   -1    5    9   -250.31      0.00
   -3    6    9    321.74      0.00
   -5    7    9    103.01      0.00
   -2    7    9     56.82      0.00
   -7    8    9    -54.24      0.00
   -4    8    9      2.94      0.00
   -1    8    9   -217.78      0.00
   -6    9    9    -53.29      0.00
   -3    9    9    176.70      0.00
   -8   10    9     25.74      0.00
   -5   10    9    -45.10      0.00
   -2   10    9     89.05      0.00
  -10   11    9     59.52      0.00
   -7   11    9    -57.73      0.00
   -4   11    9     12.28      0.00
   -1   11    9    -73.80      0.00
   -9   12    9     44.97      0.00
   -6   12    9     81.85      0.00
   -3   12    9     13.66      0.00
  -11   13    9     -3.63      0.00
   -8   13    9    -46.22      0.00
   -5   13    9     30.24      0.00
   -2   13    9     -4.98      0.00
  -13   14    9     70.66      0.00
  -10   14    9     67.75      0.00
   -7   14    9    -37.69      0.00
   -4   14    9     -2.44      0.00
   -1   14    9    -28.91      0.00
  -12   15    9    -42.42      0.00
   -9   15    9     33.37      0.00
   -6   15    9     91.60      0.00
   -3   15    9    -20.87      0.00
  -14   16    9    -35.79      0.00
  -11   16    9    -75.66      0.00
   -8   16    9    -36.88      0.00
   -5   16    9    -79.43      0.00
   -2   16    9    -67.96      0.00
  -16   17    9     10.28      0.00
  -13   17    9      9.81      0.00
  -10   17    9     -5.41      0.00
   -7   17    9    -60.14      0.00
   -4   17    9      3.93      0.00
   -1   17    9     39.26      0.00
  -15   18    9     25.16      0.00
  -12   18    9    -35.80      0.00
   -9   18    9     24.33      0.00
   -6   18    9    -18.84      0.00
   -3   18    9    -57.82      0.00
  -17   19    9     -1.16      0.00
  -14   19    9    -27.70      0.00
  -11   19    9      5.65      0.00
   -8   19    9     -0.12      0.00
   -5   19    9    -27.93      0.00
   -2   19    9    -21.77      0.00
  -19   20    9     17.36      0.00
  -16   20    9     43.54      0.00
  -13   20    9      8.37      0.00
  -10   20    9     33.95      0.00
   -7   20    9    -38.25      0.00
   -4   20    9      6.87      0.00
   -1   20    9     21.66      0.00
  -18   21    9     -7.10      0.00
  -15   21    9    -23.79      0.00
  -12   21    9    -21.45      0.00
   -9   21    9    -46.61      0.00
   -6   21    9     11.46      0.00
   -3   21    9      2.44      0.00
  -20   22    9    -12.45      0.00
  -17   22    9      6.49      0.00
  -14   22    9     25.52      0.00
  -11   22    9      9.41      0.00
   -8   22    9     33.46      0.00
   -5   22    9     30.00      0.00
   -2   22    9    -33.50      0.00
  -22   23    9     22.36      0.00
  -19   23    9      8.39      0.00
  -16   23    9    -10.99      0.00
  -13   23    9      3.50      0.00
  -10   23    9     13.01      0.00
   -7   23    9    -19.64      0.00
   -4   23    9     10.37      0.00
   -1   23    9     11.74      0.00
  -21   24    9      7.09      0.00
  -18   24    9    -28.86      0.00
  -15   24    9      1.72      0.00
  -12   24    9      9.47      0.00
   -9   24    9     -5.23      0.00
   -6   24    9     -8.73      0.00
   -3   24    9     -0.18      0.00
  -23   25    9     -4.60      0.00
  -20   25    9     -9.37      0.00
  -17   25    9     -6.89      0.00
  -14   25    9     12.03      0.00
  -11   25    9     15.75      0.00
   -8   25    9     28.71      0.00
   -5   25    9     10.07      0.00
   -2   25    9     -0.80      0.00
  -25   26    9     -0.99      0.00
  -22   26    9     -8.08      0.00
  -19   26    9    -29.04      0.00
  -16   26    9     14.77      0.00
  -13   26    9    -12.06      0.00
  -10   26    9      0.68      0.00
   -7   26    9      2.34      0.00
   -4   26    9    -16.29      0.00
   -1   26    9     -9.10      0.00
  -24   27    9     10.83      0.00
  -21   27    9     14.51      0.00
  -18   27    9     -5.66      0.00
  -15   27    9     -2.22      0.00
  -12   27    9      8.39      0.00
   -9   27    9      7.99      0.00
   -6   27    9     19.15      0.00
   -3   27    9     17.87      0.00
  -26   28    9     11.96      0.00
  -23   28    9     20.83      0.00
  -20   28    9    -18.72      0.00
  -17   28    9    -15.03      0.00
  -14   28    9     -5.83      0.00
  -11   28    9    -14.71      0.00
   -8   28    9     12.01      0.00
   -5   28    9     -8.59      0.00
   -2   28    9     -4.95      0.00
  -28   29    9    -28.45      0.00
  -25   29    9    -12.85      0.00
  -22   29    9      5.05      0.00
  -19   29    9      6.83      0.00
  -16   29    9      4.47      0.00
  -13   29    9     28.12      0.00
  -10   29    9     -4.29      0.00
   -7   29    9    -17.53      0.00
   -4   29    9    -40.91      0.00
   -1   29    9      4.07      0.00
  -27   30    9     -3.98      0.00
  -24   30    9     13.11      0.00
  -21   30    9      7.15      0.00
  -18   30    9      3.03      0.00
  -15   30    9    -20.22      0.00
  -12   30    9    -32.85      0.00
   -9   30    9    -21.91      0.00
   -6   30    9     -0.25      0.00
   -3   30    9      3.91      0.00
  -29   31    9     -3.30      0.00
  -26   31    9     -6.48      0.00
  -23   31    9    -22.57      0.00
  -20   31    9     -6.25      0.00
  -17   31    9     -0.76      0.00
  -14   31    9      4.55      0.00
  -11   31    9      5.72      0.00
   -8   31    9     -7.79      0.00
   -5   31    9     -8.87      0.00
   -2   31    9     29.63      0.00
  -31   32    9     14.08      0.00
  -28   32    9     23.16      0.00
  -25   32    9    -32.69      0.00
  -22   32    9     10.60      0.00
  -19   32    9    -13.35      0.00
  -16   32    9     17.73      0.00
  -13   32    9     26.96      0.00
  -10   32    9     20.87      0.00
   -7   32    9    -19.02      0.00
   -4   32    9      2.05      0.00
   -1   32    9    -19.28      0.00
  -30   33    9    -17.61      0.00
  -27   33    9     -0.30      0.00
  -24   33    9      6.40      0.00
  -21   33    9      4.15      0.00
  -18   33    9     23.29      0.00
  -15   33    9    -10.10      0.00
  -12   33    9      4.50      0.00
   -9   33    9      1.79      0.00
   -6   33    9      2.16      0.00
   -3   33    9     -8.83      0.00
  -32   34    9    -15.31      0.00
  -29   34    9     -4.93      0.00
  -26   34    9     18.05      0.00
  -23   34    9      2.28      0.00
  -20   34    9    -10.96      0.00
  -17   34    9     -8.66      0.00
  -14   34    9     -9.72      0.00
  -11   34    9     15.26      0.00
   -8   34    9      1.39      0.00
   -5   34    9      9.57      0.00
   -2   34    9     10.34      0.00
  -34   35    9    -31.12      0.00
  -31   35    9    -11.55      0.00
  -28   35    9     10.03      0.00
  -25   35    9      8.88      0.00
  -22   35    9      8.92      0.00
  -19   35    9     -5.29      0.00
  -16   35    9     -2.61      0.00
  -13   35    9     26.95      0.00
  -10   35    9     -9.24      0.00
   -7   35    9     12.10      0.00
   -4   35    9    -18.13      0.00
   -1   35    9    -13.83      0.00
  -33   36    9      6.12      0.00
  -30   36    9    -14.98      0.00
  -27   36    9     -4.10      0.00
  -24   36    9    -10.71      0.00
  -21   36    9    -12.73      0.00
  -18   36    9    -17.35      0.00
  -15   36    9     19.66      0.00
  -12   36    9     15.49      0.00
   -9   36    9     -9.05      0.00
   -6   36    9     25.55      0.00
   -3   36    9    -24.88      0.00
  -35   37    9     -2.65      0.00
  -32   37    9    -37.51      0.00
  -29   37    9     -2.71      0.00
  -26   37    9     -6.31      0.00
  -23   37    9     -0.97      0.00
  -20   37    9     19.81      0.00
  -17   37    9    -13.76      0.00
  -14   37    9     -5.96      0.00
  -11   37    9     -7.65      0.00
   -8   37    9    -13.93      0.00
   -5   37    9     28.81      0.00
   -2   37    9     -8.84      0.00
  -37   38    9     -4.34      0.00
  -34   38    9     20.42      0.00
  -31   38    9     28.83      0.00
  -28   38    9     22.79      0.00
  -25   38    9     -7.11      0.00
  -22   38    9    -15.10      0.00
  -19   38    9     -7.44      0.00
  -16   38    9     -5.86      0.00
  -13   38    9    -23.69      0.00
  -10   38    9    -26.19      0.00
   -7   38    9    -32.05      0.00
   -4   38    9      6.05      0.00
   -1   38    9      9.68      0.00
  -36   39    9      9.24      0.00
  -33   39    9    -18.73      0.00
  -30   39    9    -11.43      0.00
  -27   39    9     -6.65      0.00
  -24   39    9      2.36      0.00
  -21   39    9     17.96      0.00
  -18   39    9     40.23      0.00
  -15   39    9    -18.17      0.00
  -12   39    9     22.36      0.00
   -9   39    9     11.89      0.00
   -6   39    9    -25.11      0.00
   -3   39    9    -22.45      0.00
  -35   40    9     -1.25      0.00
  -32   40    9     39.47      0.00
  -29   40    9     19.77      0.00
  -26   40    9      5.23      0.00
  -23   40    9    -10.00      0.00
  -20   40    9    -20.55      0.00
  -17   40    9     -7.19      0.00
  -14   40    9    -13.57      0.00
  -11   40    9      2.07      0.00
   -8   40    9    -17.69      0.00
   -5   40    9     -8.81      0.00
  -34   41    9     19.62      0.00
  -31   41    9    -11.02      0.00
  -28   41    9    -13.42      0.00
  -25   41    9     -0.14      0.00
  -22   41    9      7.64      0.00
  -19   41    9     15.01      0.00
  -16   41    9      9.65      0.00
  -13   41    9     21.61      0.00
  -10   41    9     30.89      0.00
   -7   41    9    -27.94      0.00
  -33   42    9      1.68      0.00
  -30   42    9      9.32      0.00
  -27   42    9     10.45      0.00
  -24   42    9    -44.94      0.00
  -21   42    9     -7.08      0.00
  -18   42    9      8.09      0.00
  -15   42    9    -19.64      0.00
  -12   42    9     -7.29      0.00
   -9   42    9    -54.37      0.00
  -32   43    9    -33.33      0.00
  -29   43    9     -1.71      0.00
  -26   43    9     -9.39      0.00
  -23   43    9     -1.88      0.00
  -20   43    9     -5.50      0.00
  -17   43    9     11.89      0.00
  -14   43    9     30.10      0.00
  -11   43    9     22.03      0.00
  -31   44    9    -17.78      0.00
  -28   44    9     24.07      0.00
  -25   44    9      2.40      0.00
  -22   44    9    -21.87      0.00
  -19   44    9     10.34      0.00
  -16   44    9     42.98      0.00
  -13   44    9      8.32      0.00
   -1    1   10   -279.21      0.00
    0    2   10    409.02      0.00
   -2    3   10   -109.04      0.00
   -4    4   10    282.50      0.00
   -1    4   10   -102.70      0.00
   -3    5   10    122.57      0.00
    0    5   10    422.54      0.00
   -5    6   10     -6.48      0.00
   -2    6   10     84.46      0.00
   -7    7   10    105.52      0.00
   -4    7   10    -60.36      0.00
   -1    7   10      3.10      0.00
   -6    8   10     -2.23      0.00
   -3    8   10    -40.20      0.00
    0    8   10    231.63      0.00
   -8    9   10    -97.33      0.00
   -5    9   10    -45.38      0.00
   -2    9   10    -51.67      0.00
  -10   10   10    -76.26      0.00
   -7   10   10     91.98      0.00
   -4   10   10     69.03      0.00
   -1   10   10    -70.36      0.00
   -9   11   10    -88.37      0.00
   -6   11   10   -103.97      0.00
   -3   11   10      5.62      0.00
    0   11   10    -65.27      0.00
  -11   12   10    -30.82      0.00
   -8   12   10     75.92      0.00
   -5   12   10    -65.71      0.00
   -2   12   10    -11.84      0.00
  -13   13   10      2.88      0.00
  -10   13   10     59.56      0.00
   -7   13   10     21.07      0.00
   -4   13   10     43.68      0.00
   -1   13   10      5.96      0.00
  -12   14   10     37.76      0.00
   -9   14   10    -15.34      0.00
   -6   14   10     19.50      0.00
   -3   14   10    -45.90      0.00
    0   14   10    -10.14      0.00
  -14   15   10     60.42      0.00
  -11   15   10     18.75      0.00
   -8   15   10     19.39      0.00
   -5   15   10    -43.60      0.00
   -2   15   10     55.01      0.00
  -16   16   10     41.50      0.00
  -13   16   10     11.83      0.00
  -10   16   10     30.63      0.00
   -7   16   10    -45.00      0.00
   -4   16   10    -25.60      0.00
   -1   16   10      7.59      0.00
  -15   17   10     13.44      0.00
  -12   17   10      8.91      0.00
   -9   17   10     10.49      0.00
   -6   17   10     58.02      0.00
   -3   17   10    -64.52      0.00
    0   17   10     85.23      0.00
  -17   18   10     32.21      0.00
  -14   18   10     24.20      0.00
  -11   18   10     77.32      0.00
   -8   18   10     90.18      0.00
   -5   18   10    -55.49      0.00
   -2   18   10      6.37      0.00
  -19   19   10    -62.20      0.00
  -16   19   10      7.64      0.00
  -13   19   10    -47.53      0.00
  -10   19   10     36.73      0.00
   -7   19   10    -24.13      0.00
   -4   19   10    -22.43      0.00
   -1   19   10    -24.20      0.00
  -18   20   10    -28.23      0.00
  -15   20   10     82.61      0.00
  -12   20   10    -41.55      0.00
   -9   20   10     13.39      0.00
   -6   20   10      3.60      0.00
   -3   20   10      9.87      0.00
    0   20   10     12.53      0.00
  -20   21   10    -24.71      0.00
  -17   21   10      6.13      0.00
  -14   21   10      8.52      0.00
  -11   21   10    -55.13      0.00
   -8   21   10      3.71      0.00
   -5   21   10      1.75      0.00
   -2   21   10     13.17      0.00
  -22   22   10    -75.14      0.00
  -19   22   10    -25.07      0.00
  -16   22   10    -30.83      0.00
  -13   22   10     -5.86      0.00
  -10   22   10     -4.17      0.00
   -7   22   10    -28.12      0.00
   -4   22   10    -29.02      0.00
   -1   22   10    -15.99      0.00
  -21   23   10    -19.62      0.00
  -18   23   10      8.33      0.00
  -15   23   10    -34.43      0.00
  -12   23   10     15.79      0.00
   -9   23   10    -21.02      0.00
   -6   23   10     16.79      0.00
   -3   23   10      8.46      0.00
    0   23   10     17.01      0.00
  -23   24   10      8.70      0.00
  -20   24   10    -43.78      0.00
  -17   24   10    -11.14      0.00
  -14   24   10     -0.83      0.00
  -11   24   10      5.26      0.00
   -8   24   10      1.51      0.00
   -5   24   10     -6.51      0.00
   -2   24   10    -10.86      0.00
  -25   25   10    -13.66      0.00
  -22   25   10     -8.08      0.00
  -19   25   10     -1.49      0.00
  -16   25   10     35.16      0.00
  -13   25   10    -16.77      0.00
  -10   25   10      9.08      0.00
   -7   25   10     -5.54      0.00
   -4   25   10    -19.61      0.00
   -1   25   10    -27.83      0.00
  -24   26   10     18.67      0.00
  -21   26   10     18.45      0.00
  -18   26   10     -0.55      0.00
  -15   26   10     18.00      0.00
  -12   26   10    -17.44      0.00
   -9   26   10    -19.01      0.00
   -6   26   10     -5.21      0.00
   -3   26   10     -7.80      0.00
    0   26   10      0.48      0.00
  -26   27   10      4.62      0.00
  -23   27   10      9.47      0.00
  -20   27   10     22.21      0.00
  -17   27   10      6.87      0.00
  -14   27   10    -10.31      0.00
  -11   27   10      6.37      0.00
   -8   27   10      1.53      0.00
   -5   27   10      2.80      0.00
   -2   27   10    -21.42      0.00
  -28   28   10    -14.40      0.00
  -25   28   10     -1.04      0.00
  -22   28   10    -13.42      0.00
  -19   28   10     -7.59      0.00
  -16   28   10      1.40      0.00
  -13   28   10    -11.75      0.00
  -10   28   10     33.87      0.00
   -7   28   10     -5.87      0.00
   -4   28   10      3.42      0.00
   -1   28   10    -33.97      0.00
  -27   29   10      2.84      0.00
  -24   29   10      7.04      0.00
  -21   29   10    -23.95      0.00
  -18   29   10     18.34      0.00
  -15   29   10    -24.39      0.00
  -12   29   10     -2.70      0.00
   -9   29   10    -22.31      0.00
   -6   29   10    -27.47      0.00
   -3   29   10    -24.90      0.00
    0   29   10     -7.22      0.00
  -29   30   10     -9.95      0.00
  -26   30   10     13.26      0.00
  -23   30   10     11.45      0.00
  -20   30   10    -23.01      0.00
  -17   30   10    -22.11      0.00
  -14   30   10    -28.89      0.00
  -11   30   10    -23.41      0.00
   -8   30   10      9.26      0.00
   -5   30   10    -29.95      0.00
   -2   30   10      0.23      0.00
  -31   31   10     13.33      0.00
  -28   31   10     11.82      0.00
  -25   31   10     -1.86      0.00
  -22   31   10     -2.30      0.00
  -19   31   10    -32.99      0.00
  -16   31   10     -3.23      0.00
  -13   31   10     -8.76      0.00
  -10   31   10     -0.59      0.00
   -7   31   10     23.29      0.00
   -4   31   10    -14.82      0.00
   -1   31   10      4.44      0.00
  -30   32   10     -5.10      0.00
  -27   32   10    -18.62      0.00
  -24   32   10     -6.15      0.00
  -21   32   10    -16.45      0.00
  -18   32   10      3.33      0.00
  -15   32   10     -1.78      0.00
  -12   32   10    -11.70      0.00
   -9   32   10     -8.38      0.00
   -6   32   10    -12.57      0.00
   -3   32   10     25.51      0.00
    0   32   10      3.65      0.00
  -32   33   10    -12.28      0.00
  -29   33   10     -7.25      0.00
  -26   33   10     31.03      0.00
  -23   33   10     16.37      0.00
  -20   33   10      9.67      0.00
  -17   33   10    -15.08      0.00
  -14   33   10     -3.83      0.00
  -11   33   10    -11.55      0.00
   -8   33   10     -8.19      0.00
   -5   33   10     16.56      0.00
   -2   33   10     19.14      0.00
  -34   34   10      4.70      0.00
  -31   34   10    -31.20      0.00
  -28   34   10     25.50      0.00
  -25   34   10    -21.32      0.00
  -22   34   10     -7.04      0.00
  -19   34   10    -26.74      0.00
  -16   34   10    -41.45      0.00
  -13   34   10      3.20      0.00
  -10   34   10     12.56      0.00
   -7   34   10     -9.41      0.00
   -4   34   10     11.41      0.00
   -1   34   10      5.19      0.00
  -33   35   10    -13.34      0.00
  -30   35   10    -19.49      0.00
  -27   35   10    -11.08      0.00
  -24   35   10      8.41      0.00
  -21   35   10    -11.29      0.00
  -18   35   10    -10.02      0.00
  -15   35   10     -9.28      0.00
  -12   35   10     -4.25      0.00
   -9   35   10     13.67      0.00
   -6   35   10     13.91      0.00
   -3   35   10     23.90      0.00
    0   35   10     -2.74      0.00
  -35   36   10    -13.07      0.00
  -32   36   10     -0.27      0.00
  -29   36   10     23.14      0.00
  -26   36   10     21.19      0.00
  -23   36   10     14.67      0.00
  -20   36   10    -16.39      0.00
  -17   36   10    -37.71      0.00
  -14   36   10     -3.69      0.00
  -11   36   10    -43.06      0.00
   -8   36   10      3.47      0.00
   -5   36   10     10.79      0.00
   -2   36   10     36.83      0.00
  -37   37   10     -4.88      0.00
  -34   37   10    -15.77      0.00
  -31   37   10    -12.15      0.00
  -28   37   10     21.55      0.00
  -25   37   10    -10.31      0.00
  -22   37   10      7.19      0.00
  -19   37   10     15.48      0.00
  -16   37   10     -6.71      0.00
  -13   37   10      6.13      0.00
  -10   37   10    -35.87      0.00
   -7   37   10    -10.16      0.00
   -4   37   10      1.44      0.00
   -1   37   10     26.04      0.00
  -36   38   10     13.49      0.00
  -33   38   10    -44.77      0.00
  -30   38   10      8.22      0.00
  -27   38   10    -24.75      0.00
  -24   38   10    -29.28      0.00
  -21   38   10      2.01      0.00
  -18   38   10    -31.85      0.00
  -15   38   10    -11.88      0.00
  -12   38   10     -9.69      0.00
   -9   38   10    -27.03      0.00
   -6   38   10     13.26      0.00
   -3   38   10     18.07      0.00
  -35   39   10     -2.23      0.00
  -32   39   10      9.94      0.00
  -29   39   10     -8.19      0.00
  -26   39   10    -24.18      0.00
  -23   39   10     12.23      0.00
  -20   39   10     20.71      0.00
  -17   39   10     10.60      0.00
  -14   39   10     -0.65      0.00
  -11   39   10      8.25      0.00
   -8   39   10     22.50      0.00
   -5   39   10     49.77      0.00
   -2   39   10     41.33      0.00
  -34   40   10      4.94      0.00
  -31   40   10      5.60      0.00
  -28   40   10      9.87      0.00
  -25   40   10    -22.83      0.00
  -22   40   10    -27.02      0.00
  -19   40   10    -25.76      0.00
  -16   40   10    -24.33      0.00
  -13   40   10     25.02      0.00
  -10   40   10     -2.61      0.00
   -7   40   10     29.54      0.00
   -4   40   10     29.46      0.00
  -36   41   10    -15.91      0.00
  -33   41   10     16.65      0.00
  -30   41   10     -6.41      0.00
  -27   41   10    -17.64      0.00
  -24   41   10    -33.75      0.00
  -21   41   10    -46.00      0.00
  -18   41   10      3.47      0.00
  -15   41   10      1.35      0.00
  -12   41   10     -7.13      0.00
   -9   41   10    -20.19      0.00
  -35   42   10    -34.27      0.00
  -32   42   10    -32.42      0.00
  -29   42   10     -2.52      0.00
  -26   42   10    -11.61      0.00
  -23   42   10     14.88      0.00
  -20   42   10    -10.92      0.00
  -17   42   10      5.69      0.00
  -14   42   10     75.62      0.00
  -11   42   10     20.98      0.00
   -8   42   10     -0.21      0.00
  -34   43   10     20.14      0.00
  -31   43   10     -1.32      0.00
  -28   43   10    -23.74      0.00
  -25   43   10     17.10      0.00
  -22   43   10    -11.65      0.00
  -19   43   10     14.79      0.00
  -16   43   10    -27.06      0.00
  -13   43   10     40.29      0.00
  -10   43   10     17.26      0.00
  -33   44   10     34.89      0.00
  -30   44   10     15.13      0.00
  -27   44   10     20.43      0.00
  -24   44   10    -22.03      0.00
  -21   44   10    -36.31      0.00
  -18   44   10     19.88      0.00
  -15   44   10      9.07      0.00
  -12   44   10     19.70      0.00
  -14   45   10      2.61      0.00
   -1    3   11   -320.41      0.00
   -3    4   11   -274.85      0.00
   -2    5   11   -340.79      0.00
   -4    6   11    154.50      0.00
   -1    6   11     22.86      0.00
   -6    7   11     69.27      0.00
   -3    7   11    -55.05      0.00
   -5    8   11    -50.23      0.00
   -2    8   11    121.21      0.00
   -7    9   11   -127.17      0.00
   -4    9   11    258.58      0.00
   -1    9   11     47.03      0.00
   -9   10   11     64.45      0.00
   -6   10   11    -52.88      0.00
   -3   10   11     74.86      0.00
   -8   11   11    -13.95      0.00
   -5   11   11    106.63      0.00
   -2   11   11     74.50      0.00
  -10   12   11    -22.59      0.00
   -7   12   11    -59.92      0.00
   -4   12   11     35.61      0.00
   -1   12   11    -12.56      0.00
  -12   13   11     32.17      0.00
   -9   13   11     82.29      0.00
   -6   13   11    113.17      0.00
   -3   13   11     91.26      0.00
  -11   14   11     12.39      0.00
   -8   14   11    -44.41      0.00
   -5   14   11     22.08      0.00
   -2   14   11     10.18      0.00
  -13   15   11    -81.91      0.00
  -10   15   11      1.31      0.00
   -7   15   11    -28.03      0.00
   -4   15   11     11.42      0.00
   -1   15   11     47.67      0.00
  -15   16   11    -10.37      0.00
  -12   16   11    -15.59      0.00
   -9   16   11     34.33      0.00
   -6   16   11    -18.04      0.00
   -3   16   11     38.63      0.00
  -14   17   11   -106.41      0.00
  -11   17   11     17.34      0.00
   -8   17   11      5.60      0.00
   -5   17   11     10.25      0.00
   -2   17   11     20.18      0.00
  -16   18   11    -19.13      0.00
  -13   18   11    -30.35      0.00
  -10   18   11     46.11      0.00
   -7   18   11    -64.76      0.00
   -4   18   11     -8.08      0.00
   -1   18   11     34.79      0.00
  -18   19   11      8.01      0.00
  -15   19   11     -4.13      0.00
  -12   19   11      9.35      0.00
   -9   19   11    -57.69      0.00
   -6   19   11     23.15      0.00
   -3   19   11    -10.64      0.00
  -17   20   11     10.92      0.00
  -14   20   11      0.28      0.00
  -11   20   11      8.81      0.00
   -8   20   11     -7.37      0.00
   -5   20   11    -47.56      0.00
   -2   20   11     10.74      0.00
  -19   21   11     15.38      0.00
  -16   21   11     10.23      0.00
  -13   21   11      2.57      0.00
  -10   21   11     -7.37      0.00
   -7   21   11    -33.92      0.00
   -4   21   11     38.20      0.00
   -1   21   11     14.67      0.00
  -21   22   11     -9.22      0.00
  -18   22   11    -15.64      0.00
  -15   22   11     -8.10      0.00
  -12   22   11     -2.15      0.00
   -9   22   11     16.97      0.00
   -6   22   11    -19.04      0.00
   -3   22   11     12.34      0.00
  -20   23   11     -0.48      0.00
  -17   23   11     43.83      0.00
  -14   23   11     -1.83      0.00
  -11   23   11     12.74      0.00
   -8   23   11     25.67      0.00
   -5   23   11     12.55      0.00
   -2   23   11     34.50      0.00
  -22   24   11    -19.58      0.00
  -19   24   11      7.06      0.00
  -16   24   11     37.00      0.00
  -13   24   11     14.21      0.00
  -10   24   11     13.34      0.00
   -7   24   11      9.11      0.00
   -4   24   11      9.79      0.00
   -1   24   11      1.12      0.00
  -24   25   11    -23.26      0.00
  -21   25   11      1.92      0.00
  -18   25   11     22.78      0.00
  -15   25   11     -1.02      0.00
  -12   25   11     29.37      0.00
   -9   25   11    -10.52      0.00
   -6   25   11      0.65      0.00
   -3   25   11     -8.49      0.00
  -23   26   11     -8.97      0.00
  -20   26   11     -9.44      0.00
  -17   26   11      3.38      0.00
  -14   26   11      6.59      0.00
  -11   26   11    -12.79      0.00
   -8   26   11     -7.84      0.00
   -5   26   11     14.94      0.00
   -2   26   11      9.05      0.00
  -25   27   11     12.56      0.00
  -22   27   11    -24.08      0.00
  -19   27   11    -13.24      0.00
  -16   27   11    -16.71      0.00
  -13   27   11     20.57      0.00
  -10   27   11     14.75      0.00
   -7   27   11     27.60      0.00
   -4   27   11      9.67      0.00
   -1   27   11      5.78      0.00
  -27   28   11    -37.72      0.00
  -24   28   11      9.00      0.00
  -21   28   11     -2.72      0.00
  -18   28   11    -15.46      0.00
  -15   28   11    -30.59      0.00
  -12   28   11     -3.23      0.00
   -9   28   11     -3.80      0.00
   -6   28   11    -17.57      0.00
   -3   28   11    -30.49      0.00
  -26   29   11    -13.92      0.00
  -23   29   11     16.27      0.00
  -20   29   11    -23.21      0.00
  -17   29   11     10.64      0.00
  -14   29   11     -1.62      0.00
  -11   29   11    -14.37      0.00
   -8   29   11     16.46      0.00
   -5   29   11      8.36      0.00
   -2   29   11      0.05      0.00
  -28   30   11     18.27      0.00
  -25   30   11      8.97      0.00
  -22   30   11      0.25      0.00
  -19   30   11    -29.44      0.00
  -16   30   11      5.31      0.00
  -13   30   11     -2.56      0.00
  -10   30   11    -23.80      0.00
   -7   30   11      7.40      0.00
   -4   30   11     -3.23      0.00
   -1   30   11      1.70      0.00
  -30   31   11     -2.21      0.00
  -27   31   11     -3.55      0.00
  -24   31   11      1.64      0.00
  -21   31   11      0.97      0.00
  -18   31   11     -5.90      0.00
  -15   31   11     15.95      0.00
  -12   31   11     16.24      0.00
   -9   31   11     16.50      0.00
   -6   31   11      7.28      0.00
   -3   31   11     37.28      0.00
  -29   32   11      5.82      0.00
  -26   32   11    -15.78      0.00
  -23   32   11     12.48      0.00
  -20   32   11     -6.24      0.00
  -17   32   11      0.54      0.00
  -14   32   11    -24.67      0.00
  -11   32   11     -0.73      0.00
   -8   32   11    -10.93      0.00
   -5   32   11    -14.52      0.00
   -2   32   11     20.97      0.00
  -31   33   11     13.06      0.00
  -28   33   11     23.75      0.00
  -25   33   11      6.44      0.00
  -22   33   11      0.75      0.00
  -19   33   11      6.34      0.00
  -16   33   11     10.87      0.00
  -13   33   11      9.88      0.00
  -10   33   11      1.01      0.00
   -7   33   11      3.83      0.00
   -4   33   11     19.90      0.00
   -1   33   11      1.32      0.00
  -33   34   11     -3.34      0.00
  -30   34   11      6.86      0.00
  -27   34   11     10.79      0.00
  -24   34   11     12.91      0.00
  -21   34   11    -33.46      0.00
  -18   34   11    -16.32      0.00
  -15   34   11    -12.74      0.00
  -12   34   11      2.11      0.00
   -9   34   11    -11.82      0.00
   -6   34   11     11.41      0.00
   -3   34   11     -4.70      0.00
  -32   35   11     -0.45      0.00
  -29   35   11    -12.29      0.00
  -26   35   11    -12.87      0.00
  -23   35   11     14.80      0.00
  -20   35   11     37.70      0.00
  -17   35   11     10.90      0.00
  -14   35   11     -6.64      0.00
  -11   35   11     17.02      0.00
   -8   35   11    -24.13      0.00
   -5   35   11      5.84      0.00
   -2   35   11    -10.68      0.00
  -34   36   11     19.38      0.00
  -31   36   11     -0.10      0.00
  -28   36   11     42.64      0.00
  -25   36   11     10.62      0.00
  -22   36   11     11.93      0.00
  -19   36   11     19.64      0.00
  -16   36   11    -11.91      0.00
  -13   36   11     -3.37      0.00
  -10   36   11     -2.67      0.00
   -7   36   11     -6.63      0.00
   -4   36   11      5.14      0.00
   -1   36   11    -41.25      0.00
  -36   37   11    -18.87      0.00
  -33   37   11    -14.94      0.00
  -30   37   11     -6.32      0.00
  -27   37   11      1.92      0.00
  -24   37   11    -12.70      0.00
  -21   37   11     22.38      0.00
  -18   37   11     33.61      0.00
  -15   37   11     20.53      0.00
  -12   37   11    -13.10      0.00
   -9   37   11     18.77      0.00
   -6   37   11     -7.74      0.00
   -3   37   11    -10.60      0.00
  -35   38   11      1.29      0.00
  -32   38   11      5.73      0.00
  -29   38   11     14.95      0.00
  -26   38   11     -0.01      0.00
  -23   38   11     11.94      0.00
  -20   38   11     28.62      0.00
  -17   38   11     23.79      0.00
  -14   38   11     -4.74      0.00
  -11   38   11      8.22      0.00
   -8   38   11     35.37      0.00
   -5   38   11      6.82      0.00
   -2   38   11      9.34      0.00
  -37   39   11    -25.77      0.00
  -34   39   11      4.48      0.00
  -31   39   11     -3.07      0.00
  -28   39   11     -5.72      0.00
  -25   39   11     19.53      0.00
  -22   39   11     14.10      0.00
  -19   39   11     -7.57      0.00
  -16   39   11     -6.26      0.00
  -13   39   11    -26.93      0.00
  -10   39   11      9.01      0.00
   -7   39   11      6.20      0.00
   -4   39   11     10.45      0.00
  -36   40   11     39.98      0.00
  -33   40   11     -0.82      0.00
  -30   40   11     49.24      0.00
  -27   40   11      2.12      0.00
  -24   40   11      3.39      0.00
  -21   40   11    -23.11      0.00
  -18   40   11     13.55      0.00
  -15   40   11      1.22      0.00
  -12   40   11     39.69      0.00
   -9   40   11      7.12      0.00
   -6   40   11     28.86      0.00
  -35   41   11     -7.98      0.00
  -32   41   11    -40.78      0.00
  -29   41   11    -22.90      0.00
  -26   41   11    -18.10      0.00
  -23   41   11    -38.60      0.00
  -20   41   11     33.73      0.00
  -17   41   11      7.01      0.00
  -14   41   11    -22.52      0.00
  -11   41   11     45.22      0.00
   -8   41   11    -29.91      0.00
  -34   42   11     31.16      0.00
  -31   42   11     14.45      0.00
  -28   42   11     14.40      0.00
  -25   42   11     -2.92      0.00
  -22   42   11    -15.67      0.00
  -19   42   11     37.28      0.00
  -16   42   11     -4.45      0.00
  -13   42   11     -3.40      0.00
  -10   42   11     -9.13      0.00
   -7   42   11     14.90      0.00
  -33   43   11     44.48      0.00
  -30   43   11     -9.24      0.00
  -27   43   11     22.77      0.00
  -24   43   11     20.72      0.00
  -21   43   11     -8.85      0.00
  -18   43   11      9.94      0.00
  -15   43   11     20.93      0.00
  -12   43   11     30.85      0.00
   -9   43   11      5.80      0.00
  -32   44   11      4.13      0.00
  -29   44   11    -25.03      0.00
  -26   44   11    -21.00      0.00
  -20   44   11     -1.66      0.00
  -17   44   11    -23.18      0.00
  -14   44   11    -14.51      0.00
  -11   44   11    -21.87      0.00
    0    0   12   1119.84      0.00
   -1    2   12   -453.45      0.00
   -3    3   12   -444.53      0.00
    0    3   12  -1028.70      0.00
   -2    4   12    133.69      0.00
   -4    5   12      5.14      0.00
   -1    5   12   -248.56      0.00
   -6    6   12    290.47      0.00
   -3    6   12   -151.27      0.00
    0    6   12    217.22      0.00
   -5    7   12     58.67      0.00
   -2    7   12   -140.70      0.00
   -7    8   12   -136.62      0.00
   -4    8   12     65.56      0.00
   -1    8   12     44.99      0.00
   -9    9   12    -56.02      0.00
   -6    9   12    114.31      0.00
   -3    9   12     85.10      0.00
    0    9   12    104.79      0.00
   -8   10   12     71.98      0.00
   -5   10   12   -150.90      0.00
   -2   10   12     19.54      0.00
  -10   11   12     39.43      0.00
   -7   11   12     25.08      0.00
   -4   11   12    -44.86      0.00
   -1   11   12    -77.00      0.00
  -12   12   12     18.28      0.00
   -9   12   12    -46.50      0.00
   -6   12   12    100.36      0.00
   -3   12   12     78.49      0.00
    0   12   12    -66.80      0.00
  -11   13   12    -90.38      0.00
   -8   13   12   -173.48      0.00
   -5   13   12     22.83      0.00
   -2   13   12    -21.95      0.00
  -13   14   12     50.01      0.00
  -10   14   12    -42.75      0.00
   -7   14   12     55.20      0.00
   -4   14   12     67.95      0.00
   -1   14   12    -70.95      0.00
  -15   15   12   -142.41      0.00
  -12   15   12   -102.57      0.00
   -9   15   12   -179.24      0.00
   -6   15   12     25.39      0.00
   -3   15   12      5.14      0.00
    0   15   12     16.25      0.00
  -14   16   12     27.55      0.00
  -11   16   12     14.40      0.00
   -8   16   12     13.84      0.00
   -5   16   12    -53.39      0.00
   -2   16   12     24.46      0.00
  -16   17   12     38.35      0.00
  -13   17   12    -63.29      0.00
  -10   17   12    -10.23      0.00
   -7   17   12    -40.91      0.00
   -4   17   12      7.55      0.00
   -1   17   12     12.20      0.00
  -18   18   12    -15.97      0.00
  -15   18   12     23.18      0.00
  -12   18   12    -18.53      0.00
   -9   18   12     24.02      0.00
   -6   18   12    -24.88      0.00
   -3   18   12    -45.10      0.00
    0   18   12    -92.70      0.00
  -17   19   12     14.78      0.00
  -14   19   12     -8.07      0.00
  -11   19   12     -2.07      0.00
   -8   19   12    -23.55      0.00
   -5   19   12     22.51      0.00
   -2   19   12     56.66      0.00
  -19   20   12     44.82      0.00
  -16   20   12    -28.08      0.00
  -13   20   12     31.65      0.00
  -10   20   12     36.02      0.00
   -7   20   12    -22.95      0.00
   -4   20   12     -7.86      0.00
   -1   20   12     -1.24      0.00
  -21   21   12     -9.28      0.00
  -18   21   12     15.78      0.00
  -15   21   12    -41.00      0.00
  -12   21   12     16.59      0.00
   -9   21   12    -34.04      0.00
   -6   21   12     25.28      0.00
   -3   21   12     -3.75      0.00
    0   21   12     39.88      0.00
  -20   22   12    -23.93      0.00
  -17   22   12     48.16      0.00
  -14   22   12     20.98      0.00
  -11   22   12     34.78      0.00
   -8   22   12     47.76      0.00
   -5   22   12     15.50      0.00
   -2   22   12     28.11      0.00
  -22   23   12    -18.19      0.00
  -19   23   12    -19.30      0.00
  -16   23   12    -12.96      0.00
  -13   23   12     -3.45      0.00
  -10   23   12      7.28      0.00
   -7   23   12     -5.18      0.00
   -4   23   12      1.46      0.00
   -1   23   12     10.78      0.00
  -24   24   12      5.83      0.00
  -21   24   12    -34.03      0.00
  -18   24   12      8.72      0.00
  -15   24   12     73.87      0.00
  -12   24   12    -19.93      0.00
   -9   24   12    -14.77      0.00
   -6   24   12      0.94      0.00
   -3   24   12    -21.84      0.00
    0   24   12    -40.21      0.00
  -23   25   12     -9.53      0.00
  -20   25   12    -33.27      0.00
  -17   25   12     14.45      0.00
  -14   25   12     39.28      0.00
  -11   25   12    -10.01      0.00
   -8   25   12      1.90      0.00
   -5   25   12     -4.21      0.00
   -2   25   12      0.02      0.00
  -25   26   12     36.51      0.00
  -22   26   12     -3.03      0.00
  -19   26   12     22.93      0.00
  -16   26   12     -8.21      0.00
  -13   26   12    -10.55      0.00
  -10   26   12     -4.33      0.00
   -7   26   12    -37.20      0.00
   -4   26   12      1.19      0.00
   -1   26   12    -18.75      0.00
  -27   27   12    -15.82      0.00
  -24   27   12     -0.04      0.00
  -21   27   12    -16.88      0.00
  -18   27   12     40.14      0.00
  -15   27   12    -12.26      0.00
  -12   27   12      5.37      0.00
   -9   27   12     17.53      0.00
   -6   27   12      2.83      0.00
   -3   27   12     29.76      0.00
    0   27   12     -7.77      0.00
  -26   28   12      8.66      0.00
  -23   28   12    -24.31      0.00
  -20   28   12    -32.43      0.00
  -17   28   12     -0.41      0.00
  -14   28   12     18.65      0.00
  -11   28   12     -4.96      0.00
   -8   28   12    -14.88      0.00
   -5   28   12    -20.11      0.00
   -2   28   12     -9.69      0.00
  -28   29   12     16.27      0.00
  -25   29   12     22.41      0.00
  -22   29   12     -5.84      0.00
  -19   29   12    -14.31      0.00
  -16   29   12    -13.07      0.00
  -13   29   12     -3.49      0.00
  -10   29   12     -3.16      0.00
   -7   29   12     -8.74      0.00
   -4   29   12    -21.41      0.00
   -1   29   12      1.11      0.00
  -30   30   12     20.23      0.00
  -27   30   12    -12.26      0.00
  -24   30   12    -11.98      0.00
  -21   30   12    -14.88      0.00
  -18   30   12      3.47      0.00
  -15   30   12    -15.45      0.00
  -12   30   12    -19.23      0.00
   -9   30   12    -13.59      0.00
   -6   30   12      9.41      0.00
   -3   30   12     -1.47      0.00
    0   30   12     36.17      0.00
  -29   31   12     10.57      0.00
  -26   31   12    -20.85      0.00
  -23   31   12    -26.70      0.00
  -20   31   12     22.15      0.00
  -17   31   12     -2.53      0.00
  -14   31   12     -2.02      0.00
  -11   31   12    -28.26      0.00
   -8   31   12     -7.07      0.00
   -5   31   12    -18.16      0.00
   -2   31   12     23.06      0.00
  -31   32   12      3.05      0.00
  -28   32   12     -2.96      0.00
  -25   32   12      3.42      0.00
  -22   32   12      9.39      0.00
  -19   32   12    -21.68      0.00
  -16   32   12     -6.85      0.00
  -13   32   12      7.29      0.00
  -10   32   12      1.70      0.00
   -7   32   12    -11.76      0.00
   -4   32   12    -23.42      0.00
   -1   32   12     -1.51      0.00
  -33   33   12     20.88      0.00
  -30   33   12    -21.97      0.00
  -27   33   12     -3.94      0.00
  -24   33   12     18.56      0.00
  -21   33   12    -10.06      0.00
  -18   33   12     18.44      0.00
  -15   33   12     -9.16      0.00
  -12   33   12     14.19      0.00
   -9   33   12      9.62      0.00
   -6   33   12     -9.89      0.00
   -3   33   12     10.81      0.00
    0   33   12    -10.56      0.00
  -32   34   12     27.61      0.00
  -29   34   12    -24.15      0.00
  -26   34   12     -0.08      0.00
  -23   34   12      5.54      0.00
  -20   34   12     -5.72      0.00
  -17   34   12     15.32      0.00
  -14   34   12     -1.64      0.00
  -11   34   12     -7.04      0.00
   -8   34   12     12.32      0.00
   -5   34   12     -5.11      0.00
   -2   34   12      5.92      0.00
  -34   35   12      2.69      0.00
  -31   35   12    -12.51      0.00
  -28   35   12     27.15      0.00
  -25   35   12     10.67      0.00
  -22   35   12      8.09      0.00
  -19   35   12    -12.48      0.00
  -16   35   12     -0.84      0.00
  -13   35   12     25.28      0.00
  -10   35   12    -15.16      0.00
   -7   35   12     -4.97      0.00
   -4   35   12    -18.79      0.00
   -1   35   12     -0.46      0.00
  -36   36   12      5.90      0.00
  -33   36   12    -11.78      0.00
  -30   36   12      5.11      0.00
  -27   36   12    -17.12      0.00
  -24   36   12     25.40      0.00
  -21   36   12    -10.55      0.00
  -18   36   12      3.14      0.00
  -15   36   12    -15.77      0.00
  -12   36   12     10.41      0.00
   -9   36   12    -15.38      0.00
   -6   36   12     10.87      0.00
   -3   36   12    -14.94      0.00
    0   36   12     12.70      0.00
  -35   37   12     -9.09      0.00
  -32   37   12    -47.00      0.00
  -29   37   12     -7.63      0.00
  -26   37   12     -6.37      0.00
  -23   37   12    -27.92      0.00
  -20   37   12     20.02      0.00
  -17   37   12     -7.96      0.00
  -14   37   12      3.66      0.00
  -11   37   12     -3.20      0.00
   -8   37   12      9.19      0.00
   -5   37   12     32.64      0.00
   -2   37   12    -28.65      0.00
  -37   38   12     -4.19      0.00
  -34   38   12    -11.27      0.00
  -31   38   12      0.53      0.00
  -28   38   12      5.22      0.00
  -25   38   12    -20.79      0.00
  -22   38   12      9.46      0.00
  -19   38   12     26.02      0.00
  -16   38   12    -25.39      0.00
  -13   38   12     -3.83      0.00
  -10   38   12    -16.46      0.00
   -7   38   12      1.78      0.00
   -4   38   12      3.11      0.00
   -1   38   12    -28.60      0.00
  -36   39   12     13.36      0.00
  -33   39   12    -15.70      0.00
  -30   39   12    -22.66      0.00
  -27   39   12     -1.94      0.00
  -24   39   12    -21.84      0.00
  -21   39   12      1.57      0.00
  -18   39   12    -54.95      0.00
  -15   39   12    -32.44      0.00
  -12   39   12     -8.91      0.00
   -9   39   12     15.02      0.00
   -6   39   12     17.66      0.00
   -3   39   12     16.47      0.00
  -35   40   12    -13.78      0.00
  -32   40   12    -21.96      0.00
  -29   40   12      7.03      0.00
  -26   40   12    -14.21      0.00
  -23   40   12    -13.77      0.00
  -20   40   12    -16.56      0.00
  -17   40   12    -34.83      0.00
  -14   40   12    -13.81      0.00
  -11   40   12    -38.71      0.00
   -8   40   12     30.94      0.00
   -5   40   12    -17.50      0.00
  -34   41   12     18.50      0.00
  -31   41   12    -14.26      0.00
  -28   41   12    -12.84      0.00
  -25   41   12    -21.80      0.00
  -22   41   12     -7.16      0.00
  -19   41   12      2.60      0.00
  -16   41   12     -4.04      0.00
  -13   41   12     15.42      0.00
  -10   41   12    -16.74      0.00
   -7   41   12     -4.19      0.00
  -33   42   12    -17.98      0.00
  -30   42   12    -28.61      0.00
  -27   42   12    -42.62      0.00
  -24   42   12      5.38      0.00
  -21   42   12    -26.69      0.00
  -18   42   12    -14.63      0.00
  -15   42   12    -27.30      0.00
  -12   42   12     16.15      0.00
   -9   42   12     -8.47      0.00
  -32   43   12     -2.57      0.00
  -29   43   12    -31.71      0.00
  -26   43   12    -20.29      0.00
  -23   43   12     -2.06      0.00
  -20   43   12      6.45      0.00
  -17   43   12     -0.82      0.00
  -14   43   12      5.66      0.00
  -11   43   12    -10.11      0.00
  -31   44   12    -17.03      0.00
  -28   44   12      6.24      0.00
  -25   44   12    -22.72      0.00
  -16   44   12    -43.59      0.00
  -13   44   12     28.25      0.00
   -2    3   13   -213.66      0.00
   -1    4   13   -323.58      0.00
   -3    5   13    -31.65      0.00
   -5    6   13   -127.00      0.00
   -2    6   13   -315.72      0.00
   -4    7   13    267.08      0.00
   -1    7   13     36.45      0.00
   -6    8   13    -25.14      0.00
   -3    8   13    -28.56      0.00
   -8    9   13    225.77      0.00
   -5    9   13     80.30      0.00
   -2    9   13    -33.51      0.00
   -7   10   13    -11.67      0.00
   -4   10   13    -43.62      0.00
   -1   10   13    -92.26      0.00
   -9   11   13   -168.10      0.00
   -6   11   13     -4.49      0.00
   -3   11   13    -58.40      0.00
  -11   12   13     49.30      0.00
   -8   12   13      4.47      0.00
   -5   12   13     -5.49      0.00
   -2   12   13     37.35      0.00
  -10   13   13     20.36      0.00
   -7   13   13     26.17      0.00
   -4   13   13     96.01      0.00
   -1   13   13     57.05      0.00
  -12   14   13    -11.62      0.00
   -9   14   13      6.84      0.00
   -6   14   13    -50.88      0.00
   -3   14   13     23.41      0.00
  -14   15   13    -33.95      0.00
  -11   15   13     75.80      0.00
   -8   15   13     35.15      0.00
   -5   15   13     82.85      0.00
   -2   15   13     34.04      0.00
  -13   16   13     19.11      0.00
  -10   16   13    -41.31      0.00
   -7   16   13     49.78      0.00
   -4   16   13     -0.51      0.00
   -1   16   13    -14.95      0.00
  -15   17   13     19.92      0.00
  -12   17   13     28.52      0.00
   -9   17   13      9.53      0.00
   -6   17   13     67.77      0.00
   -3   17   13     60.98      0.00
  -17   18   13    -47.95      0.00
  -14   18   13    -47.89      0.00
  -11   18   13      0.67      0.00
   -8   18   13      1.20      0.00
   -5   18   13     31.06      0.00
   -2   18   13     25.55      0.00
  -16   19   13     -5.91      0.00
  -13   19   13      6.42      0.00
  -10   19   13    -10.24      0.00
   -7   19   13     -0.93      0.00
   -4   19   13     21.34      0.00
   -1   19   13     12.98      0.00
  -18   20   13     31.74      0.00
  -15   20   13     13.77      0.00
  -12   20   13     66.32      0.00
   -9   20   13     33.44      0.00
   -6   20   13     11.74      0.00
   -3   20   13     37.59      0.00
  -20   21   13     20.27      0.00
  -17   21   13    -16.78      0.00
  -14   21   13    -34.95      0.00
  -11   21   13      8.12      0.00
   -8   21   13     13.34      0.00
   -5   21   13    -12.24      0.00
   -2   21   13      0.35      0.00
  -19   22   13     29.28      0.00
  -16   22   13    -25.67      0.00
  -13   22   13    -19.27      0.00
  -10   22   13    -21.22      0.00
   -7   22   13     -1.68      0.00
   -4   22   13     23.21      0.00
   -1   22   13     16.14      0.00
  -21   23   13     19.00      0.00
  -18   23   13     -0.30      0.00
  -15   23   13     32.03      0.00
  -12   23   13     12.18      0.00
   -9   23   13    -17.73      0.00
   -6   23   13     21.48      0.00
   -3   23   13     -2.89      0.00
  -23   24   13     -9.22      0.00
  -20   24   13    -11.69      0.00
  -17   24   13      4.30      0.00
  -14   24   13      7.19      0.00
  -11   24   13     -9.41      0.00
   -8   24   13    -15.13      0.00
   -5   24   13    -15.80      0.00
   -2   24   13     -3.89      0.00
  -22   25   13      3.10      0.00
  -19   25   13     55.66      0.00
  -16   25   13     -0.19      0.00
  -13   25   13      8.63      0.00
  -10   25   13      2.12      0.00
   -7   25   13     -8.41      0.00
   -4   25   13     16.79      0.00
   -1   25   13     10.61      0.00
  -24   26   13     -0.03      0.00
  -21   26   13    -10.11      0.00
  -18   26   13     -7.09      0.00
  -15   26   13     -7.99      0.00
  -12   26   13    -15.73      0.00
   -9   26   13    -34.15      0.00
   -6   26   13    -10.86      0.00
   -3   26   13     15.29      0.00
  -26   27   13     16.99      0.00
  -23   27   13      6.61      0.00
  -20   27   13    -31.87      0.00
  -17   27   13     -5.43      0.00
  -14   27   13     -6.54      0.00
  -11   27   13     -3.80      0.00
   -8   27   13     -1.73      0.00
   -5   27   13     -7.27      0.00
   -2   27   13    -10.19      0.00
  -25   28   13      3.02      0.00
  -22   28   13    -18.93      0.00
  -19   28   13     -2.16      0.00
  -16   28   13      0.95      0.00
  -13   28   13    -13.95      0.00
  -10   28   13     -8.49      0.00
   -7   28   13    -13.17      0.00
   -4   28   13    -11.11      0.00
   -1   28   13    -29.19      0.00
  -27   29   13     -0.82      0.00
  -24   29   13     -2.53      0.00
  -21   29   13     22.56      0.00
  -18   29   13     11.30      0.00
  -15   29   13     15.66      0.00
  -12   29   13    -18.45      0.00
   -9   29   13    -12.09      0.00
   -6   29   13    -18.34      0.00
   -3   29   13     16.58      0.00
  -29   30   13      2.41      0.00
  -26   30   13     -5.07      0.00
  -23   30   13     -4.23      0.00
  -20   30   13     -4.57      0.00
  -17   30   13     -5.26      0.00
  -14   30   13      5.34      0.00
  -11   30   13     -1.80      0.00
   -8   30   13      0.09      0.00
   -5   30   13    -15.37      0.00
   -2   30   13      0.98      0.00
  -28   31   13      7.23      0.00
  -25   31   13    -18.73      0.00
  -22   31   13    -30.48      0.00
  -19   31   13     16.28      0.00
  -16   31   13     16.38      0.00
  -13   31   13     13.17      0.00
  -10   31   13     13.96      0.00
   -7   31   13      8.52      0.00
   -4   31   13    -20.48      0.00
   -1   31   13    -27.11      0.00
  -30   32   13     20.90      0.00
  -27   32   13     -3.82      0.00
  -24   32   13     10.64      0.00
  -21   32   13     -3.64      0.00
  -18   32   13    -16.69      0.00
  -15   32   13     -0.05      0.00
  -12   32   13    -10.29      0.00
   -9   32   13     -6.89      0.00
   -6   32   13    -15.59      0.00
   -3   32   13     20.79      0.00
  -32   33   13    -10.54      0.00
  -29   33   13     10.96      0.00
  -26   33   13    -15.39      0.00
  -23   33   13    -19.09      0.00
  -20   33   13    -17.00      0.00
  -17   33   13      2.20      0.00
  -14   33   13     11.77      0.00
  -11   33   13     11.22      0.00
   -8   33   13    -14.36      0.00
   -5   33   13     -0.65      0.00
   -2   33   13     18.96      0.00
  -31   34   13      0.21      0.00
  -28   34   13    -10.73      0.00
  -25   34   13    -13.33      0.00
  -22   34   13     -1.37      0.00
  -19   34   13    -24.49      0.00
  -16   34   13    -30.98      0.00
  -13   34   13     -5.16      0.00
  -10   34   13    -29.82      0.00
   -7   34   13     -1.04      0.00
   -4   34   13     -9.48      0.00
   -1   34   13    -30.22      0.00
  -33   35   13     14.74      0.00
  -30   35   13    -15.36      0.00
  -27   35   13    -30.97      0.00
  -24   35   13     -2.12      0.00
  -21   35   13     -2.64      0.00
  -18   35   13    -23.53      0.00
  -15   35   13    -10.90      0.00
  -12   35   13      4.58      0.00
   -9   35   13    -10.08      0.00
   -6   35   13    -25.37      0.00
   -3   35   13     15.08      0.00
  -35   36   13     -9.51      0.00
  -32   36   13     22.15      0.00
  -29   36   13     -4.87      0.00
  -26   36   13     -5.58      0.00
  -23   36   13      0.81      0.00
  -20   36   13     28.20      0.00
  -17   36   13     10.29      0.00
  -14   36   13      7.89      0.00
  -11   36   13      6.21      0.00
   -8   36   13     -5.59      0.00
   -5   36   13    -36.55      0.00
   -2   36   13     19.73      0.00
  -34   37   13     13.05      0.00
  -31   37   13      7.02      0.00
  -28   37   13      3.61      0.00
  -25   37   13     -3.74      0.00
  -22   37   13      1.19      0.00
  -19   37   13     -3.48      0.00
  -16   37   13     -7.53      0.00
  -13   37   13     23.39      0.00
  -10   37   13     13.04      0.00
   -7   37   13    -12.06      0.00
   -4   37   13    -22.20      0.00
   -1   37   13      7.84      0.00
  -36   38   13     18.93      0.00
  -33   38   13      3.40      0.00
  -30   38   13     44.71      0.00
  -27   38   13      9.50      0.00
  -24   38   13     13.48      0.00
  -21   38   13     -2.75      0.00
  -18   38   13    -10.22      0.00
  -15   38   13    -16.92      0.00
  -12   38   13    -35.85      0.00
   -9   38   13     10.92      0.00
   -6   38   13      1.21      0.00
   -3   38   13     18.11      0.00
  -35   39   13     33.53      0.00
  -32   39   13    -11.31      0.00
  -29   39   13      2.80      0.00
  -26   39   13     10.59      0.00
  -23   39   13    -15.18      0.00
  -20   39   13     23.13      0.00
  -17   39   13     20.99      0.00
  -14   39   13    -18.19      0.00
  -11   39   13     -3.91      0.00
   -8   39   13    -13.94      0.00
   -5   39   13      9.06      0.00
   -2   39   13     46.25      0.00
  -34   40   13     27.75      0.00
  -31   40   13    -21.46      0.00
  -28   40   13     19.23      0.00
  -25   40   13    -32.58      0.00
  -22   40   13    -51.72      0.00
  -19   40   13      7.56      0.00
  -16   40   13      5.05      0.00
  -13   40   13     10.90      0.00
  -10   40   13     49.54      0.00
   -7   40   13    -20.10      0.00
   -4   40   13     -5.13      0.00
  -36   41   13     33.92      0.00
  -33   41   13     27.07      0.00
  -30   41   13    -26.70      0.00
  -27   41   13    -19.28      0.00
  -24   41   13    -23.73      0.00
  -21   41   13    -12.64      0.00
  -18   41   13     35.49      0.00
  -15   41   13     16.27      0.00
  -12   41   13     -4.57      0.00
   -9   41   13     17.26      0.00
   -6   41   13     13.22      0.00
  -35   42   13     24.48      0.00
  -32   42   13     14.38      0.00
  -29   42   13     -8.61      0.00
  -26   42   13      4.26      0.00
  -23   42   13      1.79      0.00
  -20   42   13     58.04      0.00
  -17   42   13     39.66      0.00
  -14   42   13     25.78      0.00
  -11   42   13      2.38      0.00
   -8   42   13     18.45      0.00
  -34   43   13     -5.91      0.00
  -31   43   13     28.28      0.00
  -28   43   13     24.70      0.00
  -25   43   13     42.27      0.00
  -22   43   13     10.77      0.00
  -19   43   13    -13.23      0.00
  -16   43   13      3.70      0.00
  -13   43   13     24.80      0.00
  -10   43   13    -30.55      0.00
  -33   44   13     16.95      0.00
  -30   44   13      9.46      0.00
  -27   44   13     -2.98      0.00
  -24   44   13     44.64      0.00
  -21   44   13     28.56      0.00
  -18   44   13     11.85      0.00
  -15   44   13    -23.38      0.00
  -12   44   13     12.58      0.00
    0    1   14    539.70      0.00
   -2    2   14    391.70      0.00
   -1    3   14   -318.80      0.00
   -3    4   14   -343.88      0.00
    0    4   14    340.38      0.00
   -5    5   14    132.65      0.00
   -2    5   14   -121.29      0.00
   -4    6   14    264.97      0.00
   -1    6   14    144.85      0.00
   -6    7   14     67.46      0.00
   -3    7   14     83.69      0.00
    0    7   14    -63.68      0.00
   -8    8   14    281.51      0.00
   -5    8   14     26.41      0.00
   -2    8   14    124.35      0.00
   -7    9   14     13.55      0.00
   -4    9   14    -46.94      0.00
   -1    9   14     27.17      0.00
   -9   10   14      1.88      0.00
   -6   10   14     13.75      0.00
   -3   10   14     -5.28      0.00
    0   10   14   -139.30      0.00
  -11   11   14   -194.01      0.00
   -8   11   14    -59.19      0.00
   -5   11   14    -17.04      0.00
   -2   11   14     28.56      0.00
  -10   12   14    163.58      0.00
   -7   12   14     95.67      0.00
   -4   12   14     49.72      0.00
   -1   12   14     15.74      0.00
  -12   13   14     98.42      0.00
   -9   13   14      1.17      0.00
   -6   13   14    147.37      0.00
   -3   13   14    -14.48      0.00
    0   13   14    -44.33      0.00
  -14   14   14    -50.47      0.00
  -11   14   14    -50.28      0.00
   -8   14   14     98.78      0.00
   -5   14   14      8.56      0.00
   -2   14   14     35.21      0.00
  -13   15   14    -31.02      0.00
  -10   15   14      8.60      0.00
   -7   15   14     66.19      0.00
   -4   15   14     38.60      0.00
   -1   15   14     43.73      0.00
  -15   16   14     43.53      0.00
  -12   16   14     57.01      0.00
   -9   16   14    127.08      0.00
   -6   16   14     85.80      0.00
   -3   16   14     76.10      0.00
    0   16   14     21.63      0.00
  -17   17   14    -69.92      0.00
  -14   17   14    -31.61      0.00
  -11   17   14   -114.05      0.00
   -8   17   14    -18.05      0.00
   -5   17   14     46.70      0.00
   -2   17   14     63.22      0.00
  -16   18   14    -10.13      0.00
  -13   18   14     65.08      0.00
  -10   18   14     39.49      0.00
   -7   18   14     50.82      0.00
   -4   18   14     52.86      0.00
   -1   18   14    -15.67      0.00
  -18   19   14    -22.94      0.00
  -15   19   14    -12.34      0.00
  -12   19   14      1.85      0.00
   -9   19   14     76.13      0.00
   -6   19   14     37.41      0.00
   -3   19   14     27.52      0.00
    0   19   14    -49.24      0.00
  -20   20   14     53.80      0.00
  -17   20   14     -9.06      0.00
  -14   20   14      4.10      0.00
  -11   20   14     42.19      0.00
   -8   20   14     35.91      0.00
   -5   20   14     35.45      0.00
   -2   20   14     10.15      0.00
  -19   21   14     12.20      0.00
  -16   21   14    -64.51      0.00
  -13   21   14      7.45      0.00
  -10   21   14    -12.14      0.00
   -7   21   14     10.51      0.00
   -4   21   14     48.47      0.00
   -1   21   14     10.76      0.00
  -21   22   14     19.76      0.00
  -18   22   14      0.18      0.00
  -15   22   14     17.86      0.00
  -12   22   14      7.01      0.00
   -9   22   14     35.95      0.00
   -6   22   14     41.04      0.00
   -3   22   14    -15.01      0.00
    0   22   14     -0.25      0.00
  -23   23   14      2.36      0.00
  -20   23   14      7.11      0.00
  -17   23   14    -15.52      0.00
  -14   23   14     26.75      0.00
  -11   23   14      7.06      0.00
   -8   23   14     27.43      0.00
   -5   23   14     28.94      0.00
   -2   23   14     -4.30      0.00
  -22   24   14    -13.74      0.00
  -19   24   14     19.73      0.00
  -16   24   14     -3.03      0.00
  -13   24   14      0.46      0.00
  -10   24   14     18.43      0.00
   -7   24   14    -14.11      0.00
   -4   24   14    -30.07      0.00
   -1   24   14     -9.35      0.00
  -24   25   14    -15.17      0.00
  -21   25   14     13.81      0.00
  -18   25   14     -2.62      0.00
  -15   25   14    -24.63      0.00
  -12   25   14    -25.26      0.00
   -9   25   14     -1.94      0.00
   -6   25   14     -6.36      0.00
   -3   25   14     25.53      0.00
    0   25   14      9.84      0.00
  -26   26   14      3.48      0.00
  -23   26   14     10.86      0.00
  -20   26   14    -16.92      0.00
  -17   26   14     21.92      0.00
  -14   26   14     -6.13      0.00
  -11   26   14      0.91      0.00
   -8   26   14    -16.87      0.00
   -5   26   14    -25.39      0.00
   -2   26   14    -15.11      0.00
  -25   27   14     -7.56      0.00
  -22   27   14    -36.12      0.00
  -19   27   14     -5.28      0.00
  -16   27   14     -4.93      0.00
  -13   27   14      0.83      0.00
  -10   27   14     -3.43      0.00
   -7   27   14     18.75      0.00
   -4   27   14     14.04      0.00
   -1   27   14      6.23      0.00
  -27   28   14    -35.68      0.00
  -24   28   14    -15.88      0.00
  -21   28   14     -1.63      0.00
  -18   28   14     27.37      0.00
  -15   28   14      8.79      0.00
  -12   28   14     -0.80      0.00
   -9   28   14     -0.24      0.00
   -6   28   14     -0.55      0.00
   -3   28   14     12.98      0.00
    0   28   14      4.35      0.00
  -29   29   14     -8.90      0.00
  -26   29   14     -9.58      0.00
  -23   29   14    -14.19      0.00
  -20   29   14      0.14      0.00
  -17   29   14     -1.07      0.00
  -14   29   14     -4.22      0.00
  -11   29   14     -7.55      0.00
   -8   29   14      2.13      0.00
   -5   29   14     33.95      0.00
   -2   29   14    -30.29      0.00
  -28   30   14      7.84      0.00
  -25   30   14     -3.59      0.00
  -22   30   14     -5.46      0.00
  -19   30   14    -19.66      0.00
  -16   30   14    -15.00      0.00
  -13   30   14    -20.94      0.00
  -10   30   14    -35.81      0.00
   -7   30   14    -12.19      0.00
   -4   30   14     -5.13      0.00
   -1   30   14    -21.18      0.00
  -30   31   14    -30.20      0.00
  -27   31   14    -23.33      0.00
  -24   31   14    -19.76      0.00
  -21   31   14      1.50      0.00
  -18   31   14    -15.59      0.00
  -15   31   14     -9.28      0.00
  -12   31   14     -2.86      0.00
   -9   31   14     -9.36      0.00
   -6   31   14    -23.69      0.00
   -3   31   14     -0.07      0.00
    0   31   14    -11.26      0.00
  -32   32   14     13.18      0.00
  -29   32   14      7.91      0.00
  -26   32   14     -4.32      0.00
  -23   32   14     -2.70      0.00
  -20   32   14     -1.13      0.00
  -17   32   14     -8.66      0.00
  -14   32   14    -29.77      0.00
  -11   32   14    -20.63      0.00
   -8   32   14     -6.37      0.00
   -5   32   14    -19.75      0.00
   -2   32   14    -11.74      0.00
  -31   33   14     -3.93      0.00
  -28   33   14    -28.83      0.00
  -25   33   14      5.97      0.00
  -22   33   14    -21.56      0.00
  -19   33   14    -38.97      0.00
  -16   33   14    -19.44      0.00
  -13   33   14    -18.40      0.00
  -10   33   14     -5.12      0.00
   -7   33   14    -35.07      0.00
   -4   33   14     -1.20      0.00
   -1   33   14      0.72      0.00
  -33   34   14     26.46      0.00
  -30   34   14     -5.35      0.00
  -27   34   14     -0.26      0.00
  -24   34   14    -34.38      0.00
  -21   34   14      2.38      0.00
  -18   34   14     14.01      0.00
  -15   34   14      0.52      0.00
  -12   34   14      6.16      0.00
   -9   34   14    -23.34      0.00
   -6   34   14    -23.29      0.00
   -3   34   14    -40.07      0.00
    0   34   14      7.32      0.00
  -35   35   14     15.97      0.00
  -32   35   14     11.35      0.00
  -29   35   14     36.68      0.00
  -26   35   14      2.70      0.00
  -23   35   14    -20.54      0.00
  -20   35   14     -4.55      0.00
  -17   35   14      3.66      0.00
  -14   35   14     -0.23      0.00
  -11   35   14      2.14      0.00
   -8   35   14     -3.98      0.00
   -5   35   14     -7.24      0.00
   -2   35   14    -38.59      0.00
  -34   36   14     25.95      0.00
  -31   36   14     14.30      0.00
  -28   36   14     12.79      0.00
  -25   36   14     23.76      0.00
  -22   36   14     17.99      0.00
  -19   36   14    -30.68      0.00
  -16   36   14     -4.22      0.00
  -13   36   14      2.55      0.00
  -10   36   14     -2.11      0.00
   -7   36   14     -6.15      0.00
   -4   36   14     31.84      0.00
   -1   36   14    -24.31      0.00
  -36   37   14     -6.88      0.00
  -33   37   14     -4.27      0.00
  -30   37   14     12.15      0.00
  -27   37   14    -15.04      0.00
  -24   37   14    -33.41      0.00
  -21   37   14     -7.25      0.00
  -18   37   14      2.44      0.00
  -15   37   14    -28.39      0.00
  -12   37   14     -8.15      0.00
   -9   37   14    -19.56      0.00
   -6   37   14      8.94      0.00
   -3   37   14     35.52      0.00
    0   37   14      1.84      0.00
  -38   38   14    -22.77      0.00
  -35   38   14     -7.15      0.00
  -32   38   14     15.08      0.00
  -29   38   14     -8.43      0.00
  -26   38   14      4.56      0.00
  -23   38   14    -24.48      0.00
  -20   38   14      1.84      0.00
  -17   38   14     -5.74      0.00
  -14   38   14      3.16      0.00
  -11   38   14    -15.43      0.00
   -8   38   14    -24.08      0.00
   -5   38   14    -33.13      0.00
   -2   38   14     17.30      0.00
  -37   39   14      8.29      0.00
  -34   39   14    -11.36      0.00
  -31   39   14     19.47      0.00
  -28   39   14     20.07      0.00
  -25   39   14     -2.31      0.00
  -22   39   14    -25.98      0.00
  -19   39   14     -9.61      0.00
  -16   39   14    -15.30      0.00
  -13   39   14     -0.40      0.00
  -10   39   14     17.73      0.00
   -7   39   14     14.94      0.00
   -4   39   14     13.71      0.00
  -33   40   14     29.30      0.00
  -30   40   14      0.91      0.00
  -27   40   14     -2.34      0.00
  -24   40   14     23.56      0.00
  -21   40   14      6.94      0.00
  -18   40   14     -5.11      0.00
  -15   40   14     12.01      0.00
  -12   40   14    -27.92      0.00
   -9   40   14      5.52      0.00
   -6   40   14      8.28      0.00
  -35   41   14     11.78      0.00
  -32   41   14     21.49      0.00
  -29   41   14     47.44      0.00
  -26   41   14     34.53      0.00
  -23   41   14     14.58      0.00
  -20   41   14    -23.90      0.00
  -17   41   14     -0.71      0.00
  -14   41   14     27.18      0.00
  -11   41   14    -23.53      0.00
   -8   41   14    -15.05      0.00
  -34   42   14      4.26      0.00
  -31   42   14    -25.66      0.00
  -28   42   14     91.03      0.00
  -25   42   14     52.20      0.00
  -22   42   14     35.29      0.00
  -19   42   14     39.79      0.00
  -16   42   14    -27.08      0.00
  -13   42   14    -12.66      0.00
  -10   42   14     10.63      0.00
   -7   42   14    -14.33      0.00
  -33   43   14    -32.15      0.00
  -30   43   14      1.28      0.00
  -27   43   14     25.58      0.00
  -24   43   14     -0.94      0.00
  -21   43   14     28.22      0.00
  -18   43   14     13.29      0.00
  -15   43   14    -39.05      0.00
  -12   43   14     -2.12      0.00
   -9   43   14     -3.43      0.00
  -32   44   14     17.59      0.00
  -29   44   14     -5.98      0.00
  -26   44   14     70.38      0.00
  -20   44   14     12.52      0.00
  -14   44   14    -19.57      0.00
  -11   44   14    -18.40      0.00
   -1    2   15   -203.78      0.00
   -2    4   15     14.30      0.00
   -4    5   15    402.27      0.00
   -1    5   15      8.52      0.00
   -3    6   15    -96.50      0.00
   -5    7   15    -30.98      0.00
   -2    7   15   -146.56      0.00
   -7    8   15    -62.98      0.00
   -4    8   15    -27.02      0.00
   -1    8   15    -60.45      0.00
   -6    9   15     16.78      0.00
   -3    9   15     76.24      0.00
   -8   10   15   -108.70      0.00
   -5   10   15   -195.56      0.00
   -2   10   15   -182.61      0.00
  -10   11   15     56.50      0.00
   -7   11   15    -12.11      0.00
   -4   11   15     33.55      0.00
   -1   11   15      6.23      0.00
   -9   12   15     22.69      0.00
   -6   12   15     -6.56      0.00
   -3   12   15     46.91      0.00
  -11   13   15      7.51      0.00
   -8   13   15    -48.79      0.00
   -5   13   15    -31.88      0.00
   -2   13   15    -48.11      0.00
  -13   14   15    -31.49      0.00
  -10   14   15      3.30      0.00
   -7   14   15     56.41      0.00
   -4   14   15     -4.21      0.00
   -1   14   15    -25.53      0.00
  -12   15   15     69.15      0.00
   -9   15   15      1.97      0.00
   -6   15   15     54.00      0.00
   -3   15   15     20.36      0.00
  -14   16   15     46.41      0.00
  -11   16   15     18.94      0.00
   -8   16   15     -3.17      0.00
   -5   16   15    -13.48      0.00
   -2   16   15    -23.70      0.00
  -16   17   15     -4.73      0.00
  -13   17   15     -7.16      0.00
  -10   17   15    -16.53      0.00
   -7   17   15     31.30      0.00
   -4   17   15    -42.38      0.00
   -1   17   15    -17.56      0.00
  -15   18   15     42.13      0.00
  -12   18   15    -11.14      0.00
   -9   18   15     75.11      0.00
   -6   18   15     34.78      0.00
   -3   18   15     14.17      0.00
  -17   19   15     21.35      0.00
  -14   19   15     27.67      0.00
  -11   19   15     97.01      0.00
   -8   19   15     -2.43      0.00
   -5   19   15     -2.90      0.00
   -2   19   15      6.37      0.00
  -19   20   15      7.90      0.00
  -16   20   15     13.91      0.00
  -13   20   15      2.31      0.00
  -10   20   15     32.81      0.00
   -7   20   15      0.49      0.00
   -4   20   15      6.03      0.00
   -1   20   15     -6.50      0.00
  -18   21   15    -11.16      0.00
  -15   21   15     58.60      0.00
  -12   21   15     34.08      0.00
   -9   21   15     41.84      0.00
   -6   21   15     31.63      0.00
   -3   21   15     35.39      0.00
  -20   22   15      9.52      0.00
  -17   22   15    -23.07      0.00
  -14   22   15     26.87      0.00
  -11   22   15     15.27      0.00
   -8   22   15      4.69      0.00
   -5   22   15     22.19      0.00
   -2   22   15    -34.11      0.00
  -22   23   15     14.46      0.00
  -19   23   15     11.75      0.00
  -16   23   15    -27.96      0.00
  -13   23   15     25.57      0.00
  -10   23   15     -3.59      0.00
   -7   23   15     14.76      0.00
   -4   23   15      1.68      0.00
   -1   23   15     -5.47      0.00
  -21   24   15    -16.84      0.00
  -18   24   15    -37.78      0.00
  -15   24   15     26.39      0.00
  -12   24   15     -0.03      0.00
   -9   24   15     -5.43      0.00
   -6   24   15     18.48      0.00
   -3   24   15     -2.57      0.00
  -23   25   15     23.37      0.00
  -20   25   15    -20.88      0.00
  -17   25   15    -29.42      0.00
  -14   25   15      3.51      0.00
  -11   25   15     20.76      0.00
   -8   25   15     23.15      0.00
   -5   25   15    -23.48      0.00
   -2   25   15     -0.87      0.00
  -25   26   15     -5.97      0.00
  -22   26   15    -15.53      0.00
  -19   26   15    -10.56      0.00
  -16   26   15      7.09      0.00
  -13   26   15    -12.46      0.00
  -10   26   15     20.97      0.00
   -7   26   15     -1.41      0.00
   -4   26   15     11.13      0.00
   -1   26   15     14.77      0.00
  -24   27   15      4.52      0.00
  -21   27   15     -6.71      0.00
  -18   27   15     -3.06      0.00
  -15   27   15      6.16      0.00
  -12   27   15      0.23      0.00
   -9   27   15      2.38      0.00
   -6   27   15     11.40      0.00
   -3   27   15     -1.05      0.00
  -26   28   15     13.65      0.00
  -23   28   15     29.78      0.00
  -20   28   15    -17.08      0.00
  -17   28   15     -8.71      0.00
  -14   28   15    -17.30      0.00
  -11   28   15     -0.46      0.00
   -8   28   15     14.86      0.00
   -5   28   15    -15.03      0.00
   -2   28   15     -6.38      0.00
  -28   29   15    -11.08      0.00
  -25   29   15     38.66      0.00
  -22   29   15     20.06      0.00
  -19   29   15     24.30      0.00
  -16   29   15     -4.59      0.00
  -13   29   15     19.75      0.00
  -10   29   15    -12.82      0.00
   -7   29   15    -16.00      0.00
   -4   29   15      3.34      0.00
   -1   29   15     14.77      0.00
  -27   30   15    -11.39      0.00
  -24   30   15    -11.85      0.00
  -21   30   15     19.20      0.00
  -18   30   15     11.18      0.00
  -15   30   15      6.68      0.00
  -12   30   15     -6.54      0.00
   -9   30   15      6.23      0.00
   -6   30   15    -17.74      0.00
   -3   30   15      7.91      0.00
  -29   31   15     16.83      0.00
  -26   31   15      2.06      0.00
  -23   31   15     22.49      0.00
  -20   31   15     -3.20      0.00
  -17   31   15    -13.90      0.00
  -14   31   15     10.33      0.00
  -11   31   15      1.30      0.00
   -8   31   15    -11.07      0.00
   -5   31   15     -5.23      0.00
   -2   31   15     12.00      0.00
  -31   32   15    -24.21      0.00
  -28   32   15     15.87      0.00
  -25   32   15     -7.07      0.00
  -22   32   15     24.52      0.00
  -19   32   15      4.18      0.00
  -16   32   15    -11.63      0.00
  -13   32   15      6.90      0.00
  -10   32   15     -7.77      0.00
   -7   32   15     -1.07      0.00
   -4   32   15     -4.83      0.00
   -1   32   15     -3.32      0.00
  -30   33   15     14.86      0.00
  -27   33   15     -3.27      0.00
  -24   33   15    -14.33      0.00
  -21   33   15     -3.95      0.00
  -18   33   15      6.49      0.00
  -15   33   15     -9.49      0.00
  -12   33   15      6.11      0.00
   -9   33   15      8.91      0.00
   -6   33   15     -5.62      0.00
   -3   33   15      9.89      0.00
  -32   34   15     -9.67      0.00
  -29   34   15      3.39      0.00
  -26   34   15     33.67      0.00
  -23   34   15     12.61      0.00
  -20   34   15    -10.04      0.00
  -17   34   15      1.06      0.00
  -14   34   15     -1.64      0.00
  -11   34   15     15.46      0.00
   -8   34   15    -16.14      0.00
   -5   34   15      2.13      0.00
   -2   34   15    -19.09      0.00
  -34   35   15    -14.48      0.00
  -31   35   15    -20.54      0.00
  -28   35   15     16.95      0.00
  -25   35   15     10.30      0.00
  -22   35   15     22.56      0.00
  -19   35   15    -11.34      0.00
  -16   35   15    -40.78      0.00
  -13   35   15      5.58      0.00
  -10   35   15    -21.64      0.00
   -7   35   15     24.51      0.00
   -4   35   15      2.33      0.00
   -1   35   15     18.76      0.00
  -33   36   15    -10.37      0.00
  -30   36   15     -7.76      0.00
  -27   36   15     -7.25      0.00
  -24   36   15     15.14      0.00
  -21   36   15     -6.74      0.00
  -18   36   15    -24.16      0.00
  -15   36   15     -6.07      0.00
  -12   36   15     22.77      0.00
   -9   36   15    -16.84      0.00
   -6   36   15     19.11      0.00
   -3   36   15     19.72      0.00
  -35   37   15     11.71      0.00
  -32   37   15    -17.38      0.00
  -29   37   15     30.36      0.00
  -26   37   15     19.80      0.00
  -23   37   15    -31.80      0.00
  -20   37   15     10.89      0.00
  -17   37   15     -1.25      0.00
  -14   37   15     -6.57      0.00
  -11   37   15     27.78      0.00
   -8   37   15    -17.53      0.00
   -5   37   15    -16.23      0.00
   -2   37   15      5.97      0.00
  -37   38   15    -11.72      0.00
  -34   38   15     -4.46      0.00
  -31   38   15     18.95      0.00
  -28   38   15     26.60      0.00
  -25   38   15      4.10      0.00
  -22   38   15     43.57      0.00
  -19   38   15      5.47      0.00
  -16   38   15    -25.00      0.00
  -13   38   15    -14.45      0.00
  -10   38   15     -7.51      0.00
   -7   38   15      4.50      0.00
   -4   38   15     12.22      0.00
   -1   38   15      7.67      0.00
  -36   39   15    -15.07      0.00
  -33   39   15     -3.87      0.00
  -30   39   15      7.61      0.00
  -27   39   15     -6.00      0.00
  -24   39   15     -1.94      0.00
  -21   39   15    -12.58      0.00
  -18   39   15      3.31      0.00
  -15   39   15    -36.64      0.00
  -12   39   15    -10.81      0.00
   -9   39   15    -21.42      0.00
   -6   39   15      2.37      0.00
   -3   39   15     -5.99      0.00
  -35   40   15     -2.49      0.00
  -32   40   15     15.44      0.00
  -29   40   15    -14.33      0.00
  -26   40   15     20.36      0.00
  -23   40   15      4.97      0.00
  -20   40   15     23.55      0.00
  -17   40   15     -9.27      0.00
  -14   40   15     -2.60      0.00
  -11   40   15     23.10      0.00
   -8   40   15     -1.69      0.00
   -5   40   15      1.59      0.00
  -34   41   15    -16.90      0.00
  -31   41   15    -29.03      0.00
  -28   41   15     14.36      0.00
  -25   41   15    -22.33      0.00
  -22   41   15    -33.19      0.00
  -19   41   15     -0.90      0.00
  -16   41   15    -18.18      0.00
  -13   41   15     -6.25      0.00
  -10   41   15    -17.04      0.00
   -7   41   15    -36.48      0.00
  -33   42   15    -13.87      0.00
  -30   42   15    -35.92      0.00
  -27   42   15      0.92      0.00
  -24   42   15      0.29      0.00
  -21   42   15     17.71      0.00
  -18   42   15      0.39      0.00
  -15   42   15    -16.45      0.00
  -12   42   15     -9.29      0.00
   -9   42   15     -2.25      0.00
  -32   43   15    -21.92      0.00
  -29   43   15     34.86      0.00
  -26   43   15      6.01      0.00
  -23   43   15     17.28      0.00
  -20   43   15     14.90      0.00
  -14   43   15    -27.28      0.00
  -11   43   15     17.82      0.00
  -31   44   15     -9.72      0.00
  -28   44   15     34.02      0.00
  -25   44   15      5.86      0.00
  -19   44   15    -20.02      0.00
  -16   44   15      5.19      0.00
  -13   44   15     -8.53      0.00
   -1    1   16    272.44      0.00
    0    2   16     89.03      0.00
   -2    3   16    -93.93      0.00
   -4    4   16    332.45      0.00
   -1    4   16    272.29      0.00
   -3    5   16   -110.15      0.00
    0    5   16    121.55      0.00
   -5    6   16   -116.98      0.00
   -2    6   16     29.29      0.00
   -7    7   16     62.43      0.00
   -4    7   16    -27.77      0.00
   -1    7   16     -8.81      0.00
   -6    8   16     54.67      0.00
   -3    8   16    -62.78      0.00
    0    8   16     45.83      0.00
   -8    9   16     72.12      0.00
   -5    9   16    -71.33      0.00
   -2    9   16    110.90      0.00
  -10   10   16   -100.75      0.00
   -7   10   16      3.49      0.00
   -4   10   16   -117.81      0.00
   -1   10   16    -45.24      0.00
   -9   11   16    -69.17      0.00
   -6   11   16     16.02      0.00
   -3   11   16     75.75      0.00
    0   11   16    132.93      0.00
  -11   12   16    -14.11      0.00
   -8   12   16    146.71      0.00
   -5   12   16     50.98      0.00
   -2   12   16     16.09      0.00
  -13   13   16    -48.38      0.00
  -10   13   16     19.37      0.00
   -7   13   16    -54.94      0.00
   -4   13   16    -17.47      0.00
   -1   13   16     43.70      0.00
  -12   14   16    108.54      0.00
   -9   14   16    136.60      0.00
   -6   14   16     -1.12      0.00
   -3   14   16     87.45      0.00
    0   14   16    113.98      0.00
  -14   15   16     82.56      0.00
  -11   15   16     35.81      0.00
   -8   15   16    107.74      0.00
   -5   15   16     -2.58      0.00
   -2   15   16     36.62      0.00
  -16   16   16    109.11      0.00
  -13   16   16     10.77      0.00
  -10   16   16     18.90      0.00
   -7   16   16     45.52      0.00
   -4   16   16      1.32      0.00
   -1   16   16     68.30      0.00
  -15   17   16     14.96      0.00
  -12   17   16     -2.11      0.00
   -9   17   16     32.19      0.00
   -6   17   16     34.16      0.00
   -3   17   16      2.16      0.00
    0   17   16     44.20      0.00
  -17   18   16     14.91      0.00
  -14   18   16     47.20      0.00
  -11   18   16     -3.91      0.00
   -8   18   16     54.54      0.00
   -5   18   16     -7.78      0.00
   -2   18   16     24.19      0.00
  -19   19   16     -5.88      0.00
  -16   19   16     43.40      0.00
  -13   19   16     26.11      0.00
  -10   19   16     13.89      0.00
   -7   19   16     38.91      0.00
   -4   19   16    -28.62      0.00
   -1   19   16      8.05      0.00
  -18   20   16     34.13      0.00
  -15   20   16     48.54      0.00
  -12   20   16    -11.12      0.00
   -9   20   16     33.01      0.00
   -6   20   16    -15.84      0.00
   -3   20   16      9.15      0.00
    0   20   16     33.28      0.00
  -20   21   16    -17.56      0.00
  -17   21   16     39.44      0.00
  -14   21   16    -45.77      0.00
  -11   21   16    -33.47      0.00
   -8   21   16     -9.97      0.00
   -5   21   16     32.57      0.00
   -2   21   16    -35.19      0.00
  -22   22   16     14.30      0.00
  -19   22   16     -9.07      0.00
  -16   22   16     41.63      0.00
  -13   22   16      2.72      0.00
  -10   22   16     -2.50      0.00
   -7   22   16    -16.41      0.00
   -4   22   16     32.07      0.00
   -1   22   16      0.72      0.00
  -21   23   16     23.33      0.00
  -18   23   16    -45.17      0.00
  -15   23   16     -9.53      0.00
  -12   23   16      1.87      0.00
   -9   23   16     16.56      0.00
   -6   23   16    -11.15      0.00
   -3   23   16     18.84      0.00
    0   23   16      0.76      0.00
  -23   24   16     -5.22      0.00
  -20   24   16     40.70      0.00
  -17   24   16    -17.26      0.00
  -14   24   16     -4.10      0.00
  -11   24   16     31.94      0.00
   -8   24   16     25.36      0.00
   -5   24   16     35.43      0.00
   -2   24   16     17.36      0.00
  -25   25   16     10.14      0.00
  -22   25   16      5.95      0.00
  -19   25   16     25.36      0.00
  -16   25   16      4.74      0.00
  -13   25   16     17.34      0.00
  -10   25   16     -5.16      0.00
   -7   25   16     23.22      0.00
   -4   25   16    -15.69      0.00
   -1   25   16     34.03      0.00
  -24   26   16     15.55      0.00
  -21   26   16     22.90      0.00
  -18   26   16     13.05      0.00
  -15   26   16     34.29      0.00
  -12   26   16     25.71      0.00
   -9   26   16     16.53      0.00
   -6   26   16    -11.66      0.00
   -3   26   16     17.70      0.00
    0   26   16     26.02      0.00
  -26   27   16     -0.57      0.00
  -23   27   16     26.33      0.00
  -20   27   16     -5.74      0.00
  -17   27   16     26.82      0.00
  -14   27   16    -19.23      0.00
  -11   27   16     43.38      0.00
   -8   27   16     32.03      0.00
   -5   27   16     52.83      0.00
   -2   27   16      3.93      0.00
  -28   28   16     11.43      0.00
  -25   28   16     33.27      0.00
  -22   28   16      6.28      0.00
  -19   28   16     16.13      0.00
  -16   28   16     31.40      0.00
  -13   28   16     16.77      0.00
  -10   28   16     30.08      0.00
   -7   28   16     -6.37      0.00
   -4   28   16     -9.18      0.00
   -1   28   16      2.59      0.00
  -27   29   16     15.21      0.00
  -24   29   16     -0.59      0.00
  -21   29   16      5.93      0.00
  -18   29   16     -5.62      0.00
  -15   29   16     36.32      0.00
  -12   29   16     36.02      0.00
   -9   29   16      4.60      0.00
   -6   29   16      7.70      0.00
   -3   29   16     15.80      0.00
    0   29   16     -2.96      0.00
  -29   30   16      3.59      0.00
  -26   30   16     25.38      0.00
  -23   30   16     22.93      0.00
  -20   30   16     12.86      0.00
  -17   30   16      1.99      0.00
  -14   30   16    -15.16      0.00
  -11   30   16     10.44      0.00
   -8   30   16      4.07      0.00
   -5   30   16      9.67      0.00
   -2   30   16    -11.41      0.00
  -31   31   16      4.77      0.00
  -28   31   16     -1.53      0.00
  -25   31   16     16.36      0.00
  -22   31   16    -10.92      0.00
  -19   31   16     -3.99      0.00
  -16   31   16     -8.36      0.00
  -13   31   16      1.42      0.00
  -10   31   16    -15.46      0.00
   -7   31   16    -13.80      0.00
   -4   31   16      5.01      0.00
   -1   31   16    -23.12      0.00
  -30   32   16     19.51      0.00
  -27   32   16     20.73      0.00
  -24   32   16    -13.11      0.00
  -21   32   16      4.31      0.00
  -18   32   16     15.54      0.00
  -15   32   16     20.78      0.00
  -12   32   16      4.36      0.00
   -9   32   16      1.56      0.00
   -6   32   16    -14.87      0.00
   -3   32   16     28.26      0.00
    0   32   16     36.99      0.00
  -32   33   16    -14.53      0.00
  -29   33   16     21.16      0.00
  -26   33   16    -10.74      0.00
  -23   33   16     19.64      0.00
  -20   33   16      4.83      0.00
  -17   33   16      8.96      0.00
  -14   33   16     10.67      0.00
  -11   33   16      7.06      0.00
   -8   33   16     10.49      0.00
   -5   33   16     -0.01      0.00
   -2   33   16    -25.66      0.00
  -34   34   16     -6.14      0.00
  -31   34   16    -10.12      0.00
  -28   34   16     -2.75      0.00
  -25   34   16      7.89      0.00
  -22   34   16     26.55      0.00
  -19   34   16     19.41      0.00
  -16   34   16     -7.45      0.00
  -13   34   16      1.93      0.00
  -10   34   16    -12.43      0.00
   -7   34   16    -10.65      0.00
   -4   34   16     28.33      0.00
   -1   34   16    -32.68      0.00
  -33   35   16      5.04      0.00
  -30   35   16    -24.10      0.00
  -27   35   16     18.81      0.00
  -24   35   16    -18.02      0.00
  -21   35   16     19.92      0.00
  -18   35   16     -4.14      0.00
  -15   35   16     11.54      0.00
  -12   35   16     -4.23      0.00
   -9   35   16     15.35      0.00
   -6   35   16      9.85      0.00
   -3   35   16     14.81      0.00
    0   35   16    -11.11      0.00
  -35   36   16      5.61      0.00
  -32   36   16    -23.20      0.00
  -29   36   16     24.69      0.00
  -26   36   16     16.04      0.00
  -23   36   16     37.34      0.00
  -20   36   16      3.50      0.00
  -17   36   16     18.71      0.00
  -14   36   16     23.37      0.00
  -11   36   16     24.41      0.00
   -8   36   16     21.10      0.00
   -5   36   16    -22.81      0.00
   -2   36   16     18.77      0.00
  -37   37   16      2.05      0.00
  -34   37   16     -7.80      0.00
  -31   37   16      5.06      0.00
  -28   37   16    -14.25      0.00
  -25   37   16    -21.90      0.00
  -22   37   16     -9.77      0.00
  -19   37   16     21.68      0.00
  -16   37   16     -8.60      0.00
  -13   37   16      0.80      0.00
  -10   37   16     21.95      0.00
   -7   37   16     -6.59      0.00
   -4   37   16    -25.91      0.00
   -1   37   16     -9.77      0.00
  -36   38   16     -2.63      0.00
  -33   38   16    -26.66      0.00
  -30   38   16     -3.52      0.00
  -27   38   16    -44.05      0.00
  -24   38   16     19.28      0.00
  -21   38   16     48.59      0.00
  -18   38   16      9.86      0.00
  -15   38   16      5.50      0.00
  -12   38   16     -5.91      0.00
   -9   38   16    -21.63      0.00
   -6   38   16    -28.84      0.00
   -3   38   16     12.41      0.00
  -35   39   16    -17.85      0.00
  -32   39   16      6.38      0.00
  -29   39   16    -10.19      0.00
  -26   39   16    -23.26      0.00
  -23   39   16    -20.50      0.00
  -20   39   16    -23.80      0.00
  -17   39   16     30.34      0.00
  -14   39   16     31.72      0.00
  -11   39   16    -13.18      0.00
   -8   39   16     22.14      0.00
   -5   39   16     12.78      0.00
  -34   40   16      3.78      0.00
  -31   40   16    -12.17      0.00
  -28   40   16    -16.92      0.00
  -25   40   16    -18.93      0.00
  -22   40   16      4.80      0.00
  -19   40   16    -20.25      0.00
  -16   40   16     -1.17      0.00
  -13   40   16     52.55      0.00
  -10   40   16    -27.34      0.00
   -7   40   16    -52.08      0.00
   -4   40   16    -20.27      0.00
  -36   41   16    -34.91      0.00
  -33   41   16     -5.74      0.00
  -30   41   16    -18.20      0.00
  -27   41   16    -20.49      0.00
  -24   41   16    -11.45      0.00
  -21   41   16     14.25      0.00
  -18   41   16     22.99      0.00
  -15   41   16      5.95      0.00
  -12   41   16     33.03      0.00
   -9   41   16     -4.78      0.00
   -6   41   16     13.02      0.00
  -35   42   16     -9.18      0.00
  -32   42   16      7.01      0.00
  -29   42   16    -10.84      0.00
  -26   42   16     47.64      0.00
  -23   42   16     30.59      0.00
  -20   42   16      6.65      0.00
  -17   42   16     17.46      0.00
  -14   42   16     41.29      0.00
  -11   42   16     -3.29      0.00
   -8   42   16      0.88      0.00
  -34   43   16     -3.42      0.00
  -31   43   16    -44.72      0.00
  -28   43   16      1.23      0.00
  -25   43   16     36.80      0.00
  -22   43   16    -34.79      0.00
  -19   43   16     19.04      0.00
  -16   43   16     14.59      0.00
  -13   43   16      3.10      0.00
  -10   43   16      3.20      0.00
  -18   44   16     16.75      0.00
  -15   44   16     49.60      0.00
  -12   44   16      7.10      0.00
   -1    3   17     40.93      0.00
   -3    4   17    -25.43      0.00
   -2    5   17    -48.04      0.00
   -4    6   17    238.29      0.00
   -1    6   17    -57.35      0.00
   -6    7   17    139.16      0.00
   -3    7   17    259.65      0.00
   -5    8   17   -154.03      0.00
   -2    8   17     33.76      0.00
   -7    9   17    -36.59      0.00
   -4    9   17     66.70      0.00
   -1    9   17    -69.13      0.00
   -9   10   17    -27.13      0.00
   -6   10   17    -86.10      0.00
   -3   10   17     95.44      0.00
   -8   11   17    -40.86      0.00
   -5   11   17     36.18      0.00
   -2   11   17     68.97      0.00
  -10   12   17    173.80      0.00
   -7   12   17    -19.12      0.00
   -4   12   17     26.35      0.00
   -1   12   17      4.78      0.00
  -12   13   17     29.33      0.00
   -9   13   17     42.64      0.00
   -6   13   17    -27.36      0.00
   -3   13   17     -5.52      0.00
  -11   14   17     47.78      0.00
   -8   14   17      7.95      0.00
   -5   14   17     65.15      0.00
   -2   14   17     84.81      0.00
  -13   15   17      6.59      0.00
  -10   15   17     72.50      0.00
   -7   15   17     41.59      0.00
   -4   15   17    -42.58      0.00
   -1   15   17    -41.34      0.00
  -15   16   17    -50.53      0.00
  -12   16   17    -59.26      0.00
   -9   16   17     -2.97      0.00
   -6   16   17    -17.43      0.00
   -3   16   17     -0.41      0.00
  -14   17   17    -28.21      0.00
  -11   17   17      0.52      0.00
   -8   17   17    -80.80      0.00
   -5   17   17    -11.93      0.00
   -2   17   17     24.68      0.00
  -16   18   17     12.50      0.00
  -13   18   17     25.13      0.00
  -10   18   17    132.60      0.00
   -7   18   17    -21.27      0.00
   -4   18   17    -18.30      0.00
   -1   18   17     32.83      0.00
  -18   19   17      3.65      0.00
  -15   19   17    -19.85      0.00
  -12   19   17    -14.85      0.00
   -9   19   17     32.37      0.00
   -6   19   17    -50.77      0.00
   -3   19   17    -41.80      0.00
  -17   20   17      3.31      0.00
  -14   20   17      9.17      0.00
  -11   20   17    -11.59      0.00
   -8   20   17    -12.38      0.00
   -5   20   17    -22.66      0.00
   -2   20   17     40.07      0.00
  -19   21   17    -12.24      0.00
  -16   21   17     -8.09      0.00
  -13   21   17     40.16      0.00
  -10   21   17    -36.12      0.00
   -7   21   17     -7.81      0.00
   -4   21   17     10.62      0.00
   -1   21   17     20.06      0.00
  -21   22   17    -10.55      0.00
  -18   22   17     -7.64      0.00
  -15   22   17     -0.02      0.00
  -12   22   17     13.65      0.00
   -9   22   17     50.29      0.00
   -6   22   17     21.66      0.00
   -3   22   17     -5.22      0.00
  -20   23   17    -27.16      0.00
  -17   23   17     16.12      0.00
  -14   23   17    -20.53      0.00
  -11   23   17      7.06      0.00
   -8   23   17    -25.32      0.00
   -5   23   17     40.65      0.00
   -2   23   17     14.60      0.00
  -22   24   17     -1.62      0.00
  -19   24   17     -2.77      0.00
  -16   24   17     28.81      0.00
  -13   24   17     23.52      0.00
  -10   24   17      6.23      0.00
   -7   24   17      3.11      0.00
   -4   24   17     11.66      0.00
   -1   24   17     11.13      0.00
  -24   25   17      4.04      0.00
  -21   25   17    -29.30      0.00
  -18   25   17      9.11      0.00
  -15   25   17     13.11      0.00
  -12   25   17     31.80      0.00
   -9   25   17     16.11      0.00
   -6   25   17     -4.06      0.00
   -3   25   17    -20.15      0.00
  -23   26   17    -22.89      0.00
  -20   26   17    -15.54      0.00
  -17   26   17     16.31      0.00
  -14   26   17    -15.46      0.00
  -11   26   17     -9.41      0.00
   -8   26   17      6.64      0.00
   -5   26   17     -6.81      0.00
   -2   26   17     -6.48      0.00
  -25   27   17      2.81      0.00
  -22   27   17     20.64      0.00
  -19   27   17    -25.72      0.00
  -16   27   17      5.76      0.00
  -13   27   17     -3.02      0.00
  -10   27   17    -11.26      0.00
   -7   27   17     23.92      0.00
   -4   27   17     -5.13      0.00
   -1   27   17    -15.43      0.00
  -27   28   17     -3.46      0.00
  -24   28   17     14.24      0.00
  -21   28   17      2.58      0.00
  -18   28   17     -6.51      0.00
  -15   28   17      2.43      0.00
  -12   28   17     20.49      0.00
   -9   28   17     26.32      0.00
   -6   28   17     11.59      0.00
   -3   28   17    -10.10      0.00
  -26   29   17    -27.96      0.00
  -23   29   17     30.30      0.00
  -20   29   17     -3.98      0.00
  -17   29   17     -2.50      0.00
  -14   29   17     -1.52      0.00
  -11   29   17    -31.53      0.00
   -8   29   17    -11.32      0.00
   -5   29   17     -9.23      0.00
   -2   29   17     28.16      0.00
  -28   30   17    -23.61      0.00
  -25   30   17     -9.24      0.00
  -22   30   17      2.60      0.00
  -19   30   17    -19.70      0.00
  -16   30   17    -13.38      0.00
  -13   30   17      1.36      0.00
  -10   30   17     -0.44      0.00
   -7   30   17      9.34      0.00
   -4   30   17    -17.08      0.00
   -1   30   17     22.07      0.00
  -30   31   17     -9.88      0.00
  -27   31   17     11.27      0.00
  -24   31   17    -16.54      0.00
  -21   31   17    -14.63      0.00
  -18   31   17    -13.70      0.00
  -15   31   17     -4.93      0.00
  -12   31   17      7.05      0.00
   -9   31   17     -0.28      0.00
   -6   31   17      0.74      0.00
   -3   31   17      2.09      0.00
  -29   32   17     -9.05      0.00
  -26   32   17     -6.86      0.00
  -23   32   17     -0.50      0.00
  -20   32   17    -13.38      0.00
  -17   32   17      4.35      0.00
  -14   32   17     -5.59      0.00
  -11   32   17     -8.26      0.00
   -8   32   17    -18.65      0.00
   -5   32   17      6.02      0.00
   -2   32   17     18.26      0.00
  -31   33   17     -1.46      0.00
  -28   33   17     -9.80      0.00
  -25   33   17    -28.29      0.00
  -22   33   17     -2.09      0.00
  -19   33   17    -13.21      0.00
  -16   33   17    -13.20      0.00
  -13   33   17    -17.11      0.00
  -10   33   17     -4.38      0.00
   -7   33   17    -34.87      0.00
   -4   33   17      6.36      0.00
   -1   33   17    -15.74      0.00
  -33   34   17     -7.31      0.00
  -30   34   17    -21.01      0.00
  -27   34   17      4.99      0.00
  -24   34   17     10.19      0.00
  -21   34   17    -28.07      0.00
  -18   34   17      2.48      0.00
  -15   34   17     -7.21      0.00
  -12   34   17      6.25      0.00
   -9   34   17    -28.48      0.00
   -6   34   17    -11.06      0.00
   -3   34   17     -4.17      0.00
  -32   35   17     -8.30      0.00
  -29   35   17      6.05      0.00
  -26   35   17      2.06      0.00
  -23   35   17    -33.06      0.00
  -20   35   17     -6.67      0.00
  -17   35   17    -17.86      0.00
  -14   35   17     -0.75      0.00
  -11   35   17     12.33      0.00
   -8   35   17      7.49      0.00
   -5   35   17     13.65      0.00
   -2   35   17    -12.59      0.00
  -34   36   17    -11.85      0.00
  -31   36   17     -2.27      0.00
  -28   36   17     -1.36      0.00
  -25   36   17     -7.10      0.00
  -22   36   17     -4.58      0.00
  -19   36   17      8.83      0.00
  -16   36   17    -12.52      0.00
  -13   36   17     -3.65      0.00
  -10   36   17     -2.46      0.00
   -7   36   17      2.40      0.00
   -4   36   17     -5.07      0.00
   -1   36   17    -35.77      0.00
  -36   37   17    -15.40      0.00
  -33   37   17     13.30      0.00
  -30   37   17      7.79      0.00
  -27   37   17     -8.29      0.00
  -24   37   17    -23.96      0.00
  -21   37   17     -9.65      0.00
  -18   37   17     12.68      0.00
  -15   37   17     -4.66      0.00
  -12   37   17      3.16      0.00
   -9   37   17     -8.75      0.00
   -6   37   17      6.88      0.00
   -3   37   17     -5.89      0.00
  -35   38   17      0.34      0.00
  -32   38   17    -27.71      0.00
  -29   38   17      3.90      0.00
  -26   38   17     -3.73      0.00
  -23   38   17     24.63      0.00
  -20   38   17     10.13      0.00
  -17   38   17      2.38      0.00
  -14   38   17    -20.40      0.00
  -11   38   17      6.19      0.00
   -8   38   17    -44.39      0.00
   -5   38   17    -25.24      0.00
   -2   38   17    -20.12      0.00
  -37   39   17    -12.67      0.00
  -34   39   17    -14.06      0.00
  -31   39   17     -2.94      0.00
  -28   39   17     15.17      0.00
  -25   39   17    -11.10      0.00
  -22   39   17    -27.32      0.00
  -19   39   17     -5.31      0.00
  -16   39   17    -22.35      0.00
  -13   39   17      4.29      0.00
  -10   39   17      7.11      0.00
   -7   39   17      2.52      0.00
   -4   39   17      5.61      0.00
  -36   40   17     -7.31      0.00
  -33   40   17     -8.60      0.00
  -30   40   17    -36.19      0.00
  -27   40   17     -8.17      0.00
  -24   40   17      9.15      0.00
  -21   40   17     -4.95      0.00
  -18   40   17      6.19      0.00
  -15   40   17    -10.50      0.00
  -12   40   17     37.53      0.00
   -9   40   17     14.54      0.00
   -6   40   17    -14.24      0.00
  -35   41   17     -7.04      0.00
  -32   41   17    -29.77      0.00
  -29   41   17     -6.94      0.00
  -26   41   17     49.02      0.00
  -23   41   17    -19.93      0.00
  -20   41   17     -1.93      0.00
  -17   41   17    -13.79      0.00
  -14   41   17    -32.63      0.00
  -11   41   17      9.25      0.00
   -8   41   17    -60.82      0.00
  -34   42   17     16.45      0.00
  -31   42   17      3.60      0.00
  -28   42   17      9.28      0.00
  -25   42   17     -4.04      0.00
  -22   42   17     -9.02      0.00
  -19   42   17      9.26      0.00
  -16   42   17     -8.41      0.00
  -13   42   17     41.41      0.00
  -10   42   17      3.88      0.00
  -33   43   17     -3.88      0.00
  -30   43   17     -7.04      0.00
  -27   43   17     29.46      0.00
  -24   43   17    -70.96      0.00
  -21   43   17    -20.67      0.00
  -18   43   17     25.87      0.00
  -15   43   17      6.82      0.00
  -12   43   17     24.37      0.00
   -9   43   17    -25.49      0.00
  -29   44   17     20.70      0.00
  -26   44   17     19.35      0.00
  -17   44   17    -12.51      0.00
  -14   44   17     11.32      0.00
    0    0   18   -184.18      0.00
   -1    2   18    248.56      0.00
   -3    3   18    -37.07      0.00
    0    3   18   -106.91      0.00
   -2    4   18     26.69      0.00
   -4    5   18    358.45      0.00
   -1    5   18    186.78      0.00
   -6    6   18   -214.67      0.00
   -3    6   18     97.42      0.00
    0    6   18    129.02      0.00
   -5    7   18   -100.47      0.00
   -2    7   18     20.05      0.00
   -7    8   18     72.59      0.00
   -4    8   18    126.02      0.00
   -1    8   18    128.31      0.00
   -9    9   18   -215.27      0.00
   -6    9   18    135.00      0.00
   -3    9   18     23.80      0.00
    0    9   18    206.53      0.00
   -8   10   18     42.08      0.00
   -5   10   18    -36.25      0.00
   -2   10   18      6.25      0.00
  -10   11   18     23.73      0.00
   -7   11   18    102.42      0.00
   -4   11   18    134.40      0.00
   -1   11   18     26.73      0.00
  -12   12   18     14.38      0.00
   -9   12   18      2.90      0.00
   -6   12   18    -80.79      0.00
   -3   12   18     76.46      0.00
    0   12   18    -20.99      0.00
  -11   13   18     19.39      0.00
   -8   13   18    -16.98      0.00
   -5   13   18    -70.91      0.00
   -2   13   18     57.48      0.00
  -13   14   18     28.29      0.00
  -10   14   18     22.45      0.00
   -7   14   18    116.91      0.00
   -4   14   18     75.93      0.00
   -1   14   18     46.54      0.00
  -15   15   18     52.74      0.00
  -12   15   18     32.55      0.00
   -9   15   18    -73.23      0.00
   -6   15   18     34.88      0.00
   -3   15   18     10.77      0.00
    0   15   18     -4.99      0.00
  -14   16   18     83.06      0.00
  -11   16   18      2.77      0.00
   -8   16   18    -84.65      0.00
   -5   16   18    -37.93      0.00
   -2   16   18     44.45      0.00
  -16   17   18     32.21      0.00
  -13   17   18     35.36      0.00
  -10   17   18     93.51      0.00
   -7   17   18     19.07      0.00
   -4   17   18     31.29      0.00
   -1   17   18     91.31      0.00
  -18   18   18     37.61      0.00
  -15   18   18      1.64      0.00
  -12   18   18     10.52      0.00
   -9   18   18     40.08      0.00
   -6   18   18      4.38      0.00
   -3   18   18     -0.69      0.00
    0   18   18      6.90      0.00
  -17   19   18     31.60      0.00
  -14   19   18     -4.06      0.00
  -11   19   18     -5.66      0.00
   -8   19   18    -34.17      0.00
   -5   19   18    -27.48      0.00
   -2   19   18     -0.92      0.00
  -19   20   18    -18.69      0.00
  -16   20   18     50.44      0.00
  -13   20   18    -53.37      0.00
  -10   20   18     11.41      0.00
   -7   20   18     21.47      0.00
   -4   20   18     42.42      0.00
   -1   20   18     46.82      0.00
  -21   21   18    -28.16      0.00
  -18   21   18     -0.37      0.00
  -15   21   18     17.44      0.00
  -12   21   18     25.77      0.00
   -9   21   18     54.27      0.00
   -6   21   18     27.76      0.00
   -3   21   18     22.15      0.00
    0   21   18    -54.70      0.00
  -20   22   18     14.60      0.00
  -17   22   18    -12.06      0.00
  -14   22   18     -2.56      0.00
  -11   22   18    -25.98      0.00
   -8   22   18    -10.40      0.00
   -5   22   18      0.17      0.00
   -2   22   18     53.08      0.00
  -22   23   18    -47.05      0.00
  -19   23   18      1.48      0.00
  -16   23   18    -23.99      0.00
  -13   23   18     35.05      0.00
  -10   23   18      2.91      0.00
   -7   23   18     15.70      0.00
   -4   23   18     -8.13      0.00
   -1   23   18     27.46      0.00
  -24   24   18     13.34      0.00
  -21   24   18    -65.97      0.00
  -18   24   18     15.78      0.00
  -15   24   18      2.84      0.00
  -12   24   18     15.15      0.00
   -9   24   18     30.22      0.00
   -6   24   18     28.56      0.00
   -3   24   18     -6.48      0.00
    0   24   18    -22.85      0.00
  -23   25   18     21.39      0.00
  -20   25   18    -22.26      0.00
  -17   25   18     31.16      0.00
  -14   25   18      6.23      0.00
  -11   25   18      5.45      0.00
   -8   25   18    -18.19      0.00
   -5   25   18     -6.46      0.00
   -2   25   18    -35.80      0.00
  -25   26   18      2.35      0.00
  -22   26   18      9.00      0.00
  -19   26   18      8.26      0.00
  -16   26   18      8.88      0.00
  -13   26   18    -10.63      0.00
  -10   26   18    -19.82      0.00
   -7   26   18     -7.49      0.00
   -4   26   18      7.05      0.00
   -1   26   18      2.96      0.00
  -27   27   18    -15.17      0.00
  -24   27   18     26.24      0.00
  -21   27   18     15.32      0.00
  -18   27   18    -12.34      0.00
  -15   27   18      6.56      0.00
  -12   27   18      6.28      0.00
   -9   27   18     21.32      0.00
   -6   27   18    -13.52      0.00
   -3   27   18     34.89      0.00
    0   27   18    -23.12      0.00
  -26   28   18     -3.57      0.00
  -23   28   18     -8.25      0.00
  -20   28   18      2.93      0.00
  -17   28   18      4.56      0.00
  -14   28   18      0.15      0.00
  -11   28   18     34.03      0.00
   -8   28   18    -15.25      0.00
   -5   28   18    -21.27      0.00
   -2   28   18    -14.59      0.00
  -28   29   18    -12.09      0.00
  -25   29   18    -21.00      0.00
  -22   29   18    -28.56      0.00
  -19   29   18     16.91      0.00
  -16   29   18    -21.63      0.00
  -13   29   18     -4.99      0.00
  -10   29   18    -16.74      0.00
   -7   29   18     -7.05      0.00
   -4   29   18     -8.09      0.00
   -1   29   18     18.36      0.00
  -30   30   18     -6.75      0.00
  -27   30   18     22.91      0.00
  -24   30   18     -4.89      0.00
  -21   30   18    -15.39      0.00
  -18   30   18    -15.41      0.00
  -15   30   18    -27.76      0.00
  -12   30   18    -20.33      0.00
   -9   30   18    -20.65      0.00
   -6   30   18     -5.04      0.00
   -3   30   18      2.90      0.00
    0   30   18      7.38      0.00
  -29   31   18     17.62      0.00
  -26   31   18    -43.72      0.00
  -23   31   18      6.37      0.00
  -20   31   18     19.83      0.00
  -17   31   18     36.06      0.00
  -14   31   18    -30.53      0.00
  -11   31   18     12.62      0.00
   -8   31   18    -11.59      0.00
   -5   31   18    -29.92      0.00
   -2   31   18     -8.17      0.00
  -31   32   18    -12.06      0.00
  -28   32   18    -29.62      0.00
  -25   32   18     -0.64      0.00
  -22   32   18      6.63      0.00
  -19   32   18      6.45      0.00
  -16   32   18      3.08      0.00
  -13   32   18     -4.25      0.00
  -10   32   18    -25.70      0.00
   -7   32   18      1.74      0.00
   -4   32   18     22.05      0.00
   -1   32   18     16.24      0.00
  -33   33   18     27.28      0.00
  -30   33   18    -54.82      0.00
  -27   33   18     13.65      0.00
  -24   33   18    -13.46      0.00
  -21   33   18     10.17      0.00
  -18   33   18    -20.39      0.00
  -15   33   18     17.01      0.00
  -12   33   18    -11.67      0.00
   -9   33   18     -7.99      0.00
   -6   33   18      1.11      0.00
   -3   33   18     -2.00      0.00
    0   33   18    -25.52      0.00
  -32   34   18      0.03      0.00
  -29   34   18      0.86      0.00
  -26   34   18     13.39      0.00
  -23   34   18     46.58      0.00
  -20   34   18      4.25      0.00
  -17   34   18      6.60      0.00
  -14   34   18     -9.88      0.00
  -11   34   18     13.67      0.00
   -8   34   18     18.80      0.00
   -5   34   18      0.75      0.00
   -2   34   18     13.83      0.00
  -34   35   18    -14.54      0.00
  -31   35   18    -34.27      0.00
  -28   35   18      2.46      0.00
  -25   35   18     -8.12      0.00
  -22   35   18    -14.51      0.00
  -19   35   18     15.36      0.00
  -16   35   18    -14.81      0.00
  -13   35   18      7.11      0.00
  -10   35   18      5.57      0.00
   -7   35   18     23.14      0.00
   -4   35   18     26.43      0.00
   -1   35   18      8.37      0.00
  -36   36   18     11.43      0.00
  -33   36   18     -1.82      0.00
  -30   36   18     -2.61      0.00
  -27   36   18      6.39      0.00
  -24   36   18      8.54      0.00
  -21   36   18     22.87      0.00
  -18   36   18     20.47      0.00
  -15   36   18     17.29      0.00
  -12   36   18      5.49      0.00
   -9   36   18      8.59      0.00
   -6   36   18      2.85      0.00
   -3   36   18     -1.34      0.00
    0   36   18     -0.38      0.00
  -35   37   18    -10.98      0.00
  -32   37   18    -35.68      0.00
  -29   37   18     35.35      0.00
  -26   37   18     23.79      0.00
  -23   37   18     -4.65      0.00
  -20   37   18     -3.79      0.00
  -17   37   18      8.60      0.00
  -14   37   18      5.20      0.00
  -11   37   18     -8.47      0.00
   -8   37   18      1.93      0.00
   -5   37   18    -22.38      0.00
   -2   37   18    -11.76      0.00
  -37   38   18      5.36      0.00
  -34   38   18    -43.06      0.00
  -31   38   18    -14.58      0.00
  -28   38   18     -4.59      0.00
  -25   38   18    -15.43      0.00
  -22   38   18     19.46      0.00
  -19   38   18     59.21      0.00
  -16   38   18      8.01      0.00
  -13   38   18     16.94      0.00
  -10   38   18    -10.25      0.00
   -7   38   18    -10.92      0.00
   -4   38   18     -4.16      0.00
   -1   38   18    -18.47      0.00
  -36   39   18     -7.51      0.00
  -33   39   18     -9.99      0.00
  -30   39   18     12.87      0.00
  -27   39   18    -16.91      0.00
  -24   39   18     -2.06      0.00
  -21   39   18     44.80      0.00
  -18   39   18     -5.15      0.00
  -15   39   18    -16.90      0.00
  -12   39   18     -5.69      0.00
   -9   39   18     -5.41      0.00
   -6   39   18     48.12      0.00
   -3   39   18      6.35      0.00
  -35   40   18     19.29      0.00
  -32   40   18     30.38      0.00
  -29   40   18     22.36      0.00
  -26   40   18     17.91      0.00
  -23   40   18     29.80      0.00
  -20   40   18    -23.01      0.00
  -17   40   18    -11.43      0.00
  -14   40   18      0.71      0.00
  -11   40   18    -23.07      0.00
   -8   40   18     10.36      0.00
   -5   40   18    -22.16      0.00
  -34   41   18     -0.75      0.00
  -31   41   18    -29.87      0.00
  -28   41   18     -6.99      0.00
  -25   41   18     -3.56      0.00
  -22   41   18     -5.15      0.00
  -19   41   18     34.81      0.00
  -16   41   18     -8.60      0.00
  -13   41   18      3.39      0.00
  -10   41   18    -48.53      0.00
   -7   41   18     -8.13      0.00
  -33   42   18     27.50      0.00
  -30   42   18     13.07      0.00
  -27   42   18    -34.23      0.00
  -24   42   18     -4.83      0.00
  -21   42   18     -4.12      0.00
  -18   42   18     -5.16      0.00
  -15   42   18     15.56      0.00
  -12   42   18      7.39      0.00
   -9   42   18      3.22      0.00
  -32   43   18     -7.54      0.00
  -29   43   18    -23.66      0.00
  -26   43   18     25.82      0.00
  -23   43   18     36.26      0.00
  -20   43   18    -12.93      0.00
  -17   43   18     40.22      0.00
  -14   43   18     37.09      0.00
  -11   43   18      0.48      0.00
  -31   44   18     10.86      0.00
  -28   44   18     12.81      0.00
  -19   44   18     11.87      0.00
  -16   44   18    -41.37      0.00
   -2    3   19   -173.52      0.00
   -1    4   19     60.79      0.00
   -3    5   19     56.31      0.00
   -5    6   19    118.94      0.00
   -2    6   19    -53.76      0.00
   -4    7   19    303.01      0.00
   -1    7   19    133.99      0.00
   -6    8   19     54.13      0.00
   -3    8   19    104.06      0.00
   -8    9   19     55.33      0.00
   -5    9   19     32.47      0.00
   -2    9   19    -91.08      0.00
   -7   10   19    -83.81      0.00
   -4   10   19     95.88      0.00
   -1   10   19     90.45      0.00
   -9   11   19      6.70      0.00
   -6   11   19    -38.19      0.00
   -3   11   19    -49.01      0.00
  -11   12   19    -12.27      0.00
   -8   12   19     72.71      0.00
   -5   12   19    -24.55      0.00
   -2   12   19     56.28      0.00
  -10   13   19     24.99      0.00
   -7   13   19      2.50      0.00
   -4   13   19     67.70      0.00
   -1   13   19     39.98      0.00
  -12   14   19     70.50      0.00
   -9   14   19     31.29      0.00
   -6   14   19    126.58      0.00
   -3   14   19     90.58      0.00
  -14   15   19      1.76      0.00
  -11   15   19     39.52      0.00
   -8   15   19    -92.70      0.00
   -5   15   19    -23.21      0.00
   -2   15   19     -9.97      0.00
  -13   16   19    -23.01      0.00
  -10   16   19     23.49      0.00
   -7   16   19    -12.99      0.00
   -4   16   19     42.95      0.00
   -1   16   19     68.80      0.00
  -15   17   19    -48.88      0.00
  -12   17   19     -5.69      0.00
   -9   17   19     25.10      0.00
   -6   17   19      4.03      0.00
   -3   17   19      6.52      0.00
  -17   18   19      3.51      0.00
  -14   18   19    -11.78      0.00
  -11   18   19    -28.24      0.00
   -8   18   19    -34.75      0.00
   -5   18   19     -8.40      0.00
   -2   18   19     -2.98      0.00
  -16   19   19    -16.31      0.00
  -13   19   19    -10.48      0.00
  -10   19   19    -52.38      0.00
   -7   19   19    -21.57      0.00
   -4   19   19    -54.88      0.00
   -1   19   19      5.24      0.00
  -18   20   19     20.55      0.00
  -15   20   19    -29.50      0.00
  -12   20   19     41.88      0.00
   -9   20   19     12.77      0.00
   -6   20   19     32.01      0.00
   -3   20   19     45.02      0.00
  -20   21   19     15.30      0.00
  -17   21   19     10.66      0.00
  -14   21   19     -7.79      0.00
  -11   21   19    -15.28      0.00
   -8   21   19    -14.97      0.00
   -5   21   19    -10.19      0.00
   -2   21   19     -4.45      0.00
  -19   22   19     16.16      0.00
  -16   22   19     19.21      0.00
  -13   22   19     11.16      0.00
  -10   22   19      3.38      0.00
   -7   22   19    -21.25      0.00
   -4   22   19     13.02      0.00
   -1   22   19     19.50      0.00
  -21   23   19     17.10      0.00
  -18   23   19     -8.09      0.00
  -15   23   19    -14.40      0.00
  -12   23   19     -5.31      0.00
   -9   23   19     40.52      0.00
   -6   23   19     39.66      0.00
   -3   23   19     42.46      0.00
  -23   24   19    -14.50      0.00
  -20   24   19     12.10      0.00
  -17   24   19     44.11      0.00
  -14   24   19     27.58      0.00
  -11   24   19     35.95      0.00
   -8   24   19     13.63      0.00
   -5   24   19      7.19      0.00
   -2   24   19    -18.25      0.00
  -22   25   19     13.25      0.00
  -19   25   19     37.61      0.00
  -16   25   19     20.19      0.00
  -13   25   19     21.06      0.00
  -10   25   19    -40.11      0.00
   -7   25   19    -35.65      0.00
   -4   25   19     -9.36      0.00
   -1   25   19      0.83      0.00
  -24   26   19     14.56      0.00
  -21   26   19      6.36      0.00
  -18   26   19     -2.79      0.00
  -15   26   19    -21.71      0.00
  -12   26   19     10.90      0.00
   -9   26   19     30.87      0.00
   -6   26   19     19.04      0.00
   -3   26   19     13.19      0.00
  -26   27   19     -4.53      0.00
  -23   27   19    -13.03      0.00
  -20   27   19      1.09      0.00
  -17   27   19    -18.27      0.00
  -14   27   19     13.76      0.00
  -11   27   19      2.68      0.00
   -8   27   19     21.83      0.00
   -5   27   19     -0.19      0.00
   -2   27   19    -17.64      0.00
  -25   28   19     12.12      0.00
  -22   28   19    -17.92      0.00
  -19   28   19    -30.18      0.00
  -16   28   19      9.31      0.00
  -13   28   19     32.12      0.00
  -10   28   19     -7.21      0.00
   -7   28   19     -4.94      0.00
   -4   28   19    -19.04      0.00
   -1   28   19      8.43      0.00
  -27   29   19    -23.21      0.00
  -24   29   19      8.52      0.00
  -21   29   19      2.13      0.00
  -18   29   19      2.56      0.00
  -15   29   19    -19.04      0.00
  -12   29   19      9.96      0.00
   -9   29   19     19.12      0.00
   -6   29   19      5.50      0.00
   -3   29   19    -10.53      0.00
  -29   30   19      9.94      0.00
  -26   30   19    -10.09      0.00
  -23   30   19     -0.44      0.00
  -20   30   19     -0.04      0.00
  -17   30   19     14.96      0.00
  -14   30   19     17.55      0.00
  -11   30   19     23.74      0.00
   -8   30   19     34.61      0.00
   -5   30   19      0.37      0.00
   -2   30   19    -15.90      0.00
  -28   31   19     -3.54      0.00
  -25   31   19    -18.16      0.00
  -22   31   19    -19.47      0.00
  -19   31   19    -15.04      0.00
  -16   31   19     20.82      0.00
  -13   31   19     10.35      0.00
  -10   31   19     12.90      0.00
   -7   31   19    -11.36      0.00
   -4   31   19      2.20      0.00
   -1   31   19      4.27      0.00
  -30   32   19     -3.55      0.00
  -27   32   19     -7.36      0.00
  -24   32   19     11.87      0.00
  -21   32   19     -2.46      0.00
  -18   32   19    -12.26      0.00
  -15   32   19     -6.88      0.00
  -12   32   19     25.93      0.00
   -9   32   19      6.32      0.00
   -6   32   19    -16.89      0.00
   -3   32   19     20.96      0.00
  -32   33   19    -30.97      0.00
  -29   33   19     13.91      0.00
  -26   33   19    -22.51      0.00
  -23   33   19     -0.99      0.00
  -20   33   19     -1.17      0.00
  -17   33   19    -16.25      0.00
  -14   33   19      2.22      0.00
  -11   33   19     -7.60      0.00
   -8   33   19      6.32      0.00
   -5   33   19      4.74      0.00
   -2   33   19     -3.64      0.00
  -31   34   19     -4.68      0.00
  -28   34   19     -9.10      0.00
  -25   34   19    -27.79      0.00
  -22   34   19     -0.89      0.00
  -19   34   19     -2.25      0.00
  -16   34   19    -10.74      0.00
  -13   34   19     -0.28      0.00
  -10   34   19     -7.81      0.00
   -7   34   19     -6.98      0.00
   -4   34   19      7.07      0.00
   -1   34   19     18.15      0.00
  -33   35   19     33.58      0.00
  -30   35   19    -10.18      0.00
  -27   35   19    -10.40      0.00
  -24   35   19      5.90      0.00
  -21   35   19     12.49      0.00
  -18   35   19     -0.22      0.00
  -15   35   19    -13.77      0.00
  -12   35   19     31.62      0.00
   -9   35   19      8.87      0.00
   -6   35   19     17.61      0.00
   -3   35   19      7.35      0.00
  -35   36   19     11.48      0.00
  -32   36   19    -17.56      0.00
  -29   36   19     -0.88      0.00
  -26   36   19     13.92      0.00
  -23   36   19     22.53      0.00
  -20   36   19      9.64      0.00
  -17   36   19     15.66      0.00
  -14   36   19     -8.60      0.00
  -11   36   19     18.09      0.00
   -8   36   19     24.77      0.00
   -5   36   19    -42.09      0.00
   -2   36   19    -25.21      0.00
  -34   37   19     -3.85      0.00
  -31   37   19     22.33      0.00
  -28   37   19      2.08      0.00
  -25   37   19      8.18      0.00
  -22   37   19     -4.95      0.00
  -19   37   19     18.09      0.00
  -16   37   19      4.19      0.00
  -13   37   19    -22.81      0.00
  -10   37   19     15.86      0.00
   -7   37   19      7.56      0.00
   -4   37   19     -0.25      0.00
   -1   37   19     11.57      0.00
  -36   38   19     -8.78      0.00
  -33   38   19     31.13      0.00
  -30   38   19     30.22      0.00
  -27   38   19     43.02      0.00
  -24   38   19     -3.20      0.00
  -21   38   19     22.01      0.00
  -18   38   19    -22.71      0.00
  -15   38   19     -1.13      0.00
  -12   38   19    -13.48      0.00
   -9   38   19     33.56      0.00
   -6   38   19     -2.61      0.00
   -3   38   19     27.59      0.00
  -35   39   19     32.98      0.00
  -32   39   19    -23.06      0.00
  -29   39   19     -9.64      0.00
  -26   39   19     10.40      0.00
  -23   39   19      8.96      0.00
  -20   39   19    -10.85      0.00
  -17   39   19    -26.08      0.00
  -14   39   19    -31.95      0.00
  -11   39   19    -20.82      0.00
   -8   39   19     34.45      0.00
   -5   39   19     23.10      0.00
  -34   40   19     25.83      0.00
  -31   40   19      8.02      0.00
  -28   40   19     -3.65      0.00
  -25   40   19    -29.76      0.00
  -22   40   19    -82.18      0.00
  -19   40   19     -4.78      0.00
  -16   40   19    -30.94      0.00
  -13   40   19    -14.19      0.00
  -10   40   19     17.61      0.00
   -7   40   19     -2.23      0.00
   -4   40   19     -7.01      0.00
  -33   41   19     -7.32      0.00
  -30   41   19    -16.75      0.00
  -27   41   19     -8.89      0.00
  -24   41   19    -42.82      0.00
  -21   41   19      2.54      0.00
  -18   41   19     27.83      0.00
  -15   41   19    -12.83      0.00
  -12   41   19     27.67      0.00
   -9   41   19    -10.86      0.00
   -6   41   19     17.31      0.00
  -35   42   19     39.22      0.00
  -32   42   19     32.20      0.00
  -29   42   19    -18.06      0.00
  -26   42   19     -4.72      0.00
  -23   42   19    -19.03      0.00
  -20   42   19     13.21      0.00
  -17   42   19    -36.50      0.00
  -14   42   19      7.41      0.00
  -11   42   19     42.77      0.00
   -8   42   19     13.96      0.00
  -34   43   19     30.44      0.00
  -31   43   19     17.31      0.00
  -28   43   19      2.89      0.00
  -25   43   19     15.73      0.00
  -22   43   19    -33.60      0.00
  -19   43   19     26.00      0.00
  -16   43   19      1.83      0.00
  -13   43   19     20.40      0.00
  -10   43   19    -19.18      0.00
  -30   44   19     -4.84      0.00
  -27   44   19      6.62      0.00
  -15   44   19    -28.29      0.00
  -12   44   19     -7.33      0.00
    0    1   20    162.13      0.00
   -2    2   20   -107.94      0.00
   -1    3   20   -212.80      0.00
   -3    4   20   -112.81      0.00
    0    4   20    -60.43      0.00
   -5    5   20     81.84      0.00
   -2    5   20    209.66      0.00
   -4    6   20    -48.10      0.00
   -1    6   20    128.49      0.00
   -6    7   20    130.77      0.00
   -3    7   20    120.90      0.00
    0    7   20     33.95      0.00
   -8    8   20    -65.54      0.00
   -5    8   20    133.84      0.00
   -2    8   20      9.30      0.00
   -7    9   20     -0.22      0.00
   -4    9   20     44.91      0.00
   -1    9   20    -66.36      0.00
   -9   10   20     69.74      0.00
   -6   10   20     19.55      0.00
   -3   10   20     88.13      0.00
    0   10   20     13.18      0.00
  -11   11   20    -29.50      0.00
   -8   11   20     82.37      0.00
   -5   11   20    -28.01      0.00
   -2   11   20     53.28      0.00
  -10   12   20     21.15      0.00
   -7   12   20     99.88      0.00
   -4   12   20    -56.34      0.00
   -1   12   20    -30.85      0.00
  -12   13   20     -0.70      0.00
   -9   13   20     -7.52      0.00
   -6   13   20    147.84      0.00
   -3   13   20     53.20      0.00
    0   13   20     44.85      0.00
  -14   14   20     19.39      0.00
  -11   14   20     26.30      0.00
   -8   14   20     45.41      0.00
   -5   14   20    -21.76      0.00
   -2   14   20      4.00      0.00
  -13   15   20     12.45      0.00
  -10   15   20     33.56      0.00
   -7   15   20     18.81      0.00
   -4   15   20      2.43      0.00
   -1   15   20    -13.13      0.00
  -15   16   20    -64.58      0.00
  -12   16   20    -20.72      0.00
   -9   16   20    -24.35      0.00
   -6   16   20     12.01      0.00
   -3   16   20    101.72      0.00
    0   16   20     66.10      0.00
  -17   17   20    -19.47      0.00
  -14   17   20     53.07      0.00
  -11   17   20     23.04      0.00
   -8   17   20     41.74      0.00
   -5   17   20    -27.10      0.00
   -2   17   20     19.69      0.00
  -16   18   20    -10.12      0.00
  -13   18   20     -9.62      0.00
  -10   18   20    -13.86      0.00
   -7   18   20    -35.59      0.00
   -4   18   20    -13.13      0.00
   -1   18   20    -21.19      0.00
  -18   19   20    -15.52      0.00
  -15   19   20     -0.94      0.00
  -12   19   20      7.79      0.00
   -9   19   20     -5.56      0.00
   -6   19   20     30.97      0.00
   -3   19   20     36.87      0.00
    0   19   20    -45.77      0.00
  -20   20   20     47.76      0.00
  -17   20   20    -22.54      0.00
  -14   20   20     50.79      0.00
  -11   20   20     31.50      0.00
   -8   20   20    -24.14      0.00
   -5   20   20     13.22      0.00
   -2   20   20     40.20      0.00
  -19   21   20     37.51      0.00
  -16   21   20     -6.67      0.00
  -13   21   20     41.07      0.00
  -10   21   20     47.85      0.00
   -7   21   20      5.20      0.00
   -4   21   20     -7.30      0.00
   -1   21   20     35.82      0.00
  -21   22   20    -12.89      0.00
  -18   22   20     37.53      0.00
  -15   22   20    -29.10      0.00
  -12   22   20     -5.13      0.00
   -9   22   20     15.51      0.00
   -6   22   20     38.58      0.00
   -3   22   20     27.24      0.00
    0   22   20     49.47      0.00
  -23   23   20    -18.62      0.00
  -20   23   20      6.53      0.00
  -17   23   20     19.27      0.00
  -14   23   20     59.09      0.00
  -11   23   20      1.57      0.00
   -8   23   20     -5.43      0.00
   -5   23   20      5.13      0.00
   -2   23   20     -4.81      0.00
  -22   24   20     -2.96      0.00
  -19   24   20     -2.25      0.00
  -16   24   20      1.31      0.00
  -13   24   20    -11.62      0.00
  -10   24   20     20.26      0.00
   -7   24   20    -12.04      0.00
   -4   24   20    -21.84      0.00
   -1   24   20     -2.42      0.00
  -24   25   20    -21.76      0.00
  -21   25   20      5.70      0.00
  -18   25   20     47.11      0.00
  -15   25   20     11.53      0.00
  -12   25   20    -22.97      0.00
   -9   25   20    -24.60      0.00
   -6   25   20    -34.28      0.00
   -3   25   20      8.61      0.00
    0   25   20    -20.93      0.00
  -26   26   20     15.31      0.00
  -23   26   20      3.33      0.00
  -20   26   20    -22.71      0.00
  -17   26   20    -22.94      0.00
  -14   26   20    -30.92      0.00
  -11   26   20    -10.70      0.00
   -8   26   20      1.33      0.00
   -5   26   20     19.65      0.00
   -2   26   20     26.08      0.00
  -25   27   20     -7.39      0.00
  -22   27   20     -9.38      0.00
  -19   27   20     -6.57      0.00
  -16   27   20     -1.14      0.00
  -13   27   20     50.31      0.00
  -10   27   20     16.15      0.00
   -7   27   20      3.63      0.00
   -4   27   20    -11.82      0.00
   -1   27   20     -1.63      0.00
  -27   28   20    -24.02      0.00
  -24   28   20    -12.49      0.00
  -21   28   20    -13.76      0.00
  -18   28   20     -8.35      0.00
  -15   28   20    -14.33      0.00
  -12   28   20    -15.97      0.00
   -9   28   20      9.57      0.00
   -6   28   20      2.86      0.00
   -3   28   20      2.62      0.00
    0   28   20     -5.81      0.00
  -29   29   20     14.65      0.00
  -26   29   20     10.78      0.00
  -23   29   20    -17.16      0.00
  -20   29   20      6.38      0.00
  -17   29   20      2.51      0.00
  -14   29   20      7.19      0.00
  -11   29   20     19.81      0.00
   -8   29   20    -17.04      0.00
   -5   29   20     30.40      0.00
   -2   29   20    -25.23      0.00
  -28   30   20     22.53      0.00
  -25   30   20      1.56      0.00
  -22   30   20     18.22      0.00
  -19   30   20    -13.33      0.00
  -16   30   20     -1.07      0.00
  -13   30   20      9.29      0.00
  -10   30   20     17.65      0.00
   -7   30   20      0.68      0.00
   -4   30   20     -2.61      0.00
   -1   30   20    -11.01      0.00
  -30   31   20     13.25      0.00
  -27   31   20    -19.53      0.00
  -24   31   20      7.64      0.00
  -21   31   20     30.37      0.00
  -18   31   20     -2.60      0.00
  -15   31   20      5.87      0.00
  -12   31   20    -29.17      0.00
   -9   31   20     16.56      0.00
   -6   31   20    -20.64      0.00
   -3   31   20     -2.19      0.00
    0   31   20    -10.37      0.00
  -32   32   20    -14.71      0.00
  -29   32   20     19.49      0.00
  -26   32   20     14.54      0.00
  -23   32   20    -11.01      0.00
  -20   32   20    -28.53      0.00
  -17   32   20     -8.46      0.00
  -14   32   20    -20.40      0.00
  -11   32   20     -4.83      0.00
   -8   32   20     -6.18      0.00
   -5   32   20     -9.38      0.00
   -2   32   20     14.39      0.00
  -31   33   20      6.65      0.00
  -28   33   20     -2.94      0.00
  -25   33   20     14.22      0.00
  -22   33   20     -2.47      0.00
  -19   33   20     16.48      0.00
  -16   33   20     -6.19      0.00
  -13   33   20     17.49      0.00
  -10   33   20      1.70      0.00
   -7   33   20      2.20      0.00
   -4   33   20    -19.31      0.00
   -1   33   20     10.51      0.00
  -33   34   20     35.43      0.00
  -30   34   20    -25.89      0.00
  -27   34   20     15.66      0.00
  -24   34   20      5.96      0.00
  -21   34   20     12.67      0.00
  -18   34   20     -5.91      0.00
  -15   34   20    -11.32      0.00
  -12   34   20     33.11      0.00
   -9   34   20     14.59      0.00
   -6   34   20     -9.97      0.00
   -3   34   20     -3.17      0.00
    0   34   20    -11.42      0.00
  -35   35   20     47.31      0.00
  -32   35   20     13.60      0.00
  -29   35   20     29.08      0.00
  -26   35   20      2.05      0.00
  -23   35   20     -3.06      0.00
  -20   35   20      4.44      0.00
  -17   35   20     10.55      0.00
  -14   35   20    -27.81      0.00
  -11   35   20     13.97      0.00
   -8   35   20     -1.15      0.00
   -5   35   20     13.84      0.00
   -2   35   20      5.39      0.00
  -34   36   20     -1.00      0.00
  -31   36   20     -1.26      0.00
  -28   36   20     21.78      0.00
  -25   36   20     14.73      0.00
  -22   36   20      6.35      0.00
  -19   36   20    -17.01      0.00
  -16   36   20     14.40      0.00
  -13   36   20      5.06      0.00
  -10   36   20      9.49      0.00
   -7   36   20     -7.22      0.00
   -4   36   20     -7.56      0.00
   -1   36   20      7.87      0.00
  -36   37   20    -24.34      0.00
  -33   37   20    -38.03      0.00
  -30   37   20     -0.90      0.00
  -27   37   20      2.00      0.00
  -24   37   20     20.74      0.00
  -21   37   20     14.87      0.00
  -18   37   20     23.62      0.00
  -15   37   20      0.51      0.00
  -12   37   20      3.65      0.00
   -9   37   20    -16.57      0.00
   -6   37   20     15.74      0.00
   -3   37   20     14.74      0.00
    0   37   20     10.58      0.00
  -35   38   20     15.17      0.00
  -32   38   20     28.03      0.00
  -29   38   20    -21.58      0.00
  -26   38   20     -0.51      0.00
  -23   38   20     25.65      0.00
  -20   38   20     -7.80      0.00
  -17   38   20    -25.28      0.00
  -14   38   20    -16.77      0.00
  -11   38   20     -3.67      0.00
   -8   38   20      1.04      0.00
   -5   38   20     19.50      0.00
   -2   38   20     11.10      0.00
  -34   39   20    -37.38      0.00
  -31   39   20    -17.41      0.00
  -28   39   20     18.32      0.00
  -25   39   20     -9.90      0.00
  -22   39   20     10.67      0.00
  -19   39   20     20.59      0.00
  -16   39   20    -10.33      0.00
  -13   39   20     -3.08      0.00
  -10   39   20     -4.05      0.00
   -7   39   20     -8.87      0.00
   -4   39   20     22.62      0.00
  -36   40   20     -6.65      0.00
  -33   40   20      6.99      0.00
  -30   40   20    -22.96      0.00
  -27   40   20     47.95      0.00
  -24   40   20      7.03      0.00
  -21   40   20     22.21      0.00
  -18   40   20    -24.30      0.00
  -15   40   20      9.41      0.00
  -12   40   20    -12.48      0.00
   -9   40   20     24.58      0.00
   -6   40   20    -21.94      0.00
  -35   41   20    -11.84      0.00
  -32   41   20    -27.89      0.00
  -29   41   20     19.51      0.00
  -26   41   20     38.99      0.00
  -23   41   20     30.33      0.00
  -20   41   20    -12.69      0.00
  -17   41   20     19.09      0.00
  -14   41   20     -7.36      0.00
  -11   41   20     -5.25      0.00
   -8   41   20     24.44      0.00
  -34   42   20     17.78      0.00
  -31   42   20    -14.60      0.00
  -28   42   20     35.79      0.00
  -25   42   20     38.04      0.00
  -22   42   20    -28.40      0.00
  -19   42   20      2.00      0.00
  -16   42   20      6.00      0.00
  -13   42   20     14.38      0.00
  -10   42   20     38.17      0.00
  -33   43   20    -41.58      0.00
  -30   43   20     -6.26      0.00
  -27   43   20      4.65      0.00
  -24   43   20      2.83      0.00
  -21   43   20     47.26      0.00
  -18   43   20     16.20      0.00
  -15   43   20    -22.15      0.00
  -12   43   20    -15.37      0.00
   -9   43   20    -13.49      0.00
  -29   44   20     26.92      0.00
  -17   44   20    -31.75      0.00
  -14   44   20      7.19      0.00
   -1    2   21   -144.25      0.00
   -2    4   21    113.60      0.00
   -4    5   21    151.94      0.00
   -1    5   21   -133.48      0.00
   -3    6   21    146.51      0.00
   -5    7   21    -29.05      0.00
   -2    7   21   -121.82      0.00
   -7    8   21     44.50      0.00
   -4    8   21     41.89      0.00
   -1    8   21     36.60      0.00
   -6    9   21    -70.99      0.00
   -3    9   21    -72.86      0.00
   -8   10   21     12.62      0.00
   -5   10   21    -38.82      0.00
   -2   10   21    -63.99      0.00
  -10   11   21    -30.81      0.00
   -7   11   21    -28.16      0.00
   -4   11   21      9.95      0.00
   -1   11   21      6.56      0.00
   -9   12   21   -122.97      0.00
   -6   12   21    -29.00      0.00
   -3   12   21    -73.00      0.00
  -11   13   21     55.19      0.00
   -8   13   21     24.66      0.00
   -5   13   21     52.97      0.00
   -2   13   21     19.33      0.00
  -13   14   21    -55.94      0.00
  -10   14   21     42.49      0.00
   -7   14   21     -1.67      0.00
   -4   14   21    101.58      0.00
   -1   14   21     12.85      0.00
  -12   15   21     18.81      0.00
   -9   15   21    -80.34      0.00
   -6   15   21    -74.30      0.00
   -3   15   21    -60.49      0.00
  -14   16   21     51.51      0.00
  -11   16   21    -23.13      0.00
   -8   16   21     99.14      0.00
   -5   16   21     44.78      0.00
   -2   16   21     38.93      0.00
  -16   17   21      7.99      0.00
  -13   17   21     -1.85      0.00
  -10   17   21    -38.96      0.00
   -7   17   21     25.18      0.00
   -4   17   21      3.67      0.00
   -1   17   21    -53.41      0.00
  -15   18   21     -0.19      0.00
  -12   18   21    -12.40      0.00
   -9   18   21    -56.16      0.00
   -6   18   21    -20.01      0.00
   -3   18   21     11.04      0.00
  -17   19   21    -16.56      0.00
  -14   19   21     -1.91      0.00
  -11   19   21     17.08      0.00
   -8   19   21     14.41      0.00
   -5   19   21     11.46      0.00
   -2   19   21     38.07      0.00
  -19   20   21      4.53      0.00
  -16   20   21     12.47      0.00
  -13   20   21     26.07      0.00
  -10   20   21     38.78      0.00
   -7   20   21     44.38      0.00
   -4   20   21     16.82      0.00
   -1   20   21    -20.94      0.00
  -18   21   21     -1.63      0.00
  -15   21   21     13.73      0.00
  -12   21   21      1.14      0.00
   -9   21   21    -27.39      0.00
   -6   21   21      0.65      0.00
   -3   21   21     16.76      0.00
  -20   22   21     21.44      0.00
  -17   22   21    -50.42      0.00
  -14   22   21     -0.18      0.00
  -11   22   21    -18.74      0.00
   -8   22   21    -23.53      0.00
   -5   22   21     37.32      0.00
   -2   22   21    -10.09      0.00
  -22   23   21      3.72      0.00
  -19   23   21      5.16      0.00
  -16   23   21      4.44      0.00
  -13   23   21      1.58      0.00
  -10   23   21    -26.75      0.00
   -7   23   21     -0.73      0.00
   -4   23   21    -18.51      0.00
   -1   23   21     -7.27      0.00
  -21   24   21     -6.56      0.00
  -18   24   21     -9.31      0.00
  -15   24   21     10.48      0.00
  -12   24   21    -16.45      0.00
   -9   24   21      4.42      0.00
   -6   24   21     -8.64      0.00
   -3   24   21     -4.18      0.00
  -23   25   21     -2.84      0.00
  -20   25   21     -3.72      0.00
  -17   25   21    -12.51      0.00
  -14   25   21     -3.89      0.00
  -11   25   21    -25.81      0.00
   -8   25   21      0.43      0.00
   -5   25   21     -5.54      0.00
   -2   25   21     20.08      0.00
  -25   26   21     11.23      0.00
  -22   26   21     -9.29      0.00
  -19   26   21    -17.74      0.00
  -16   26   21    -18.50      0.00
  -13   26   21    -15.07      0.00
  -10   26   21    -14.37      0.00
   -7   26   21     10.51      0.00
   -4   26   21      9.24      0.00
   -1   26   21     11.58      0.00
  -24   27   21     -1.95      0.00
  -21   27   21    -23.91      0.00
  -18   27   21     -3.71      0.00
  -15   27   21    -22.28      0.00
  -12   27   21      8.36      0.00
   -9   27   21    -18.57      0.00
   -6   27   21     -2.28      0.00
   -3   27   21      5.20      0.00
  -26   28   21     10.79      0.00
  -23   28   21     14.52      0.00
  -20   28   21      8.62      0.00
  -17   28   21     20.41      0.00
  -14   28   21    -15.26      0.00
  -11   28   21      2.35      0.00
   -8   28   21    -31.15      0.00
   -5   28   21      9.73      0.00
   -2   28   21     -6.25      0.00
  -28   29   21    -17.94      0.00
  -25   29   21      6.85      0.00
  -22   29   21     29.99      0.00
  -19   29   21     15.68      0.00
  -16   29   21     -0.82      0.00
  -13   29   21      3.52      0.00
  -10   29   21     18.54      0.00
   -7   29   21     -1.86      0.00
   -4   29   21     26.55      0.00
   -1   29   21      5.62      0.00
  -27   30   21     15.36      0.00
  -24   30   21      4.94      0.00
  -21   30   21     24.34      0.00
  -18   30   21     10.48      0.00
  -15   30   21     18.76      0.00
  -12   30   21     -4.34      0.00
   -9   30   21      5.34      0.00
   -6   30   21    -24.03      0.00
   -3   30   21     25.05      0.00
  -29   31   21     11.32      0.00
  -26   31   21     -8.63      0.00
  -23   31   21      6.13      0.00
  -20   31   21     15.39      0.00
  -17   31   21    -23.03      0.00
  -14   31   21      7.82      0.00
  -11   31   21    -13.80      0.00
   -8   31   21     -3.90      0.00
   -5   31   21     -9.63      0.00
   -2   31   21      8.50      0.00
  -31   32   21     14.90      0.00
  -28   32   21     11.89      0.00
  -25   32   21      0.25      0.00
  -22   32   21      4.34      0.00
  -19   32   21    -26.21      0.00
  -16   32   21     -5.94      0.00
  -13   32   21      8.49      0.00
  -10   32   21     -3.99      0.00
   -7   32   21      1.19      0.00
   -4   32   21      1.80      0.00
   -1   32   21    -31.37      0.00
  -30   33   21      8.50      0.00
  -27   33   21     16.33      0.00
  -24   33   21      3.27      0.00
  -21   33   21     14.30      0.00
  -18   33   21     15.90      0.00
  -15   33   21      1.79      0.00
  -12   33   21     -5.29      0.00
   -9   33   21    -20.15      0.00
   -6   33   21     13.57      0.00
   -3   33   21     20.31      0.00
  -32   34   21     -6.77      0.00
  -29   34   21     12.72      0.00
  -26   34   21     12.52      0.00
  -23   34   21      9.99      0.00
  -20   34   21     -5.32      0.00
  -17   34   21    -17.95      0.00
  -14   34   21    -31.13      0.00
  -11   34   21     14.11      0.00
   -8   34   21    -14.46      0.00
   -5   34   21    -31.59      0.00
   -2   34   21      5.45      0.00
  -34   35   21    -20.97      0.00
  -31   35   21     -6.74      0.00
  -28   35   21     -4.63      0.00
  -25   35   21     10.19      0.00
  -22   35   21    -18.85      0.00
  -19   35   21     23.55      0.00
  -16   35   21      8.22      0.00
  -13   35   21      6.89      0.00
  -10   35   21    -11.43      0.00
   -7   35   21      6.96      0.00
   -4   35   21    -15.15      0.00
   -1   35   21    -14.53      0.00
  -33   36   21      1.49      0.00
  -30   36   21      1.32      0.00
  -27   36   21     23.62      0.00
  -24   36   21     26.78      0.00
  -21   36   21     23.06      0.00
  -18   36   21    -11.64      0.00
  -15   36   21      3.70      0.00
  -12   36   21     30.32      0.00
   -9   36   21     20.40      0.00
   -6   36   21    -16.01      0.00
   -3   36   21      1.98      0.00
  -35   37   21     10.65      0.00
  -32   37   21    -41.79      0.00
  -29   37   21     46.46      0.00
  -26   37   21     -6.86      0.00
  -23   37   21     13.02      0.00
  -20   37   21     36.76      0.00
  -17   37   21     16.80      0.00
  -14   37   21     -3.97      0.00
  -11   37   21    -22.53      0.00
   -8   37   21     -3.72      0.00
   -5   37   21    -15.70      0.00
   -2   37   21      8.26      0.00
  -37   38   21     25.13      0.00
  -34   38   21      3.62      0.00
  -31   38   21     44.22      0.00
  -28   38   21     31.31      0.00
  -25   38   21     -5.19      0.00
  -22   38   21     -5.77      0.00
  -19   38   21      7.88      0.00
  -16   38   21     -7.26      0.00
  -13   38   21     15.16      0.00
  -10   38   21    -12.48      0.00
   -7   38   21      7.66      0.00
   -4   38   21      2.22      0.00
   -1   38   21     19.89      0.00
  -33   39   21      1.78      0.00
  -30   39   21    -21.33      0.00
  -27   39   21      8.61      0.00
  -24   39   21      1.24      0.00
  -21   39   21     39.45      0.00
  -18   39   21      4.33      0.00
  -15   39   21    -35.85      0.00
  -12   39   21     18.90      0.00
   -9   39   21    -17.47      0.00
   -6   39   21     -4.92      0.00
   -3   39   21     11.95      0.00
  -35   40   21     10.90      0.00
  -32   40   21      2.55      0.00
  -29   40   21    -18.00      0.00
  -26   40   21    -18.44      0.00
  -23   40   21     -5.48      0.00
  -20   40   21      7.38      0.00
  -17   40   21    -13.97      0.00
  -14   40   21     -6.27      0.00
  -11   40   21     -9.66      0.00
   -8   40   21      3.14      0.00
   -5   40   21    -12.59      0.00
  -34   41   21     -1.48      0.00
  -31   41   21    -31.76      0.00
  -28   41   21    -38.23      0.00
  -25   41   21      4.49      0.00
  -22   41   21    -28.31      0.00
  -19   41   21     21.05      0.00
  -16   41   21     -5.35      0.00
  -13   41   21    -30.97      0.00
  -10   41   21      2.18      0.00
   -7   41   21     39.67      0.00
  -33   42   21     24.67      0.00
  -30   42   21     -2.10      0.00
  -27   42   21      8.10      0.00
  -24   42   21      1.32      0.00
  -21   42   21      5.06      0.00
  -18   42   21    -16.63      0.00
  -15   42   21    -12.68      0.00
  -12   42   21    -12.93      0.00
   -9   42   21    -39.24      0.00
  -29   43   21     19.36      0.00
  -26   43   21     -1.49      0.00
  -23   43   21     61.89      0.00
  -20   43   21     38.83      0.00
  -17   43   21     10.83      0.00
  -14   43   21     -9.45      0.00
  -11   43   21    -17.54      0.00
  -31   44   21     -6.43      0.00
  -19   44   21    -38.25      0.00
  -16   44   21    -26.97      0.00
  -13   44   21     -7.62      0.00
   -1    1   22    145.68      0.00
    0    2   22    -76.31      0.00
   -2    3   22   -104.18      0.00
   -4    4   22     79.57      0.00
   -1    4   22    204.89      0.00
   -3    5   22   -112.07      0.00
    0    5   22     -4.64      0.00
   -5    6   22     28.82      0.00
   -2    6   22     81.15      0.00
   -7    7   22    150.97      0.00
   -4    7   22     -6.21      0.00
   -1    7   22     50.36      0.00
   -6    8   22    102.35      0.00
   -3    8   22     -4.62      0.00
    0    8   22   -135.53      0.00
   -8    9   22    214.07      0.00
   -5    9   22     37.62      0.00
   -2    9   22    171.13      0.00
  -10   10   22   -199.34      0.00
   -7   10   22      4.37      0.00
   -4   10   22   -104.13      0.00
   -1   10   22     15.04      0.00
   -9   11   22     15.69      0.00
   -6   11   22     27.59      0.00
   -3   11   22    -52.91      0.00
    0   11   22    -87.03      0.00
  -11   12   22    -25.04      0.00
   -8   12   22     68.14      0.00
   -5   12   22      6.23      0.00
   -2   12   22     29.72      0.00
  -13   13   22    -36.77      0.00
  -10   13   22     26.37      0.00
   -7   13   22     41.54      0.00
   -4   13   22    -29.37      0.00
   -1   13   22     21.17      0.00
  -12   14   22      4.93      0.00
   -9   14   22    114.36      0.00
   -6   14   22     19.51      0.00
   -3   14   22    -68.36      0.00
    0   14   22    -18.58      0.00
  -14   15   22     -1.25      0.00
  -11   15   22     -7.12      0.00
   -8   15   22     64.69      0.00
   -5   15   22    -42.91      0.00
   -2   15   22     -4.12      0.00
  -16   16   22     18.93      0.00
  -13   16   22    -36.73      0.00
  -10   16   22     34.30      0.00
   -7   16   22     33.46      0.00
   -4   16   22     10.58      0.00
   -1   16   22     36.13      0.00
  -15   17   22    -16.68      0.00
  -12   17   22    -21.86      0.00
   -9   17   22     18.36      0.00
   -6   17   22     35.22      0.00
   -3   17   22    -44.83      0.00
    0   17   22     15.35      0.00
  -17   18   22     -8.82      0.00
  -14   18   22     16.35      0.00
  -11   18   22    -66.83      0.00
   -8   18   22    -17.67      0.00
   -5   18   22    -72.11      0.00
   -2   18   22    -17.28      0.00
  -19   19   22     -7.73      0.00
  -16   19   22     24.12      0.00
  -13   19   22     21.02      0.00
  -10   19   22     83.95      0.00
   -7   19   22     57.50      0.00
   -4   19   22      6.42      0.00
   -1   19   22    -17.88      0.00
  -18   20   22    -13.80      0.00
  -15   20   22      9.67      0.00
  -12   20   22     -4.29      0.00
   -9   20   22     28.29      0.00
   -6   20   22      2.10      0.00
   -3   20   22     10.27      0.00
    0   20   22    -30.01      0.00
  -20   21   22     39.22      0.00
  -17   21   22     27.20      0.00
  -14   21   22     40.31      0.00
  -11   21   22    -44.89      0.00
   -8   21   22    -31.25      0.00
   -5   21   22    -19.17      0.00
   -2   21   22    -26.21      0.00
  -22   22   22     -3.52      0.00
  -19   22   22      2.26      0.00
  -16   22   22    -23.67      0.00
  -13   22   22    -15.99      0.00
  -10   22   22     18.29      0.00
   -7   22   22      7.80      0.00
   -4   22   22     23.87      0.00
   -1   22   22      4.15      0.00
  -21   23   22     11.66      0.00
  -18   23   22     19.65      0.00
  -15   23   22     -8.13      0.00
  -12   23   22     37.64      0.00
   -9   23   22     18.01      0.00
   -6   23   22     19.66      0.00
   -3   23   22    -13.51      0.00
    0   23   22    -15.21      0.00
  -23   24   22    -11.35      0.00
  -20   24   22     31.31      0.00
  -17   24   22    -26.17      0.00
  -14   24   22      4.29      0.00
  -11   24   22     -1.14      0.00
   -8   24   22    -20.11      0.00
   -5   24   22     -1.03      0.00
   -2   24   22     12.13      0.00
  -25   25   22    -30.63      0.00
  -22   25   22     37.20      0.00
  -19   25   22    -18.62      0.00
  -16   25   22     -5.74      0.00
  -13   25   22    -18.61      0.00
  -10   25   22      1.83      0.00
   -7   25   22      0.96      0.00
   -4   25   22    -14.67      0.00
   -1   25   22     36.37      0.00
  -24   26   22     -5.64      0.00
  -21   26   22      9.99      0.00
  -18   26   22     -9.61      0.00
  -15   26   22    -35.08      0.00
  -12   26   22    -18.20      0.00
   -9   26   22     -8.59      0.00
   -6   26   22      9.84      0.00
   -3   26   22     -1.35      0.00
    0   26   22     15.52      0.00
  -26   27   22     -7.31      0.00
  -23   27   22    -16.25      0.00
  -20   27   22     12.35      0.00
  -17   27   22     15.36      0.00
  -14   27   22     17.04      0.00
  -11   27   22     15.92      0.00
   -8   27   22    -18.10      0.00
   -5   27   22    -19.14      0.00
   -2   27   22     -7.06      0.00
  -28   28   22    -38.36      0.00
  -25   28   22     -5.86      0.00
  -22   28   22     -2.32      0.00
  -19   28   22    -11.66      0.00
  -16   28   22     -6.74      0.00
  -13   28   22      0.49      0.00
  -10   28   22     26.24      0.00
   -7   28   22     -6.55      0.00
   -4   28   22     23.33      0.00
   -1   28   22      7.28      0.00
  -27   29   22     -1.04      0.00
  -24   29   22     10.59      0.00
  -21   29   22     -2.83      0.00
  -18   29   22     26.28      0.00
  -15   29   22     12.79      0.00
  -12   29   22      7.77      0.00
   -9   29   22     -4.63      0.00
   -6   29   22      1.60      0.00
   -3   29   22      5.46      0.00
    0   29   22      1.22      0.00
  -29   30   22      5.33      0.00
  -26   30   22      5.21      0.00
  -23   30   22    -18.08      0.00
  -20   30   22    -23.55      0.00
  -17   30   22    -22.87      0.00
  -14   30   22    -15.83      0.00
  -11   30   22     -5.98      0.00
   -8   30   22    -10.63      0.00
   -5   30   22      5.07      0.00
   -2   30   22     -7.90      0.00
  -31   31   22    -30.11      0.00
  -28   31   22     26.37      0.00
  -25   31   22    -18.15      0.00
  -22   31   22     29.86      0.00
  -19   31   22    -16.90      0.00
  -16   31   22      6.53      0.00
  -13   31   22     -3.64      0.00
  -10   31   22    -43.26      0.00
   -7   31   22    -10.54      0.00
   -4   31   22      5.72      0.00
   -1   31   22     -3.44      0.00
  -30   32   22    -10.37      0.00
  -27   32   22     -8.57      0.00
  -24   32   22     -9.35      0.00
  -21   32   22     -5.57      0.00
  -18   32   22    -24.50      0.00
  -15   32   22    -25.49      0.00
  -12   32   22      5.94      0.00
   -9   32   22     13.51      0.00
   -6   32   22     -3.88      0.00
   -3   32   22     21.06      0.00
    0   32   22      9.57      0.00
  -32   33   22     -7.69      0.00
  -29   33   22    -17.35      0.00
  -26   33   22    -11.83      0.00
  -23   33   22    -34.83      0.00
  -20   33   22     24.00      0.00
  -17   33   22     22.27      0.00
  -14   33   22    -21.77      0.00
  -11   33   22     -5.83      0.00
   -8   33   22    -40.10      0.00
   -5   33   22      3.98      0.00
   -2   33   22    -27.34      0.00
  -34   34   22    -19.85      0.00
  -31   34   22     -4.19      0.00
  -28   34   22      5.55      0.00
  -25   34   22    -17.59      0.00
  -22   34   22     -4.53      0.00
  -19   34   22    -31.05      0.00
  -16   34   22      5.19      0.00
  -13   34   22     -4.42      0.00
  -10   34   22      5.20      0.00
   -7   34   22    -12.84      0.00
   -4   34   22     13.87      0.00
   -1   34   22     -5.91      0.00
  -33   35   22    -27.15      0.00
  -30   35   22    -30.43      0.00
  -27   35   22    -29.77      0.00
  -24   35   22     23.15      0.00
  -21   35   22     33.69      0.00
  -18   35   22      9.00      0.00
  -15   35   22     10.56      0.00
  -12   35   22    -14.36      0.00
   -9   35   22     13.20      0.00
   -6   35   22      0.72      0.00
   -3   35   22      7.84      0.00
    0   35   22    -17.92      0.00
  -35   36   22     -2.64      0.00
  -32   36   22      6.11      0.00
  -29   36   22     13.81      0.00
  -26   36   22     12.19      0.00
  -23   36   22    -11.61      0.00
  -20   36   22     -7.82      0.00
  -17   36   22     26.09      0.00
  -14   36   22    -20.47      0.00
  -11   36   22     15.16      0.00
   -8   36   22     26.02      0.00
   -5   36   22      8.50      0.00
   -2   36   22    -18.28      0.00
  -37   37   22     -9.59      0.00
  -34   37   22     17.35      0.00
  -31   37   22     12.75      0.00
  -28   37   22      4.75      0.00
  -25   37   22     -0.49      0.00
  -22   37   22      5.81      0.00
  -19   37   22     -8.09      0.00
  -16   37   22    -12.06      0.00
  -13   37   22    -25.43      0.00
  -10   37   22    -10.91      0.00
   -7   37   22    -32.60      0.00
   -4   37   22     21.49      0.00
   -1   37   22     17.33      0.00
  -36   38   22     15.84      0.00
  -33   38   22     -1.33      0.00
  -30   38   22      8.16      0.00
  -27   38   22    -32.56      0.00
  -24   38   22      0.45      0.00
  -21   38   22      0.10      0.00
  -18   38   22      3.34      0.00
  -15   38   22     -8.58      0.00
  -12   38   22     -0.04      0.00
   -9   38   22     23.63      0.00
   -6   38   22    -40.04      0.00
   -3   38   22     25.54      0.00
  -32   39   22     23.17      0.00
  -29   39   22    -23.27      0.00
  -26   39   22     -7.51      0.00
  -23   39   22     -9.66      0.00
  -20   39   22      6.95      0.00
  -17   39   22      7.04      0.00
  -14   39   22      0.45      0.00
  -11   39   22    -21.10      0.00
   -8   39   22     26.06      0.00
   -5   39   22    -33.31      0.00
  -34   40   22     37.80      0.00
  -31   40   22     29.15      0.00
  -28   40   22      5.32      0.00
  -25   40   22      1.59      0.00
  -22   40   22    -18.43      0.00
  -19   40   22    -59.45      0.00
  -16   40   22    -17.53      0.00
  -13   40   22    -28.36      0.00
  -10   40   22    -20.76      0.00
   -7   40   22    -15.99      0.00
  -33   41   22      8.24      0.00
  -30   41   22     -0.43      0.00
  -27   41   22     -5.21      0.00
  -24   41   22     -7.39      0.00
  -21   41   22     34.49      0.00
  -18   41   22     32.09      0.00
  -15   41   22      6.24      0.00
  -12   41   22    -21.98      0.00
   -9   41   22      4.02      0.00
   -6   41   22    -13.21      0.00
  -32   42   22    -19.41      0.00
  -29   42   22     18.60      0.00
  -26   42   22     25.54      0.00
  -23   42   22    -11.77      0.00
  -20   42   22    -20.34      0.00
  -17   42   22      9.46      0.00
  -14   42   22     14.40      0.00
  -11   42   22    -12.70      0.00
   -8   42   22    -33.83      0.00
  -31   43   22    -17.94      0.00
  -28   43   22    -17.06      0.00
  -25   43   22     20.50      0.00
  -22   43   22      1.31      0.00
  -19   43   22     37.38      0.00
  -16   43   22     -9.25      0.00
  -13   43   22    -19.19      0.00
  -10   43   22    -18.19      0.00
  -30   44   22    -16.51      0.00
  -18   44   22     -2.71      0.00
  -15   44   22    -30.52      0.00
   -1    3   23    -34.45      0.00
   -3    4   23    189.69      0.00
   -2    5   23    112.09      0.00
   -4    6   23    150.98      0.00
   -1    6   23   -124.51      0.00
   -6    7   23     49.06      0.00
   -3    7   23     86.12      0.00
   -5    8   23   -128.47      0.00
   -2    8   23    -40.26      0.00
   -7    9   23    -93.01      0.00
   -4    9   23   -113.21      0.00
   -1    9   23    -52.15      0.00
   -9   10   23      1.80      0.00
   -6   10   23   -178.93      0.00
   -3   10   23    -41.38      0.00
   -8   11   23    -39.74      0.00
   -5   11   23    -98.48      0.00
   -2   11   23    -49.12      0.00
  -10   12   23    113.79      0.00
   -7   12   23    -62.65      0.00
   -4   12   23     36.44      0.00
   -1   12   23     17.90      0.00
  -12   13   23      5.05      0.00
   -9   13   23    -42.82      0.00
   -6   13   23    -14.07      0.00
   -3   13   23     62.93      0.00
  -11   14   23     36.92      0.00
   -8   14   23    -25.46      0.00
   -5   14   23    -89.34      0.00
   -2   14   23    -33.16      0.00
  -13   15   23      2.47      0.00
  -10   15   23    -27.23      0.00
   -7   15   23     26.76      0.00
   -4   15   23     30.70      0.00
   -1   15   23     58.13      0.00
  -15   16   23      8.19      0.00
  -12   16   23    -18.32      0.00
   -9   16   23    -47.72      0.00
   -6   16   23      9.92      0.00
   -3   16   23     -6.52      0.00
  -14   17   23      9.52      0.00
  -11   17   23     11.92      0.00
   -8   17   23     19.61      0.00
   -5   17   23    -67.68      0.00
   -2   17   23    -42.01      0.00
  -16   18   23     -1.44      0.00
  -13   18   23    -61.98      0.00
  -10   18   23     68.54      0.00
   -7   18   23     26.24      0.00
   -4   18   23     -3.17      0.00
   -1   18   23     25.13      0.00
  -18   19   23     14.23      0.00
  -15   19   23     -2.40      0.00
  -12   19   23     18.22      0.00
   -9   19   23      1.88      0.00
   -6   19   23      4.02      0.00
   -3   19   23     -8.95      0.00
  -17   20   23    -32.58      0.00
  -14   20   23     -3.63      0.00
  -11   20   23     18.82      0.00
   -8   20   23    -14.70      0.00
   -5   20   23    -37.86      0.00
   -2   20   23      7.99      0.00
  -19   21   23     -2.08      0.00
  -16   21   23      3.83      0.00
  -13   21   23    -27.39      0.00
  -10   21   23    -13.00      0.00
   -7   21   23    -27.06      0.00
   -4   21   23      9.24      0.00
   -1   21   23    -21.98      0.00
  -21   22   23     12.64      0.00
  -18   22   23    -29.91      0.00
  -15   22   23     -4.68      0.00
  -12   22   23    -24.03      0.00
   -9   22   23     12.55      0.00
   -6   22   23     -1.14      0.00
   -3   22   23     11.97      0.00
  -20   23   23    -34.39      0.00
  -17   23   23    -16.59      0.00
  -14   23   23     29.20      0.00
  -11   23   23     20.17      0.00
   -8   23   23      0.20      0.00
   -5   23   23     -7.95      0.00
   -2   23   23    -13.94      0.00
  -22   24   23     -6.16      0.00
  -19   24   23    -12.29      0.00
  -16   24   23    -19.21      0.00
  -13   24   23     -5.51      0.00
  -10   24   23    -51.03      0.00
   -7   24   23     16.87      0.00
   -4   24   23    -38.44      0.00
   -1   24   23     -0.94      0.00
  -24   25   23     -6.27      0.00
  -21   25   23    -34.68      0.00
  -18   25   23     -0.58      0.00
  -15   25   23      2.73      0.00
  -12   25   23      5.41      0.00
   -9   25   23    -27.30      0.00
   -6   25   23     -8.94      0.00
   -3   25   23      1.52      0.00
  -23   26   23     -5.35      0.00
  -20   26   23    -30.08      0.00
  -17   26   23      5.69      0.00
  -14   26   23    -16.86      0.00
  -11   26   23     21.13      0.00
   -8   26   23    -10.08      0.00
   -5   26   23      3.19      0.00
   -2   26   23    -17.20      0.00
  -25   27   23    -21.87      0.00
  -22   27   23      4.03      0.00
  -19   27   23      3.49      0.00
  -16   27   23     34.68      0.00
  -13   27   23    -20.08      0.00
  -10   27   23     16.88      0.00
   -7   27   23      8.50      0.00
   -4   27   23     -6.63      0.00
   -1   27   23     10.40      0.00
  -27   28   23     -2.48      0.00
  -24   28   23     10.04      0.00
  -21   28   23      3.25      0.00
  -18   28   23      2.92      0.00
  -15   28   23    -18.94      0.00
  -12   28   23    -31.40      0.00
   -9   28   23     25.21      0.00
   -6   28   23     -1.19      0.00
   -3   28   23     23.93      0.00
  -26   29   23      3.84      0.00
  -23   29   23     24.75      0.00
  -20   29   23     -7.76      0.00
  -17   29   23      7.92      0.00
  -14   29   23     25.96      0.00
  -11   29   23      6.31      0.00
   -8   29   23     21.62      0.00
   -5   29   23     10.34      0.00
   -2   29   23     22.85      0.00
  -28   30   23    -13.66      0.00
  -25   30   23     -0.50      0.00
  -22   30   23     22.72      0.00
  -19   30   23     -0.32      0.00
  -16   30   23    -16.36      0.00
  -13   30   23     14.82      0.00
  -10   30   23    -17.10      0.00
   -7   30   23     15.10      0.00
   -4   30   23      3.59      0.00
   -1   30   23     -8.14      0.00
  -30   31   23     -6.69      0.00
  -27   31   23    -20.51      0.00
  -24   31   23    -23.29      0.00
  -21   31   23     19.61      0.00
  -18   31   23     -1.15      0.00
  -15   31   23    -12.44      0.00
  -12   31   23      9.73      0.00
   -9   31   23     -0.40      0.00
   -6   31   23     13.92      0.00
   -3   31   23     31.00      0.00
  -29   32   23     20.88      0.00
  -26   32   23     -5.25      0.00
  -23   32   23    -11.38      0.00
  -20   32   23    -12.40      0.00
  -17   32   23     -4.62      0.00
  -14   32   23     -9.47      0.00
  -11   32   23      7.18      0.00
   -8   32   23     -6.28      0.00
   -5   32   23     -6.66      0.00
   -2   32   23     14.11      0.00
  -31   33   23    -17.43      0.00
  -28   33   23      9.54      0.00
  -25   33   23      9.84      0.00
  -22   33   23      9.90      0.00
  -19   33   23     26.05      0.00
  -16   33   23     26.73      0.00
  -13   33   23     13.90      0.00
  -10   33   23      9.63      0.00
   -7   33   23    -12.41      0.00
   -4   33   23      3.14      0.00
   -1   33   23     21.11      0.00
  -33   34   23     10.76      0.00
  -30   34   23     -4.11      0.00
  -27   34   23     17.99      0.00
  -24   34   23      8.88      0.00
  -21   34   23     -7.13      0.00
  -18   34   23      8.77      0.00
  -15   34   23    -11.35      0.00
  -12   34   23      0.86      0.00
   -9   34   23      4.49      0.00
   -6   34   23     13.70      0.00
   -3   34   23     -1.59      0.00
  -32   35   23     -2.99      0.00
  -29   35   23     19.56      0.00
  -26   35   23     -3.43      0.00
  -23   35   23      4.85      0.00
  -20   35   23      4.02      0.00
  -17   35   23      7.29      0.00
  -14   35   23    -11.25      0.00
  -11   35   23      6.44      0.00
   -8   35   23    -13.79      0.00
   -5   35   23     23.81      0.00
   -2   35   23      4.46      0.00
  -34   36   23     13.08      0.00
  -31   36   23     31.97      0.00
  -28   36   23     42.71      0.00
  -25   36   23     26.21      0.00
  -22   36   23      1.03      0.00
  -19   36   23     18.39      0.00
  -16   36   23     20.10      0.00
  -13   36   23     27.97      0.00
  -10   36   23     -3.27      0.00
   -7   36   23     -1.62      0.00
   -4   36   23     14.05      0.00
   -1   36   23      5.17      0.00
  -36   37   23    -27.24      0.00
  -33   37   23     15.78      0.00
  -30   37   23      1.61      0.00
  -27   37   23     13.26      0.00
  -24   37   23    -31.22      0.00
  -21   37   23     25.16      0.00
  -18   37   23     18.81      0.00
  -15   37   23     -0.78      0.00
  -12   37   23     12.56      0.00
   -9   37   23    -26.28      0.00
   -6   37   23    -11.73      0.00
   -3   37   23      8.36      0.00
  -35   38   23     17.58      0.00
  -32   38   23     15.00      0.00
  -29   38   23     19.43      0.00
  -26   38   23     32.09      0.00
  -23   38   23     20.19      0.00
  -20   38   23     -6.81      0.00
  -17   38   23      7.65      0.00
  -14   38   23     -2.94      0.00
  -11   38   23     26.50      0.00
   -8   38   23    -28.43      0.00
   -5   38   23     23.70      0.00
   -2   38   23     -8.17      0.00
  -34   39   23    -10.42      0.00
  -31   39   23     16.15      0.00
  -28   39   23    -28.82      0.00
  -25   39   23     29.70      0.00
  -22   39   23     39.44      0.00
  -19   39   23     41.47      0.00
  -16   39   23    -18.19      0.00
  -13   39   23     11.53      0.00
  -10   39   23    -17.94      0.00
   -7   39   23    -11.75      0.00
   -4   39   23      5.12      0.00
  -36   40   23     11.44      0.00
  -33   40   23     -5.66      0.00
  -30   40   23     -2.12      0.00
  -27   40   23     26.63      0.00
  -24   40   23     24.22      0.00
  -21   40   23    -14.64      0.00
  -18   40   23    -11.90      0.00
  -15   40   23    -26.44      0.00
  -12   40   23     -0.86      0.00
   -9   40   23    -36.18      0.00
   -6   40   23      1.25      0.00
  -32   41   23    -57.45      0.00
  -29   41   23     -5.15      0.00
  -26   41   23     19.66      0.00
  -23   41   23      6.25      0.00
  -20   41   23     37.87      0.00
  -17   41   23      7.31      0.00
  -14   41   23     16.36      0.00
  -11   41   23     -5.80      0.00
   -8   41   23    -28.81      0.00
  -31   42   23    -25.10      0.00
  -28   42   23     59.07      0.00
  -25   42   23     10.42      0.00
  -22   42   23    -11.90      0.00
  -19   42   23      2.82      0.00
  -16   42   23      7.32      0.00
  -13   42   23    -34.59      0.00
  -10   42   23    -23.57      0.00
  -33   43   23     17.75      0.00
  -30   43   23      3.00      0.00
  -27   43   23     73.37      0.00
  -21   43   23     35.80      0.00
  -15   43   23    -37.12      0.00
  -12   43   23      2.69      0.00
   -9   43   23    -12.95      0.00
  -29   44   23     21.00      0.00
  -17   44   23     -2.21      0.00
  -14   44   23     26.28      0.00
    0    0   24    426.41      0.00
   -1    2   24     -0.94      0.00
   -3    3   24    152.00      0.00
    0    3   24     50.44      0.00
   -2    4   24     68.32      0.00
   -4    5   24    -38.82      0.00
   -1    5   24     51.87      0.00
   -6    6   24   -153.12      0.00
   -3    6   24   -116.05      0.00
    0    6   24   -144.13      0.00
   -5    7   24    -44.57      0.00
   -2    7   24     -8.40      0.00
   -7    8   24    -45.36      0.00
   -4    8   24    -13.89      0.00
   -1    8   24     63.59      0.00
   -9    9   24    -66.93      0.00
   -6    9   24     -6.83      0.00
   -3    9   24   -134.83      0.00
    0    9   24     -0.75      0.00
   -8   10   24     45.83      0.00
   -5   10   24    -42.52      0.00
   -2   10   24     58.11      0.00
  -10   11   24    -94.07      0.00
   -7   11   24     19.90      0.00
   -4   11   24    -29.59      0.00
   -1   11   24     16.02      0.00
  -12   12   24     -6.96      0.00
   -9   12   24     17.68      0.00
   -6   12   24    -96.52      0.00
   -3   12   24    -27.55      0.00
    0   12   24     -3.51      0.00
  -11   13   24    -28.62      0.00
   -8   13   24    -31.76      0.00
   -5   13   24     -5.18      0.00
   -2   13   24     32.00      0.00
  -13   14   24     21.12      0.00
  -10   14   24      1.34      0.00
   -7   14   24    -56.11      0.00
   -4   14   24     14.26      0.00
   -1   14   24    -26.64      0.00
  -15   15   24     48.89      0.00
  -12   15   24     31.65      0.00
   -9   15   24      4.93      0.00
   -6   15   24    -38.04      0.00
   -3   15   24     29.13      0.00
    0   15   24     52.92      0.00
  -14   16   24      2.53      0.00
  -11   16   24      9.75      0.00
   -8   16   24     81.40      0.00
   -5   16   24     39.41      0.00
   -2   16   24      5.17      0.00
  -16   17   24     18.43      0.00
  -13   17   24    -30.97      0.00
  -10   17   24    -55.21      0.00
   -7   17   24    -61.29      0.00
   -4   17   24    -56.41      0.00
   -1   17   24     14.37      0.00
  -18   18   24    -41.48      0.00
  -15   18   24    -14.43      0.00
  -12   18   24    -24.53      0.00
   -9   18   24     -9.88      0.00
   -6   18   24     35.96      0.00
   -3   18   24     -1.00      0.00
    0   18   24     24.39      0.00
  -17   19   24     15.32      0.00
  -14   19   24    -30.23      0.00
  -11   19   24    -29.50      0.00
   -8   19   24     25.37      0.00
   -5   19   24    -40.06      0.00
   -2   19   24    -26.00      0.00
  -19   20   24     17.21      0.00
  -16   20   24     26.47      0.00
  -13   20   24    -43.28      0.00
  -10   20   24    -34.74      0.00
   -7   20   24    -26.44      0.00
   -4   20   24    -25.10      0.00
   -1   20   24    -34.15      0.00
  -21   21   24    -32.62      0.00
  -18   21   24     13.31      0.00
  -15   21   24    -41.14      0.00
  -12   21   24    -24.74      0.00
   -9   21   24    -12.60      0.00
   -6   21   24      0.53      0.00
   -3   21   24    -13.89      0.00
    0   21   24    -17.21      0.00
  -20   22   24    -20.67      0.00
  -17   22   24     -3.18      0.00
  -14   22   24    -38.45      0.00
  -11   22   24      0.60      0.00
   -8   22   24     26.41      0.00
   -5   22   24     -3.21      0.00
   -2   22   24    -28.65      0.00
  -22   23   24    -10.61      0.00
  -19   23   24    -27.01      0.00
  -16   23   24    -11.91      0.00
  -13   23   24     -7.92      0.00
  -10   23   24     -5.42      0.00
   -7   23   24    -18.17      0.00
   -4   23   24     17.24      0.00
   -1   23   24    -11.75      0.00
  -24   24   24      0.88      0.00
  -21   24   24     -8.01      0.00
  -18   24   24    -38.73      0.00
  -15   24   24    -29.00      0.00
  -12   24   24      7.68      0.00
   -9   24   24    -22.89      0.00
   -6   24   24      0.27      0.00
   -3   24   24    -21.44      0.00
    0   24   24    -15.37      0.00
  -23   25   24      7.99      0.00
  -20   25   24     30.94      0.00
  -17   25   24    -24.92      0.00
  -14   25   24     13.56      0.00
  -11   25   24      1.89      0.00
   -8   25   24      2.07      0.00
   -5   25   24     -1.73      0.00
   -2   25   24     -2.02      0.00
  -25   26   24     -4.88      0.00
  -22   26   24     11.91      0.00
  -19   26   24     11.21      0.00
  -16   26   24      0.58      0.00
  -13   26   24    -16.49      0.00
  -10   26   24    -11.61      0.00
   -7   26   24     -9.67      0.00
   -4   26   24     -3.35      0.00
   -1   26   24      0.87      0.00
  -27   27   24    -25.90      0.00
  -24   27   24     38.53      0.00
  -21   27   24     -4.86      0.00
  -18   27   24     22.21      0.00
  -15   27   24     -1.42      0.00
  -12   27   24     16.58      0.00
   -9   27   24      8.56      0.00
   -6   27   24    -32.94      0.00
   -3   27   24     -8.90      0.00
    0   27   24     12.91      0.00
  -26   28   24      4.20      0.00
  -23   28   24     -1.94      0.00
  -20   28   24    -12.28      0.00
  -17   28   24    -18.27      0.00
  -14   28   24    -11.94      0.00
  -11   28   24     11.59      0.00
   -8   28   24     -6.79      0.00
   -5   28   24     13.88      0.00
   -2   28   24      1.58      0.00
  -28   29   24     -1.52      0.00
  -25   29   24    -28.77      0.00
  -22   29   24     10.15      0.00
  -19   29   24     -2.30      0.00
  -16   29   24     20.40      0.00
  -13   29   24    -18.27      0.00
  -10   29   24    -12.24      0.00
   -7   29   24     -9.60      0.00
   -4   29   24     -2.37      0.00
   -1   29   24     -5.70      0.00
  -30   30   24     -1.28      0.00
  -27   30   24     17.62      0.00
  -24   30   24    -16.46      0.00
  -21   30   24    -10.25      0.00
  -18   30   24      8.05      0.00
  -15   30   24    -29.36      0.00
  -12   30   24     -1.43      0.00
   -9   30   24    -26.99      0.00
   -6   30   24    -12.43      0.00
   -3   30   24     -2.12      0.00
    0   30   24    -19.50      0.00
  -29   31   24     -0.46      0.00
  -26   31   24     11.16      0.00
  -23   31   24    -35.47      0.00
  -20   31   24     29.74      0.00
  -17   31   24    -14.65      0.00
  -14   31   24    -32.82      0.00
  -11   31   24     -3.82      0.00
   -8   31   24    -17.05      0.00
   -5   31   24     -3.80      0.00
   -2   31   24    -11.05      0.00
  -31   32   24     -1.22      0.00
  -28   32   24      0.70      0.00
  -25   32   24     -8.67      0.00
  -22   32   24      8.12      0.00
  -19   32   24    -23.85      0.00
  -16   32   24     -2.07      0.00
  -13   32   24      8.94      0.00
  -10   32   24     -0.49      0.00
   -7   32   24      0.20      0.00
   -4   32   24      6.43      0.00
   -1   32   24     -0.41      0.00
  -33   33   24    -26.03      0.00
  -30   33   24      1.34      0.00
  -27   33   24    -20.05      0.00
  -24   33   24     12.93      0.00
  -21   33   24     -7.68      0.00
  -18   33   24     -1.40      0.00
  -15   33   24    -18.13      0.00
  -12   33   24    -26.46      0.00
   -9   33   24    -16.00      0.00
   -6   33   24    -10.18      0.00
   -3   33   24     -7.12      0.00
    0   33   24     -8.15      0.00
  -32   34   24    -31.31      0.00
  -29   34   24     -9.16      0.00
  -26   34   24     14.88      0.00
  -23   34   24    -16.53      0.00
  -20   34   24    -20.23      0.00
  -17   34   24    -11.44      0.00
  -14   34   24    -11.18      0.00
  -11   34   24    -14.92      0.00
   -8   34   24     11.48      0.00
   -5   34   24     19.17      0.00
   -2   34   24      3.62      0.00
  -34   35   24      7.60      0.00
  -31   35   24    -15.86      0.00
  -28   35   24     28.47      0.00
  -25   35   24    -16.41      0.00
  -22   35   24      6.82      0.00
  -19   35   24    -30.82      0.00
  -16   35   24     -4.86      0.00
  -13   35   24    -13.26      0.00
  -10   35   24      5.21      0.00
   -7   35   24    -17.42      0.00
   -4   35   24     10.07      0.00
   -1   35   24    -13.01      0.00
  -36   36   24     -2.07      0.00
  -33   36   24    -17.57      0.00
  -30   36   24     -0.67      0.00
  -27   36   24      0.37      0.00
  -24   36   24    -17.12      0.00
  -21   36   24    -42.73      0.00
  -18   36   24      5.35      0.00
  -15   36   24    -12.09      0.00
  -12   36   24     19.45      0.00
   -9   36   24     24.00      0.00
   -6   36   24      3.09      0.00
   -3   36   24      4.83      0.00
    0   36   24    -38.63      0.00
  -35   37   24    -25.14      0.00
  -32   37   24     -8.50      0.00
  -29   37   24      4.96      0.00
  -26   37   24      6.94      0.00
  -23   37   24    -23.93      0.00
  -20   37   24      3.51      0.00
  -17   37   24      9.77      0.00
  -14   37   24    -11.38      0.00
  -11   37   24      4.69      0.00
   -8   37   24     27.47      0.00
   -5   37   24    -37.17      0.00
   -2   37   24     19.78      0.00
  -37   38   24     -4.59      0.00
  -34   38   24      3.36      0.00
  -31   38   24     16.75      0.00
  -28   38   24     31.30      0.00
  -25   38   24    -33.39      0.00
  -22   38   24    -20.10      0.00
  -19   38   24    -22.97      0.00
  -16   38   24      1.07      0.00
  -13   38   24     10.75      0.00
  -10   38   24     -5.25      0.00
   -7   38   24     31.25      0.00
   -4   38   24    -16.99      0.00
  -36   39   24    -18.21      0.00
  -33   39   24      9.98      0.00
  -30   39   24     25.25      0.00
  -27   39   24    -39.51      0.00
  -24   39   24      3.34      0.00
  -21   39   24     19.73      0.00
  -18   39   24      0.68      0.00
  -15   39   24     -2.42      0.00
  -12   39   24     -3.10      0.00
   -9   39   24    -34.46      0.00
   -6   39   24     -7.43      0.00
   -3   39   24    -25.79      0.00
  -35   40   24     -1.56      0.00
  -32   40   24     22.66      0.00
  -29   40   24      4.09      0.00
  -26   40   24     -2.05      0.00
  -23   40   24    -60.08      0.00
  -20   40   24    -19.66      0.00
  -17   40   24     10.70      0.00
  -14   40   24    -17.35      0.00
  -11   40   24    -12.78      0.00
   -8   40   24    -12.97      0.00
   -5   40   24     27.50      0.00
  -34   41   24      1.05      0.00
  -31   41   24     10.68      0.00
  -28   41   24    -16.05      0.00
  -25   41   24     12.41      0.00
  -22   41   24      0.75      0.00
  -19   41   24      7.68      0.00
  -16   41   24    -12.24      0.00
  -13   41   24      2.00      0.00
  -10   41   24     -6.02      0.00
   -7   41   24    -14.49      0.00
  -33   42   24      8.66      0.00
  -30   42   24    -12.78      0.00
  -27   42   24    -14.11      0.00
  -24   42   24     39.58      0.00
  -21   42   24    -17.66      0.00
  -18   42   24     36.02      0.00
  -15   42   24      9.42      0.00
  -12   42   24    -34.37      0.00
   -9   42   24      4.19      0.00
  -32   43   24     27.75      0.00
  -20   43   24    -20.71      0.00
  -17   43   24      3.04      0.00
  -14   43   24      7.08      0.00
  -11   43   24    -19.56      0.00
  -31   44   24      8.92      0.00
  -16   44   24     14.36      0.00
   -2    3   25     75.89      0.00
   -1    4   25   -156.22      0.00
   -3    5   25    236.78      0.00
   -5    6   25    128.67      0.00
   -2    6   25    179.86      0.00
   -4    7   25     62.73      0.00
   -1    7   25    -18.97      0.00
   -6    8   25     75.90      0.00
   -3    8   25     54.57      0.00
   -8    9   25    -34.40      0.00
   -5    9   25    -18.40      0.00
   -2    9   25    -78.13      0.00
   -7   10   25    -57.35      0.00
   -4   10   25   -151.68      0.00
   -1   10   25    -78.76      0.00
   -9   11   25     84.17      0.00
   -6   11   25      6.90      0.00
   -3   11   25     44.14      0.00
  -11   12   25     40.88      0.00
   -8   12   25    -76.16      0.00
   -5   12   25    -91.18      0.00
   -2   12   25     20.77      0.00
  -10   13   25     67.45      0.00
   -7   13   25    -53.95      0.00
   -4   13   25     -1.25      0.00
   -1   13   25     69.68      0.00
  -12   14   25     74.59      0.00
   -9   14   25     46.76      0.00
   -6   14   25     29.12      0.00
   -3   14   25    -16.16      0.00
  -14   15   25      1.77      0.00
  -11   15   25     10.71      0.00
   -8   15   25    -43.98      0.00
   -5   15   25      2.54      0.00
   -2   15   25      8.90      0.00
  -13   16   25     10.73      0.00
  -10   16   25    -30.95      0.00
   -7   16   25    -15.15      0.00
   -4   16   25     -8.13      0.00
   -1   16   25     -5.84      0.00
  -15   17   25     -4.20      0.00
  -12   17   25    -18.65      0.00
   -9   17   25    -22.16      0.00
   -6   17   25    -34.36      0.00
   -3   17   25    -40.29      0.00
  -17   18   25      8.90      0.00
  -14   18   25    -25.72      0.00
  -11   18   25    -15.65      0.00
   -8   18   25    -33.79      0.00
   -5   18   25    -17.74      0.00
   -2   18   25      3.56      0.00
  -16   19   25     -0.86      0.00
  -13   19   25      3.82      0.00
  -10   19   25     30.05      0.00
   -7   19   25      9.13      0.00
   -4   19   25    -35.11      0.00
   -1   19   25     18.93      0.00
  -18   20   25     23.16      0.00
  -15   20   25    -28.21      0.00
  -12   20   25    -55.01      0.00
   -9   20   25    -51.20      0.00
   -6   20   25    -60.02      0.00
   -3   20   25    -20.49      0.00
  -20   21   25     -0.84      0.00
  -17   21   25    -14.71      0.00
  -14   21   25    -16.19      0.00
  -11   21   25    -38.65      0.00
   -8   21   25     73.49      0.00
   -5   21   25     18.03      0.00
   -2   21   25     32.40      0.00
  -19   22   25      3.09      0.00
  -16   22   25    -47.66      0.00
  -13   22   25      3.87      0.00
  -10   22   25     25.49      0.00
   -7   22   25     12.12      0.00
   -4   22   25      6.19      0.00
   -1   22   25     14.99      0.00
  -21   23   25     28.23      0.00
  -18   23   25     27.03      0.00
  -15   23   25    -10.97      0.00
  -12   23   25     18.63      0.00
   -9   23   25      0.48      0.00
   -6   23   25     35.49      0.00
   -3   23   25      2.34      0.00
  -23   24   25     19.24      0.00
  -20   24   25     -9.37      0.00
  -17   24   25     14.43      0.00
  -14   24   25    -27.92      0.00
  -11   24   25     20.28      0.00
   -8   24   25    -11.35      0.00
   -5   24   25     38.03      0.00
   -2   24   25     -2.36      0.00
  -22   25   25    -10.10      0.00
  -19   25   25     25.98      0.00
  -16   25   25     33.91      0.00
  -13   25   25     52.18      0.00
  -10   25   25     26.77      0.00
   -7   25   25    -15.77      0.00
   -4   25   25    -18.24      0.00
   -1   25   25     -3.55      0.00
  -24   26   25     26.08      0.00
  -21   26   25     19.83      0.00
  -18   26   25    -15.44      0.00
  -15   26   25    -11.64      0.00
  -12   26   25    -13.71      0.00
   -9   26   25     25.50      0.00
   -6   26   25    -13.18      0.00
   -3   26   25     -7.84      0.00
  -26   27   25    -10.02      0.00
  -23   27   25      5.18      0.00
  -20   27   25    -24.55      0.00
  -17   27   25    -21.80      0.00
  -14   27   25     -8.59      0.00
  -11   27   25     -5.70      0.00
   -8   27   25     30.01      0.00
   -5   27   25     -7.45      0.00
   -2   27   25     -8.36      0.00
  -25   28   25     12.79      0.00
  -22   28   25     21.97      0.00
  -19   28   25    -26.32      0.00
  -16   28   25     -4.76      0.00
  -13   28   25     15.31      0.00
  -10   28   25    -13.20      0.00
   -7   28   25     14.14      0.00
   -4   28   25     -6.51      0.00
   -1   28   25     -2.66      0.00
  -27   29   25     -8.06      0.00
  -24   29   25     -5.08      0.00
  -21   29   25      4.93      0.00
  -18   29   25     10.05      0.00
  -15   29   25     18.03      0.00
  -12   29   25     18.21      0.00
   -9   29   25     28.52      0.00
   -6   29   25      4.77      0.00
   -3   29   25     -9.93      0.00
  -29   30   25     -4.34      0.00
  -26   30   25     15.21      0.00
  -23   30   25     -3.72      0.00
  -20   30   25    -17.62      0.00
  -17   30   25     -0.16      0.00
  -14   30   25    -21.34      0.00
  -11   30   25     19.58      0.00
   -8   30   25      4.21      0.00
   -5   30   25     -5.35      0.00
   -2   30   25    -11.79      0.00
  -28   31   25      9.01      0.00
  -25   31   25    -14.73      0.00
  -22   31   25      5.97      0.00
  -19   31   25     14.17      0.00
  -16   31   25      8.88      0.00
  -13   31   25     15.80      0.00
  -10   31   25     11.00      0.00
   -7   31   25     10.63      0.00
   -4   31   25      0.55      0.00
   -1   31   25     27.75      0.00
  -30   32   25    -18.08      0.00
  -27   32   25      3.47      0.00
  -24   32   25    -19.44      0.00
  -21   32   25      9.43      0.00
  -18   32   25      1.85      0.00
  -15   32   25     -1.38      0.00
  -12   32   25     10.30      0.00
   -9   32   25     19.38      0.00
   -6   32   25     -8.94      0.00
   -3   32   25     -4.09      0.00
  -32   33   25     17.62      0.00
  -29   33   25     -3.18      0.00
  -26   33   25     -7.05      0.00
  -23   33   25     -9.75      0.00
  -20   33   25     18.40      0.00
  -17   33   25    -17.74      0.00
  -14   33   25    -21.04      0.00
  -11   33   25     -9.37      0.00
   -8   33   25    -40.42      0.00
   -5   33   25     -7.45      0.00
   -2   33   25    -11.89      0.00
  -31   34   25    -23.91      0.00
  -28   34   25     -5.95      0.00
  -25   34   25    -31.49      0.00
  -22   34   25    -10.67      0.00
  -19   34   25     -8.04      0.00
  -16   34   25    -15.66      0.00
  -13   34   25     -7.99      0.00
  -10   34   25     10.49      0.00
   -7   34   25     15.21      0.00
   -4   34   25      1.92      0.00
   -1   34   25    -38.00      0.00
  -33   35   25    -27.78      0.00
  -30   35   25     -0.99      0.00
  -27   35   25    -44.01      0.00
  -24   35   25     -1.77      0.00
  -21   35   25     -0.01      0.00
  -18   35   25      6.51      0.00
  -15   35   25     -2.88      0.00
  -12   35   25     -9.49      0.00
   -9   35   25     32.61      0.00
   -6   35   25     -7.83      0.00
   -3   35   25     33.13      0.00
  -35   36   25     13.68      0.00
  -32   36   25     12.14      0.00
  -29   36   25     -3.95      0.00
  -26   36   25      7.08      0.00
  -23   36   25     -6.12      0.00
  -20   36   25    -27.09      0.00
  -17   36   25    -25.14      0.00
  -14   36   25     -1.02      0.00
  -11   36   25      6.61      0.00
   -8   36   25     32.79      0.00
   -5   36   25     -2.29      0.00
   -2   36   25     11.58      0.00
  -34   37   25    -18.63      0.00
  -31   37   25      7.43      0.00
  -28   37   25    -39.96      0.00
  -25   37   25     -5.63      0.00
  -22   37   25     10.26      0.00
  -19   37   25     -8.79      0.00
  -16   37   25    -27.46      0.00
  -13   37   25     -9.96      0.00
  -10   37   25      8.66      0.00
   -7   37   25      9.41      0.00
   -4   37   25    -21.14      0.00
   -1   37   25    -17.16      0.00
  -36   38   25     -8.13      0.00
  -33   38   25     23.33      0.00
  -30   38   25      7.40      0.00
  -27   38   25     48.32      0.00
  -24   38   25     -7.29      0.00
  -21   38   25    -13.50      0.00
  -18   38   25     -9.45      0.00
  -15   38   25    -25.28      0.00
  -12   38   25      8.72      0.00
   -9   38   25      1.77      0.00
   -6   38   25     16.37      0.00
   -3   38   25     40.19      0.00
  -35   39   25      1.85      0.00
  -32   39   25    -15.51      0.00
  -29   39   25     -1.58      0.00
  -26   39   25    -11.70      0.00
  -23   39   25    -19.27      0.00
  -20   39   25    -15.15      0.00
  -17   39   25    -30.47      0.00
  -14   39   25     13.33      0.00
  -11   39   25     -8.55      0.00
   -8   39   25      8.75      0.00
   -5   39   25    -17.26      0.00
  -34   40   25    -12.82      0.00
  -31   40   25    -63.81      0.00
  -28   40   25      0.87      0.00
  -25   40   25      1.53      0.00
  -22   40   25    -38.70      0.00
  -19   40   25    -12.46      0.00
  -16   40   25    -27.68      0.00
  -13   40   25    -25.14      0.00
  -10   40   25     -1.33      0.00
   -7   40   25     24.96      0.00
  -33   41   25    -21.84      0.00
  -30   41   25    -29.56      0.00
  -27   41   25     10.39      0.00
  -24   41   25    -21.67      0.00
  -21   41   25     15.33      0.00
  -18   41   25     -1.18      0.00
  -15   41   25     -3.92      0.00
  -12   41   25     58.07      0.00
   -9   41   25     24.06      0.00
  -32   42   25     30.56      0.00
  -29   42   25    -13.55      0.00
  -26   42   25     15.19      0.00
  -23   42   25    -57.41      0.00
  -20   42   25     -5.83      0.00
  -17   42   25    -11.87      0.00
  -14   42   25      5.14      0.00
  -11   42   25      4.11      0.00
   -8   42   25    -36.27      0.00
  -31   43   25     15.76      0.00
  -28   43   25     -0.20      0.00
  -25   43   25    -13.93      0.00
  -22   43   25     -5.42      0.00
  -19   43   25     32.51      0.00
  -16   43   25    -12.31      0.00
  -13   43   25     41.94      0.00
  -30   44   25    -10.40      0.00
  -15   44   25     10.60      0.00
    0    1   26    215.81      0.00
   -2    2   26    -13.90      0.00
   -1    3   26    -51.40      0.00
   -3    4   26      7.88      0.00
    0    4   26    123.76      0.00
   -5    5   26   -112.54      0.00
   -2    5   26    -27.12      0.00
   -4    6   26     98.04      0.00
   -1    6   26     66.12      0.00
   -6    7   26    -57.59      0.00
   -3    7   26    106.81      0.00
    0    7   26    -23.45      0.00
   -8    8   26      0.29      0.00
   -5    8   26    -77.33      0.00
   -2    8   26    -16.96      0.00
   -7    9   26     79.89      0.00
   -4    9   26     35.34      0.00
   -1    9   26    -22.23      0.00
   -9   10   26    -30.22      0.00
   -6   10   26     55.07      0.00
   -3   10   26    -12.31      0.00
    0   10   26     68.73      0.00
  -11   11   26    -11.52      0.00
   -8   11   26     -8.92      0.00
   -5   11   26    -74.36      0.00
   -2   11   26     48.90      0.00
  -10   12   26     68.63      0.00
   -7   12   26     28.11      0.00
   -4   12   26    -22.56      0.00
   -1   12   26      3.79      0.00
  -12   13   26      5.59      0.00
   -9   13   26    -14.34      0.00
   -6   13   26    -58.08      0.00
   -3   13   26    -23.39      0.00
    0   13   26    -35.02      0.00
  -14   14   26     -0.68      0.00
  -11   14   26     50.23      0.00
   -8   14   26     72.73      0.00
   -5   14   26     -1.08      0.00
   -2   14   26     69.30      0.00
  -13   15   26     18.22      0.00
  -10   15   26    -41.63      0.00
   -7   15   26    -20.45      0.00
   -4   15   26     -4.81      0.00
   -1   15   26      5.20      0.00
  -15   16   26      0.38      0.00
  -12   16   26     53.34      0.00
   -9   16   26    -40.87      0.00
   -6   16   26    -32.28      0.00
   -3   16   26      2.95      0.00
    0   16   26      3.48      0.00
  -17   17   26    -43.98      0.00
  -14   17   26     35.55      0.00
  -11   17   26     33.42      0.00
   -8   17   26    -48.99      0.00
   -5   17   26      4.16      0.00
   -2   17   26     19.72      0.00
  -16   18   26     -8.51      0.00
  -13   18   26     42.69      0.00
  -10   18   26      7.23      0.00
   -7   18   26    -41.90      0.00
   -4   18   26      6.80      0.00
   -1   18   26    -16.05      0.00
  -18   19   26     16.01      0.00
  -15   19   26     32.41      0.00
  -12   19   26    -24.29      0.00
   -9   19   26    -48.17      0.00
   -6   19   26    -48.94      0.00
   -3   19   26    -20.90      0.00
    0   19   26    -29.51      0.00
  -20   20   26    -14.88      0.00
  -17   20   26      6.73      0.00
  -14   20   26     23.51      0.00
  -11   20   26     31.74      0.00
   -8   20   26      6.03      0.00
   -5   20   26    -10.08      0.00
   -2   20   26      4.84      0.00
  -19   21   26     21.28      0.00
  -16   21   26      5.63      0.00
  -13   21   26      4.36      0.00
  -10   21   26      2.72      0.00
   -7   21   26     21.27      0.00
   -4   21   26      9.84      0.00
   -1   21   26     14.44      0.00
  -21   22   26    -27.70      0.00
  -18   22   26     29.83      0.00
  -15   22   26     24.27      0.00
  -12   22   26     29.50      0.00
   -9   22   26      8.09      0.00
   -6   22   26     19.98      0.00
   -3   22   26      7.13      0.00
    0   22   26    -16.67      0.00
  -23   23   26    -67.99      0.00
  -20   23   26     -0.11      0.00
  -17   23   26     20.15      0.00
  -14   23   26     19.65      0.00
  -11   23   26    -26.25      0.00
   -8   23   26    -24.28      0.00
   -5   23   26     -1.54      0.00
   -2   23   26     15.32      0.00
  -22   24   26    -44.64      0.00
  -19   24   26     11.74      0.00
  -16   24   26     -0.72      0.00
  -13   24   26      7.11      0.00
  -10   24   26     28.72      0.00
   -7   24   26    -13.23      0.00
   -4   24   26    -22.46      0.00
   -1   24   26    -13.66      0.00
  -24   25   26     -9.66      0.00
  -21   25   26    -23.22      0.00
  -18   25   26     17.60      0.00
  -15   25   26     -3.00      0.00
  -12   25   26      6.33      0.00
   -9   25   26    -10.04      0.00
   -6   25   26     -6.22      0.00
   -3   25   26     -0.77      0.00
    0   25   26     -5.26      0.00
  -26   26   26    -27.52      0.00
  -23   26   26     23.65      0.00
  -20   26   26      6.23      0.00
  -17   26   26     -8.75      0.00
  -14   26   26    -20.42      0.00
  -11   26   26    -30.53      0.00
   -8   26   26    -10.28      0.00
   -5   26   26     -2.12      0.00
   -2   26   26     -0.69      0.00
  -25   27   26     -5.47      0.00
  -22   27   26     -5.02      0.00
  -19   27   26    -32.74      0.00
  -16   27   26    -17.93      0.00
  -13   27   26      1.34      0.00
  -10   27   26     -6.66      0.00
   -7   27   26     12.90      0.00
   -4   27   26     24.90      0.00
   -1   27   26      2.73      0.00
  -27   28   26    -24.09      0.00
  -24   28   26    -18.98      0.00
  -21   28   26    -10.58      0.00
  -18   28   26      1.02      0.00
  -15   28   26     12.62      0.00
  -12   28   26     29.17      0.00
   -9   28   26     25.05      0.00
   -6   28   26     10.44      0.00
   -3   28   26     13.49      0.00
    0   28   26    -16.53      0.00
  -29   29   26      5.11      0.00
  -26   29   26     11.30      0.00
  -23   29   26      6.58      0.00
  -20   29   26     20.40      0.00
  -17   29   26     -2.27      0.00
  -14   29   26    -11.52      0.00
  -11   29   26     10.63      0.00
   -8   29   26      2.33      0.00
   -5   29   26      4.57      0.00
   -2   29   26     -0.45      0.00
  -28   30   26      7.55      0.00
  -25   30   26    -16.08      0.00
  -22   30   26      4.60      0.00
  -19   30   26     -7.01      0.00
  -16   30   26     28.19      0.00
  -13   30   26    -10.04      0.00
  -10   30   26      0.30      0.00
   -7   30   26     -1.45      0.00
   -4   30   26     13.85      0.00
   -1   30   26      1.04      0.00
  -30   31   26      3.72      0.00
  -27   31   26    -11.90      0.00
  -24   31   26     10.40      0.00
  -21   31   26     -4.11      0.00
  -18   31   26      4.99      0.00
  -15   31   26    -12.90      0.00
  -12   31   26      4.78      0.00
   -9   31   26    -11.73      0.00
   -6   31   26     12.47      0.00
   -3   31   26     -5.55      0.00
    0   31   26     27.38      0.00
  -32   32   26      9.31      0.00
  -29   32   26      9.73      0.00
  -26   32   26      7.97      0.00
  -23   32   26     23.44      0.00
  -20   32   26     22.16      0.00
  -17   32   26     32.49      0.00
  -14   32   26     -6.23      0.00
  -11   32   26      2.04      0.00
   -8   32   26     -8.98      0.00
   -5   32   26    -13.97      0.00
   -2   32   26    -12.79      0.00
  -31   33   26    -14.71      0.00
  -28   33   26      2.42      0.00
  -25   33   26     -9.14      0.00
  -22   33   26     -8.09      0.00
  -19   33   26     -5.41      0.00
  -16   33   26     -7.70      0.00
  -13   33   26    -35.79      0.00
  -10   33   26     11.53      0.00
   -7   33   26    -10.78      0.00
   -4   33   26    -10.29      0.00
   -1   33   26     -5.30      0.00
  -33   34   26     12.52      0.00
  -30   34   26    -46.98      0.00
  -27   34   26     13.31      0.00
  -24   34   26    -14.49      0.00
  -21   34   26     -3.17      0.00
  -18   34   26     -5.26      0.00
  -15   34   26      5.14      0.00
  -12   34   26     -7.37      0.00
   -9   34   26     -4.60      0.00
   -6   34   26      9.01      0.00
   -3   34   26     28.44      0.00
    0   34   26     30.39      0.00
  -35   35   26    -13.37      0.00
  -32   35   26     -3.89      0.00
  -29   35   26     13.99      0.00
  -26   35   26     12.42      0.00
  -23   35   26     12.92      0.00
  -20   35   26     55.38      0.00
  -17   35   26      1.85      0.00
  -14   35   26    -22.27      0.00
  -11   35   26      5.99      0.00
   -8   35   26      0.23      0.00
   -5   35   26    -25.65      0.00
   -2   35   26     -1.34      0.00
  -34   36   26     26.72      0.00
  -31   36   26      0.36      0.00
  -28   36   26     -1.51      0.00
  -25   36   26     -1.79      0.00
  -22   36   26     41.40      0.00
  -19   36   26    -24.57      0.00
  -16   36   26     -2.29      0.00
  -13   36   26     -5.39      0.00
  -10   36   26     -3.90      0.00
   -7   36   26     -1.83      0.00
   -4   36   26     35.90      0.00
   -1   36   26     10.51      0.00
  -36   37   26      3.52      0.00
  -33   37   26    -38.31      0.00
  -30   37   26     10.13      0.00
  -27   37   26    -36.81      0.00
  -24   37   26    -10.08      0.00
  -21   37   26     15.04      0.00
  -18   37   26     19.07      0.00
  -15   37   26     -5.07      0.00
  -12   37   26     -3.95      0.00
   -9   37   26    -38.63      0.00
   -6   37   26    -50.82      0.00
   -3   37   26    -48.25      0.00
    0   37   26     16.82      0.00
  -35   38   26    -53.02      0.00
  -32   38   26      5.14      0.00
  -29   38   26    -11.05      0.00
  -26   38   26     18.22      0.00
  -23   38   26     15.48      0.00
  -20   38   26     40.45      0.00
  -17   38   26     13.26      0.00
  -14   38   26    -29.80      0.00
  -11   38   26      1.16      0.00
   -8   38   26    -19.00      0.00
   -5   38   26     25.95      0.00
   -2   38   26      7.45      0.00
  -34   39   26     -8.30      0.00
  -31   39   26    -29.99      0.00
  -28   39   26     -9.38      0.00
  -25   39   26    -14.32      0.00
  -22   39   26     26.62      0.00
  -19   39   26     13.04      0.00
  -16   39   26     -7.87      0.00
  -13   39   26     -9.71      0.00
  -10   39   26     -7.62      0.00
   -7   39   26     -8.68      0.00
   -4   39   26     28.21      0.00
  -33   40   26    -15.07      0.00
  -30   40   26    -76.56      0.00
  -27   40   26    -28.48      0.00
  -24   40   26     40.74      0.00
  -21   40   26    -19.87      0.00
  -18   40   26     -8.75      0.00
  -15   40   26      1.97      0.00
  -12   40   26    -38.67      0.00
   -9   40   26      7.27      0.00
   -6   40   26    -16.56      0.00
  -35   41   26      6.88      0.00
  -32   41   26    -13.45      0.00
  -29   41   26     26.10      0.00
  -26   41   26      6.28      0.00
  -23   41   26      9.34      0.00
  -20   41   26    -24.26      0.00
  -17   41   26    -29.27      0.00
  -14   41   26      0.58      0.00
  -11   41   26     -0.84      0.00
   -8   41   26     38.59      0.00
  -34   42   26     -6.95      0.00
  -31   42   26    -49.02      0.00
  -28   42   26     -9.46      0.00
  -25   42   26    -30.61      0.00
  -22   42   26      8.82      0.00
  -19   42   26     -1.37      0.00
  -16   42   26     31.39      0.00
  -13   42   26     26.01      0.00
  -10   42   26    -10.79      0.00
  -30   43   26     -3.57      0.00
  -27   43   26      9.39      0.00
  -24   43   26    -18.36      0.00
  -21   43   26    -19.69      0.00
  -15   43   26    -51.23      0.00
  -12   43   26      8.22      0.00
  -29   44   26    -11.32      0.00
  -14   44   26     -7.55      0.00
   -1    2   27    -88.42      0.00
   -2    4   27    116.24      0.00
   -4    5   27    144.16      0.00
   -1    5   27     90.55      0.00
   -3    6   27     40.71      0.00
   -5    7   27    193.65      0.00
   -2    7   27     -8.57      0.00
   -7    8   27     36.82      0.00
   -4    8   27     51.98      0.00
   -1    8   27    -66.98      0.00
   -6    9   27      1.19      0.00
   -3    9   27     31.59      0.00
   -8   10   27     22.67      0.00
   -5   10   27     60.04      0.00
   -2   10   27    -31.24      0.00
  -10   11   27    -51.54      0.00
   -7   11   27     -7.96      0.00
   -4   11   27    -29.08      0.00
   -1   11   27      1.93      0.00
   -9   12   27     19.86      0.00
   -6   12   27    -30.41      0.00
   -3   12   27    -18.67      0.00
  -11   13   27     -7.72      0.00
   -8   13   27     19.29      0.00
   -5   13   27     55.08      0.00
   -2   13   27     47.09      0.00
  -13   14   27     30.64      0.00
  -10   14   27    -46.76      0.00
   -7   14   27     24.40      0.00
   -4   14   27      3.81      0.00
   -1   14   27    -17.78      0.00
  -12   15   27     18.34      0.00
   -9   15   27    -30.25      0.00
   -6   15   27     36.63      0.00
   -3   15   27     -5.32      0.00
  -14   16   27      2.85      0.00
  -11   16   27     -9.13      0.00
   -8   16   27    -52.14      0.00
   -5   16   27     -8.38      0.00
   -2   16   27     -5.86      0.00
  -16   17   27    -15.58      0.00
  -13   17   27     -7.98      0.00
  -10   17   27    -60.02      0.00
   -7   17   27    -27.11      0.00
   -4   17   27      1.27      0.00
   -1   17   27     16.30      0.00
  -15   18   27     -0.41      0.00
  -12   18   27    -46.32      0.00
   -9   18   27    -21.86      0.00
   -6   18   27      8.50      0.00
   -3   18   27    -37.47      0.00
  -17   19   27     -5.40      0.00
  -14   19   27    -47.68      0.00
  -11   19   27    -65.87      0.00
   -8   19   27    -37.93      0.00
   -5   19   27    -36.19      0.00
   -2   19   27    -10.32      0.00
  -19   20   27     -2.54      0.00
  -16   20   27    -47.30      0.00
  -13   20   27     -3.71      0.00
  -10   20   27    -31.10      0.00
   -7   20   27     12.93      0.00
   -4   20   27     -9.20      0.00
   -1   20   27     -8.47      0.00
  -18   21   27     -0.47      0.00
  -15   21   27      0.30      0.00
  -12   21   27     -3.82      0.00
   -9   21   27    -14.30      0.00
   -6   21   27     14.81      0.00
   -3   21   27     -9.72      0.00
  -20   22   27     41.07      0.00
  -17   22   27     -3.40      0.00
  -14   22   27    -29.59      0.00
  -11   22   27    -62.21      0.00
   -8   22   27    -36.64      0.00
   -5   22   27      9.02      0.00
   -2   22   27     -1.87      0.00
  -22   23   27     -8.13      0.00
  -19   23   27      2.86      0.00
  -16   23   27     -7.53      0.00
  -13   23   27     21.33      0.00
  -10   23   27     29.80      0.00
   -7   23   27     -4.97      0.00
   -4   23   27     -4.67      0.00
   -1   23   27    -15.54      0.00
  -21   24   27     15.57      0.00
  -18   24   27     -1.05      0.00
  -15   24   27      7.11      0.00
  -12   24   27      5.93      0.00
   -9   24   27     19.97      0.00
   -6   24   27     -9.75      0.00
   -3   24   27     -2.05      0.00
  -23   25   27      9.56      0.00
  -20   25   27      2.70      0.00
  -17   25   27     20.45      0.00
  -14   25   27     -2.96      0.00
  -11   25   27    -23.98      0.00
   -8   25   27      3.25      0.00
   -5   25   27     -2.87      0.00
   -2   25   27     13.37      0.00
  -25   26   27      5.69      0.00
  -22   26   27    -14.19      0.00
  -19   26   27     -2.45      0.00
  -16   26   27    -24.02      0.00
  -13   26   27      5.60      0.00
  -10   26   27     -3.48      0.00
   -7   26   27      4.20      0.00
   -4   26   27      9.82      0.00
   -1   26   27     -2.13      0.00
  -24   27   27    -23.26      0.00
  -21   27   27     -1.24      0.00
  -18   27   27    -24.48      0.00
  -15   27   27    -14.36      0.00
  -12   27   27     24.63      0.00
   -9   27   27     16.68      0.00
   -6   27   27      2.43      0.00
   -3   27   27     10.22      0.00
  -26   28   27     -6.59      0.00
  -23   28   27    -28.46      0.00
  -20   28   27    -11.63      0.00
  -17   28   27     17.54      0.00
  -14   28   27    -11.51      0.00
  -11   28   27     -1.15      0.00
   -8   28   27    -11.37      0.00
   -5   28   27      8.66      0.00
   -2   28   27     -6.97      0.00
  -28   29   27      2.90      0.00
  -25   29   27     -5.61      0.00
  -22   29   27    -12.15      0.00
  -19   29   27     -3.69      0.00
  -16   29   27     -1.34      0.00
  -13   29   27     39.05      0.00
  -10   29   27      2.73      0.00
   -7   29   27     -7.87      0.00
   -4   29   27      6.27      0.00
   -1   29   27     16.05      0.00
  -27   30   27    -22.12      0.00
  -24   30   27     -8.78      0.00
  -21   30   27     10.68      0.00
  -18   30   27     -7.13      0.00
  -15   30   27      7.04      0.00
  -12   30   27      9.75      0.00
   -9   30   27     26.45      0.00
   -6   30   27     -8.99      0.00
   -3   30   27      4.19      0.00
  -29   31   27    -19.02      0.00
  -26   31   27     -9.83      0.00
  -23   31   27     -6.09      0.00
  -20   31   27     18.88      0.00
  -17   31   27      4.90      0.00
  -14   31   27      2.78      0.00
  -11   31   27     28.88      0.00
   -8   31   27      7.20      0.00
   -5   31   27     -0.87      0.00
   -2   31   27    -11.26      0.00
  -31   32   27    -31.53      0.00
  -28   32   27      1.82      0.00
  -25   32   27     -9.75      0.00
  -22   32   27    -17.28      0.00
  -19   32   27    -32.82      0.00
  -16   32   27    -11.75      0.00
  -13   32   27     16.23      0.00
  -10   32   27     -2.86      0.00
   -7   32   27    -14.85      0.00
   -4   32   27     29.14      0.00
   -1   32   27     -4.30      0.00
  -30   33   27     28.86      0.00
  -27   33   27    -11.16      0.00
  -24   33   27     14.08      0.00
  -21   33   27     -8.41      0.00
  -18   33   27     18.44      0.00
  -15   33   27    -11.86      0.00
  -12   33   27    -16.26      0.00
   -9   33   27     -3.14      0.00
   -6   33   27     -2.70      0.00
   -3   33   27      8.18      0.00
  -32   34   27    -14.11      0.00
  -29   34   27    -14.22      0.00
  -26   34   27    -10.74      0.00
  -23   34   27    -13.68      0.00
  -20   34   27    -12.05      0.00
  -17   34   27      4.99      0.00
  -14   34   27      1.89      0.00
  -11   34   27      5.92      0.00
   -8   34   27     18.60      0.00
   -5   34   27     12.78      0.00
   -2   34   27     16.77      0.00
  -34   35   27     -0.09      0.00
  -31   35   27    -51.73      0.00
  -28   35   27    -10.67      0.00
  -25   35   27    -16.49      0.00
  -22   35   27      0.20      0.00
  -19   35   27    -25.46      0.00
  -16   35   27     10.43      0.00
  -13   35   27     -4.19      0.00
  -10   35   27    -10.74      0.00
   -7   35   27     24.46      0.00
   -4   35   27    -49.76      0.00
   -1   35   27     -5.12      0.00
  -33   36   27     -1.51      0.00
  -30   36   27     15.39      0.00
  -27   36   27     14.04      0.00
  -24   36   27      6.49      0.00
  -21   36   27      4.80      0.00
  -18   36   27    -15.84      0.00
  -15   36   27      1.56      0.00
  -12   36   27     53.47      0.00
   -9   36   27     16.69      0.00
   -6   36   27    -31.26      0.00
   -3   36   27    -31.73      0.00
  -35   37   27     -7.19      0.00
  -32   37   27    -10.64      0.00
  -29   37   27      5.84      0.00
  -26   37   27      8.74      0.00
  -23   37   27    -45.94      0.00
  -20   37   27     24.81      0.00
  -17   37   27      4.18      0.00
  -14   37   27     19.65      0.00
  -11   37   27     10.64      0.00
   -8   37   27     11.23      0.00
   -5   37   27    -14.96      0.00
   -2   37   27      4.25      0.00
  -34   38   27    -10.38      0.00
  -31   38   27     23.01      0.00
  -28   38   27      4.52      0.00
  -25   38   27     -7.28      0.00
  -22   38   27      1.85      0.00
  -19   38   27     15.50      0.00
  -16   38   27     29.70      0.00
  -13   38   27     -9.74      0.00
  -10   38   27    -15.55      0.00
   -7   38   27     10.93      0.00
   -4   38   27     14.84      0.00
  -36   39   27     29.38      0.00
  -33   39   27     11.52      0.00
  -30   39   27     17.97      0.00
  -27   39   27     -3.99      0.00
  -24   39   27     -3.18      0.00
  -21   39   27    -22.47      0.00
  -18   39   27    -17.16      0.00
  -15   39   27     14.91      0.00
  -12   39   27     -0.22      0.00
   -9   39   27     30.08      0.00
   -6   39   27      8.68      0.00
  -35   40   27     23.19      0.00
  -32   40   27      3.14      0.00
  -29   40   27    -37.01      0.00
  -26   40   27    -34.04      0.00
  -23   40   27    -11.13      0.00
  -20   40   27     -0.25      0.00
  -17   40   27      3.63      0.00
  -14   40   27     44.48      0.00
  -11   40   27    -33.66      0.00
   -8   40   27     -5.56      0.00
   -5   40   27      2.98      0.00
  -34   41   27     17.96      0.00
  -31   41   27      7.53      0.00
  -28   41   27     -3.39      0.00
  -25   41   27    -26.56      0.00
  -22   41   27    -16.73      0.00
  -19   41   27     29.06      0.00
  -16   41   27      0.02      0.00
  -13   41   27     28.52      0.00
  -10   41   27    -21.17      0.00
   -7   41   27     27.13      0.00
  -33   42   27     10.25      0.00
  -30   42   27    -24.34      0.00
  -27   42   27    -15.88      0.00
  -24   42   27      1.18      0.00
  -21   42   27     20.11      0.00
  -18   42   27    -13.63      0.00
  -15   42   27     -4.71      0.00
  -12   42   27    -13.38      0.00
   -9   42   27    -12.73      0.00
  -29   43   27      8.96      0.00
  -23   43   27     15.01      0.00
  -20   43   27     31.65      0.00
  -17   43   27     11.62      0.00
  -14   43   27    -14.31      0.00
   -1    1   28     -5.46      0.00
    0    2   28   -126.23      0.00
   -2    3   28   -157.65      0.00
   -4    4   28   -143.35      0.00
   -1    4   28    -30.26      0.00
   -3    5   28   -151.62      0.00
    0    5   28    -32.30      0.00
   -5    6   28    -15.27      0.00
   -2    6   28     84.47      0.00
   -7    7   28    170.75      0.00
   -4    7   28    -67.48      0.00
   -1    7   28     17.70      0.00
   -6    8   28    107.86      0.00
   -3    8   28     -8.64      0.00
    0    8   28      5.19      0.00
   -8    9   28     27.19      0.00
   -5    9   28    -46.56      0.00
   -2    9   28     37.71      0.00
  -10   10   28     -0.95      0.00
   -7   10   28     16.32      0.00
   -4   10   28     17.55      0.00
   -1   10   28    -10.89      0.00
   -9   11   28     -9.68      0.00
   -6   11   28    -67.78      0.00
   -3   11   28    -72.14      0.00
    0   11   28    -25.86      0.00
  -11   12   28    -70.02      0.00
   -8   12   28     21.06      0.00
   -5   12   28    -70.36      0.00
   -2   12   28      0.88      0.00
  -13   13   28    -44.24      0.00
  -10   13   28     11.59      0.00
   -7   13   28     96.36      0.00
   -4   13   28    -21.68      0.00
   -1   13   28    -24.83      0.00
  -12   14   28     -3.88      0.00
   -9   14   28     65.56      0.00
   -6   14   28     10.42      0.00
   -3   14   28    -55.52      0.00
    0   14   28    -23.62      0.00
  -14   15   28    -20.76      0.00
  -11   15   28    -30.99      0.00
   -8   15   28     -8.14      0.00
   -5   15   28    -94.72      0.00
   -2   15   28      3.37      0.00
  -16   16   28    -47.57      0.00
  -13   16   28    -10.85      0.00
  -10   16   28     38.32      0.00
   -7   16   28     38.55      0.00
   -4   16   28    -14.63      0.00
   -1   16   28      5.85      0.00
  -15   17   28    -21.79      0.00
  -12   17   28    -49.71      0.00
   -9   17   28    -48.81      0.00
   -6   17   28    -21.06      0.00
   -3   17   28    -48.05      0.00
    0   17   28    -21.82      0.00
  -17   18   28    -16.45      0.00
  -14   18   28     11.83      0.00
  -11   18   28     10.38      0.00
   -8   18   28      9.72      0.00
   -5   18   28    -53.11      0.00
   -2   18   28     -0.59      0.00
  -19   19   28     -1.01      0.00
  -16   19   28    -29.56      0.00
  -13   19   28     31.45      0.00
  -10   19   28      1.98      0.00
   -7   19   28    -10.75      0.00
   -4   19   28    -58.46      0.00
   -1   19   28    -33.24      0.00
  -18   20   28     -6.13      0.00
  -15   20   28     40.21      0.00
  -12   20   28      5.93      0.00
   -9   20   28      3.43      0.00
   -6   20   28     28.29      0.00
   -3   20   28     19.25      0.00
    0   20   28    -18.31      0.00
  -20   21   28      7.79      0.00
  -17   21   28     19.29      0.00
  -14   21   28     33.59      0.00
  -11   21   28     20.36      0.00
   -8   21   28    -37.07      0.00
   -5   21   28     25.23      0.00
   -2   21   28     -6.55      0.00
  -22   22   28     -3.21      0.00
  -19   22   28     27.88      0.00
  -16   22   28    -10.59      0.00
  -13   22   28     28.21      0.00
  -10   22   28     35.51      0.00
   -7   22   28    -10.18      0.00
   -4   22   28      1.87      0.00
   -1   22   28     13.22      0.00
  -21   23   28     -7.58      0.00
  -18   23   28    -16.63      0.00
  -15   23   28    -14.22      0.00
  -12   23   28      2.98      0.00
   -9   23   28     27.63      0.00
   -6   23   28     13.61      0.00
   -3   23   28     21.26      0.00
    0   23   28      4.28      0.00
  -23   24   28    -22.69      0.00
  -20   24   28     29.44      0.00
  -17   24   28      8.34      0.00
  -14   24   28     35.02      0.00
  -11   24   28      1.50      0.00
   -8   24   28    -34.80      0.00
   -5   24   28    -41.21      0.00
   -2   24   28    -12.78      0.00
  -25   25   28    -20.57      0.00
  -22   25   28     35.89      0.00
  -19   25   28     25.31      0.00
  -16   25   28    -22.18      0.00
  -13   25   28    -35.01      0.00
  -10   25   28    -30.37      0.00
   -7   25   28     13.45      0.00
   -4   25   28     -9.35      0.00
   -1   25   28     13.75      0.00
  -24   26   28    -20.79      0.00
  -21   26   28     -8.40      0.00
  -18   26   28     -9.34      0.00
  -15   26   28    -28.32      0.00
  -12   26   28     -4.32      0.00
   -9   26   28     -5.32      0.00
   -6   26   28     -3.43      0.00
   -3   26   28    -17.37      0.00
    0   26   28    -17.65      0.00
  -26   27   28    -15.83      0.00
  -23   27   28      2.76      0.00
  -20   27   28    -23.17      0.00
  -17   27   28     22.35      0.00
  -14   27   28     -2.28      0.00
  -11   27   28     -6.82      0.00
   -8   27   28    -28.56      0.00
   -5   27   28     -7.99      0.00
   -2   27   28     -3.88      0.00
  -28   28   28    -17.32      0.00
  -25   28   28      6.39      0.00
  -22   28   28     -5.01      0.00
  -19   28   28     -2.43      0.00
  -16   28   28      6.75      0.00
  -13   28   28     13.01      0.00
  -10   28   28     15.96      0.00
   -7   28   28    -24.69      0.00
   -4   28   28    -11.20      0.00
   -1   28   28    -11.81      0.00
  -27   29   28     10.96      0.00
  -24   29   28    -27.29      0.00
  -21   29   28     23.93      0.00
  -18   29   28    -20.95      0.00
  -15   29   28     -0.05      0.00
  -12   29   28     11.76      0.00
   -9   29   28      5.54      0.00
   -6   29   28      3.53      0.00
   -3   29   28    -20.94      0.00
    0   29   28    -22.80      0.00
  -29   30   28     -5.99      0.00
  -26   30   28      0.72      0.00
  -23   30   28     13.69      0.00
  -20   30   28     10.02      0.00
  -17   30   28     14.01      0.00
  -14   30   28      2.61      0.00
  -11   30   28     -2.89      0.00
   -8   30   28    -11.48      0.00
   -5   30   28     11.98      0.00
   -2   30   28     -0.05      0.00
  -31   31   28     16.42      0.00
  -28   31   28      9.90      0.00
  -25   31   28      9.96      0.00
  -22   31   28     -9.39      0.00
  -19   31   28    -25.29      0.00
  -16   31   28     -6.05      0.00
  -13   31   28    -33.92      0.00
  -10   31   28      3.30      0.00
   -7   31   28    -23.14      0.00
   -4   31   28     -4.53      0.00
   -1   31   28      0.74      0.00
  -30   32   28      3.75      0.00
  -27   32   28      1.73      0.00
  -24   32   28    -31.01      0.00
  -21   32   28     -6.50      0.00
  -18   32   28     -8.64      0.00
  -15   32   28      1.16      0.00
  -12   32   28    -24.85      0.00
   -9   32   28    -16.13      0.00
   -6   32   28     -9.62      0.00
   -3   32   28     10.25      0.00
    0   32   28      1.93      0.00
  -32   33   28    -23.00      0.00
  -29   33   28    -18.54      0.00
  -26   33   28    -28.19      0.00
  -23   33   28    -33.98      0.00
  -20   33   28    -37.45      0.00
  -17   33   28    -37.71      0.00
  -14   33   28    -30.04      0.00
  -11   33   28     -3.75      0.00
   -8   33   28     10.69      0.00
   -5   33   28    -12.75      0.00
   -2   33   28      0.60      0.00
  -34   34   28     48.70      0.00
  -31   34   28    -18.62      0.00
  -28   34   28    -30.61      0.00
  -25   34   28     -5.58      0.00
  -22   34   28      4.33      0.00
  -19   34   28      5.89      0.00
  -16   34   28    -15.63      0.00
  -13   34   28      9.54      0.00
  -10   34   28     10.59      0.00
   -7   34   28    -13.29      0.00
   -4   34   28      6.11      0.00
   -1   34   28     -6.64      0.00
  -33   35   28     19.04      0.00
  -30   35   28     -7.88      0.00
  -27   35   28     -3.14      0.00
  -24   35   28      8.30      0.00
  -21   35   28      0.72      0.00
  -18   35   28    -25.75      0.00
  -15   35   28      3.36      0.00
  -12   35   28     11.01      0.00
   -9   35   28     14.61      0.00
   -6   35   28     -6.88      0.00
   -3   35   28    -13.03      0.00
    0   35   28    -18.46      0.00
  -35   36   28     -4.35      0.00
  -32   36   28      4.41      0.00
  -29   36   28      5.14      0.00
  -26   36   28      4.49      0.00
  -23   36   28      1.67      0.00
  -20   36   28    -18.75      0.00
  -17   36   28     25.75      0.00
  -14   36   28    -62.53      0.00
  -11   36   28     16.44      0.00
   -8   36   28     -0.15      0.00
   -5   36   28     20.21      0.00
   -2   36   28     23.12      0.00
  -37   37   28     17.48      0.00
  -34   37   28      9.58      0.00
  -31   37   28     33.30      0.00
  -28   37   28      6.43      0.00
  -25   37   28      1.31      0.00
  -22   37   28     26.58      0.00
  -19   37   28     -3.16      0.00
  -16   37   28     11.64      0.00
  -13   37   28    -12.15      0.00
  -10   37   28      2.38      0.00
   -7   37   28    -16.44      0.00
   -4   37   28      8.54      0.00
   -1   37   28      6.85      0.00
  -36   38   28     37.08      0.00
  -33   38   28     11.43      0.00
  -30   38   28    -12.01      0.00
  -27   38   28      3.82      0.00
  -24   38   28     35.68      0.00
  -21   38   28      0.60      0.00
  -18   38   28    -11.00      0.00
  -15   38   28      0.94      0.00
  -12   38   28    -18.89      0.00
   -9   38   28     35.38      0.00
   -6   38   28    -13.03      0.00
   -3   38   28      9.05      0.00
  -35   39   28      9.15      0.00
  -32   39   28     59.41      0.00
  -29   39   28     18.85      0.00
  -26   39   28     11.63      0.00
  -23   39   28    -15.68      0.00
  -20   39   28    -16.54      0.00
  -17   39   28    -33.40      0.00
  -14   39   28     -7.05      0.00
  -11   39   28     -8.22      0.00
   -8   39   28      1.11      0.00
   -5   39   28    -49.08      0.00
  -34   40   28     -5.32      0.00
  -31   40   28    -10.68      0.00
  -28   40   28     16.74      0.00
  -25   40   28      4.61      0.00
  -22   40   28     27.12      0.00
  -19   40   28    -35.50      0.00
  -16   40   28     18.18      0.00
  -13   40   28      2.74      0.00
  -10   40   28     15.51      0.00
   -7   40   28     -1.57      0.00
  -30   41   28     22.30      0.00
  -27   41   28     36.12      0.00
  -24   41   28     -6.59      0.00
  -21   41   28    -14.76      0.00
  -18   41   28     -9.62      0.00
  -15   41   28      2.45      0.00
  -12   41   28    -22.36      0.00
   -9   41   28     19.52      0.00
  -32   42   28    -14.36      0.00
  -29   42   28     20.47      0.00
  -26   42   28     12.24      0.00
  -23   42   28    -19.03      0.00
  -17   42   28     16.51      0.00
  -14   42   28    -24.49      0.00
  -11   42   28     26.68      0.00
   -8   42   28    -10.73      0.00
  -28   43   28      8.43      0.00
  -25   43   28      9.27      0.00
  -19   43   28      4.37      0.00
  -16   43   28     12.04      0.00
  -13   43   28     -5.58      0.00
  -15   44   28     24.86      0.00
   -1    3   29     23.36      0.00
   -3    4   29    127.09      0.00
   -2    5   29    158.33      0.00
   -4    6   29    169.97      0.00
   -1    6   29    -59.08      0.00
   -6    7   29    -14.11      0.00
   -3    7   29      7.66      0.00
   -5    8   29    -88.52      0.00
   -2    8   29   -111.86      0.00
   -7    9   29     30.31      0.00
   -4    9   29    -49.75      0.00
   -1    9   29     32.27      0.00
   -9   10   29     -7.17      0.00
   -6   10   29   -162.88      0.00
   -3   10   29    -41.18      0.00
   -8   11   29    -30.29      0.00
   -5   11   29    -31.09      0.00
   -2   11   29    -22.98      0.00
  -10   12   29     24.24      0.00
   -7   12   29    -15.48      0.00
   -4   12   29     21.72      0.00
   -1   12   29     72.29      0.00
  -12   13   29     -6.66      0.00
   -9   13   29    -24.48      0.00
   -6   13   29      4.06      0.00
   -3   13   29     18.85      0.00
  -11   14   29     60.96      0.00
   -8   14   29    -34.14      0.00
   -5   14   29     22.99      0.00
   -2   14   29     -2.76      0.00
  -13   15   29      7.17      0.00
  -10   15   29    -83.01      0.00
   -7   15   29    -33.82      0.00
   -4   15   29     19.82      0.00
   -1   15   29    -13.66      0.00
  -15   16   29     18.65      0.00
  -12   16   29    -21.12      0.00
   -9   16   29     47.81      0.00
   -6   16   29     13.45      0.00
   -3   16   29     33.19      0.00
  -14   17   29     -2.15      0.00
  -11   17   29    -12.60      0.00
   -8   17   29     37.20      0.00
   -5   17   29    -15.07      0.00
   -2   17   29      8.46      0.00
  -16   18   29     16.00      0.00
  -13   18   29    -27.19      0.00
  -10   18   29     -7.42      0.00
   -7   18   29     22.45      0.00
   -4   18   29     -5.84      0.00
   -1   18   29     13.72      0.00
  -18   19   29    -13.69      0.00
  -15   19   29    -16.99      0.00
  -12   19   29    -12.91      0.00
   -9   19   29    -13.95      0.00
   -6   19   29     18.33      0.00
   -3   19   29      1.81      0.00
  -17   20   29     -8.55      0.00
  -14   20   29     -8.22      0.00
  -11   20   29     -5.08      0.00
   -8   20   29     -1.24      0.00
   -5   20   29      9.01      0.00
   -2   20   29     14.06      0.00
  -19   21   29     23.26      0.00
  -16   21   29    -13.10      0.00
  -13   21   29      6.44      0.00
  -10   21   29    -25.12      0.00
   -7   21   29    -19.48      0.00
   -4   21   29     41.55      0.00
   -1   21   29    -18.90      0.00
  -21   22   29     12.77      0.00
  -18   22   29    -11.67      0.00
  -15   22   29      5.45      0.00
  -12   22   29    -13.99      0.00
   -9   22   29    -34.32      0.00
   -6   22   29     -6.92      0.00
   -3   22   29      2.47      0.00
  -20   23   29      3.25      0.00
  -17   23   29    -16.08      0.00
  -14   23   29    -34.61      0.00
  -11   23   29    -18.11      0.00
   -8   23   29    -10.15      0.00
   -5   23   29    -20.24      0.00
   -2   23   29    -20.99      0.00
  -22   24   29    -13.01      0.00
  -19   24   29      7.39      0.00
  -16   24   29     15.19      0.00
  -13   24   29     11.99      0.00
  -10   24   29     -7.37      0.00
   -7   24   29     17.33      0.00
   -4   24   29    -24.01      0.00
   -1   24   29      7.55      0.00
  -24   25   29      7.89      0.00
  -21   25   29     -2.46      0.00
  -18   25   29     -2.09      0.00
  -15   25   29      1.89      0.00
  -12   25   29    -29.46      0.00
   -9   25   29    -35.73      0.00
   -6   25   29     -3.68      0.00
   -3   25   29     19.17      0.00
  -23   26   29    -28.77      0.00
  -20   26   29    -30.83      0.00
  -17   26   29    -16.11      0.00
  -14   26   29    -26.64      0.00
  -11   26   29    -21.68      0.00
   -8   26   29     -0.30      0.00
   -5   26   29     -1.85      0.00
   -2   26   29      3.23      0.00
  -25   27   29     -4.81      0.00
  -22   27   29    -19.88      0.00
  -19   27   29    -14.99      0.00
  -16   27   29      0.26      0.00
  -13   27   29    -17.22      0.00
  -10   27   29    -22.92      0.00
   -7   27   29    -17.32      0.00
   -4   27   29      5.08      0.00
   -1   27   29    -11.75      0.00
  -27   28   29     -6.69      0.00
  -24   28   29     13.54      0.00
  -21   28   29     18.03      0.00
  -18   28   29     28.04      0.00
  -15   28   29    -36.18      0.00
  -12   28   29     -4.29      0.00
   -9   28   29      5.68      0.00
   -6   28   29     18.11      0.00
   -3   28   29      9.43      0.00
  -26   29   29     -5.97      0.00
  -23   29   29     13.10      0.00
  -20   29   29    -10.14      0.00
  -17   29   29     -6.21      0.00
  -14   29   29    -23.36      0.00
  -11   29   29      1.65      0.00
   -8   29   29    -13.65      0.00
   -5   29   29      5.68      0.00
   -2   29   29     13.35      0.00
  -28   30   29     -3.84      0.00
  -25   30   29    -24.55      0.00
  -22   30   29      2.45      0.00
  -19   30   29     -0.08      0.00
  -16   30   29    -11.18      0.00
  -13   30   29      8.52      0.00
  -10   30   29     -8.27      0.00
   -7   30   29    -11.87      0.00
   -4   30   29     10.95      0.00
   -1   30   29     -6.06      0.00
  -30   31   29     15.17      0.00
  -27   31   29     11.01      0.00
  -24   31   29     -8.14      0.00
  -21   31   29      0.76      0.00
  -18   31   29    -14.59      0.00
  -15   31   29     -4.97      0.00
  -12   31   29    -11.88      0.00
   -9   31   29     -1.32      0.00
   -6   31   29     -7.82      0.00
   -3   31   29     13.16      0.00
  -29   32   29    -18.81      0.00
  -26   32   29     -9.05      0.00
  -23   32   29      6.67      0.00
  -20   32   29    -15.38      0.00
  -17   32   29      1.72      0.00
  -14   32   29    -13.06      0.00
  -11   32   29     -8.51      0.00
   -8   32   29     -2.29      0.00
   -5   32   29     20.79      0.00
   -2   32   29      7.54      0.00
  -31   33   29     11.36      0.00
  -28   33   29      3.60      0.00
  -25   33   29     -5.30      0.00
  -22   33   29     10.52      0.00
  -19   33   29     -1.70      0.00
  -16   33   29     11.58      0.00
  -13   33   29     -7.99      0.00
  -10   33   29     19.32      0.00
   -7   33   29     -4.34      0.00
   -4   33   29     -1.00      0.00
   -1   33   29      2.13      0.00
  -33   34   29     -3.89      0.00
  -30   34   29     17.39      0.00
  -27   34   29     31.00      0.00
  -24   34   29     15.46      0.00
  -21   34   29     11.10      0.00
  -18   34   29     17.74      0.00
  -15   34   29      9.45      0.00
  -12   34   29     29.91      0.00
   -9   34   29     -6.88      0.00
   -6   34   29     15.78      0.00
   -3   34   29     21.99      0.00
  -32   35   29     13.39      0.00
  -29   35   29     16.95      0.00
  -26   35   29     43.78      0.00
  -23   35   29    -13.76      0.00
  -20   35   29     39.82      0.00
  -17   35   29     10.69      0.00
  -14   35   29     -5.08      0.00
  -11   35   29     -8.21      0.00
   -8   35   29      7.82      0.00
   -5   35   29      4.01      0.00
   -2   35   29     -0.86      0.00
  -34   36   29      0.72      0.00
  -31   36   29    -30.92      0.00
  -28   36   29    -19.19      0.00
  -25   36   29     -3.03      0.00
  -22   36   29    -24.09      0.00
  -19   36   29     11.26      0.00
  -16   36   29     27.61      0.00
  -13   36   29      2.75      0.00
  -10   36   29     -2.20      0.00
   -7   36   29    -15.34      0.00
   -4   36   29     -7.94      0.00
   -1   36   29    -22.40      0.00
  -36   37   29      9.25      0.00
  -33   37   29     32.40      0.00
  -30   37   29     47.28      0.00
  -27   37   29     -4.56      0.00
  -24   37   29     15.28      0.00
  -21   37   29     -0.99      0.00
  -18   37   29     -1.96      0.00
  -15   37   29     -3.10      0.00
  -12   37   29     36.29      0.00
   -9   37   29     -0.40      0.00
   -6   37   29    -27.27      0.00
   -3   37   29     14.94      0.00
  -35   38   29      7.00      0.00
  -32   38   29     14.31      0.00
  -29   38   29     27.21      0.00
  -26   38   29     -2.08      0.00
  -23   38   29     15.22      0.00
  -20   38   29      6.85      0.00
  -17   38   29     51.95      0.00
  -14   38   29      9.12      0.00
  -11   38   29    -11.22      0.00
   -8   38   29    -23.49      0.00
   -5   38   29    -14.92      0.00
   -2   38   29     -5.61      0.00
  -34   39   29     23.83      0.00
  -31   39   29     -6.70      0.00
  -28   39   29     -4.32      0.00
  -25   39   29    -34.83      0.00
  -22   39   29    -13.29      0.00
  -19   39   29      4.36      0.00
  -16   39   29      7.67      0.00
  -13   39   29     45.94      0.00
  -10   39   29    -16.07      0.00
   -7   39   29     11.80      0.00
   -4   39   29      2.99      0.00
  -33   40   29      8.86      0.00
  -30   40   29    -39.01      0.00
  -27   40   29    -14.70      0.00
  -24   40   29     26.35      0.00
  -21   40   29      6.65      0.00
  -18   40   29    -37.81      0.00
  -15   40   29    -21.42      0.00
  -12   40   29     -7.06      0.00
   -9   40   29    -18.55      0.00
   -6   40   29     25.54      0.00
  -32   41   29      4.86      0.00
  -29   41   29     -4.62      0.00
  -26   41   29     35.48      0.00
  -23   41   29    -14.59      0.00
  -20   41   29     33.63      0.00
  -17   41   29     26.26      0.00
  -14   41   29     14.03      0.00
  -11   41   29    -12.11      0.00
   -8   41   29     -3.12      0.00
  -34   42   29      2.01      0.00
  -31   42   29    -21.44      0.00
  -28   42   29    -15.83      0.00
  -25   42   29    -13.93      0.00
  -22   42   29     -3.63      0.00
  -19   42   29      9.40      0.00
  -16   42   29      5.42      0.00
  -13   42   29    -21.20      0.00
  -10   42   29    -47.58      0.00
  -30   43   29     19.19      0.00
  -27   43   29     21.56      0.00
  -24   43   29     14.26      0.00
  -18   43   29    -27.01      0.00
  -15   43   29      2.80      0.00
    0    0   30    141.84      0.00
   -1    2   30    -20.87      0.00
   -3    3   30      8.96      0.00
    0    3   30    -31.48      0.00
   -2    4   30      2.01      0.00
   -4    5   30    -23.66      0.00
   -1    5   30     15.90      0.00
   -6    6   30      2.77      0.00
   -3    6   30    -60.47      0.00
    0    6   30    -77.02      0.00
   -5    7   30     -6.83      0.00
   -2    7   30    -27.11      0.00
   -7    8   30     94.50      0.00
   -4    8   30      6.25      0.00
   -1    8   30     25.11      0.00
   -9    9   30     12.59      0.00
   -6    9   30     63.16      0.00
   -3    9   30    -42.88      0.00
    0    9   30    -18.22      0.00
   -8   10   30     71.63      0.00
   -5   10   30     21.29      0.00
   -2   10   30     79.39      0.00
  -10   11   30    -44.78      0.00
   -7   11   30     12.11      0.00
   -4   11   30    -81.94      0.00
   -1   11   30    -62.15      0.00
  -12   12   30     22.13      0.00
   -9   12   30     65.15      0.00
   -6   12   30     14.09      0.00
   -3   12   30     27.92      0.00
    0   12   30    -39.62      0.00
  -11   13   30    -13.64      0.00
   -8   13   30     12.04      0.00
   -5   13   30     -8.39      0.00
   -2   13   30     42.08      0.00
  -13   14   30     46.85      0.00
  -10   14   30     34.09      0.00
   -7   14   30     37.01      0.00
   -4   14   30    -20.93      0.00
   -1   14   30    -45.58      0.00
  -15   15   30      8.24      0.00
  -12   15   30    -19.38      0.00
   -9   15   30     19.27      0.00
   -6   15   30     66.30      0.00
   -3   15   30    -15.81      0.00
    0   15   30     13.43      0.00
  -14   16   30    -30.84      0.00
  -11   16   30     13.08      0.00
   -8   16   30     31.55      0.00
   -5   16   30     54.23      0.00
   -2   16   30     -6.02      0.00
  -16   17   30      6.53      0.00
  -13   17   30    -18.90      0.00
  -10   17   30     31.14      0.00
   -7   17   30     14.37      0.00
   -4   17   30    -18.29      0.00
   -1   17   30     30.95      0.00
  -18   18   30     20.40      0.00
  -15   18   30     -1.50      0.00
  -12   18   30    -61.78      0.00
   -9   18   30     -1.16      0.00
   -6   18   30     44.89      0.00
   -3   18   30    -48.02      0.00
    0   18   30     11.18      0.00
  -17   19   30     22.21      0.00
  -14   19   30     -9.15      0.00
  -11   19   30    -12.56      0.00
   -8   19   30     25.60      0.00
   -5   19   30    -16.27      0.00
   -2   19   30    -18.00      0.00
  -19   20   30     14.90      0.00
  -16   20   30     27.95      0.00
  -13   20   30     28.62      0.00
  -10   20   30     46.44      0.00
   -7   20   30     36.07      0.00
   -4   20   30      9.80      0.00
   -1   20   30    -21.36      0.00
  -21   21   30     43.11      0.00
  -18   21   30     23.93      0.00
  -15   21   30     -9.19      0.00
  -12   21   30    -42.03      0.00
   -9   21   30    -11.71      0.00
   -6   21   30    -22.10      0.00
   -3   21   30     15.75      0.00
    0   21   30    -26.38      0.00
  -20   22   30      1.31      0.00
  -17   22   30    -11.18      0.00
  -14   22   30    -24.49      0.00
  -11   22   30     -8.77      0.00
   -8   22   30      1.13      0.00
   -5   22   30     -7.73      0.00
   -2   22   30    -25.86      0.00
  -22   23   30    -11.44      0.00
  -19   23   30      0.32      0.00
  -16   23   30    -42.39      0.00
  -13   23   30     33.03      0.00
  -10   23   30      3.97      0.00
   -7   23   30     38.18      0.00
   -4   23   30      1.02      0.00
   -1   23   30     -1.40      0.00
  -24   24   30    -15.21      0.00
  -21   24   30     19.32      0.00
  -18   24   30    -23.76      0.00
  -15   24   30    -14.42      0.00
  -12   24   30     -1.02      0.00
   -9   24   30    -21.10      0.00
   -6   24   30     12.40      0.00
   -3   24   30     -5.93      0.00
    0   24   30      9.39      0.00
  -23   25   30     15.92      0.00
  -20   25   30     -3.38      0.00
  -17   25   30    -14.79      0.00
  -14   25   30    -25.87      0.00
  -11   25   30    -24.45      0.00
   -8   25   30    -42.73      0.00
   -5   25   30     16.30      0.00
   -2   25   30     -5.96      0.00
  -25   26   30     -6.94      0.00
  -22   26   30      9.62      0.00
  -19   26   30    -29.05      0.00
  -16   26   30    -28.79      0.00
  -13   26   30    -16.57      0.00
  -10   26   30    -12.03      0.00
   -7   26   30     -5.42      0.00
   -4   26   30    -41.57      0.00
   -1   26   30      1.28      0.00
  -27   27   30     -8.96      0.00
  -24   27   30    -19.85      0.00
  -21   27   30     31.52      0.00
  -18   27   30      6.80      0.00
  -15   27   30      6.03      0.00
  -12   27   30    -11.22      0.00
   -9   27   30     17.30      0.00
   -6   27   30    -23.95      0.00
   -3   27   30      6.67      0.00
    0   27   30    -15.60      0.00
  -26   28   30     -1.82      0.00
  -23   28   30    -21.91      0.00
  -20   28   30      1.75      0.00
  -17   28   30      0.01      0.00
  -14   28   30     -2.69      0.00
  -11   28   30     15.81      0.00
   -8   28   30    -17.98      0.00
   -5   28   30      4.75      0.00
   -2   28   30      0.63      0.00
  -28   29   30    -10.30      0.00
  -25   29   30      5.83      0.00
  -22   29   30    -44.79      0.00
  -19   29   30     14.95      0.00
  -16   29   30     -3.11      0.00
  -13   29   30     -2.58      0.00
  -10   29   30     -5.32      0.00
   -7   29   30     -0.94      0.00
   -4   29   30      3.94      0.00
   -1   29   30     17.54      0.00
  -30   30   30     19.34      0.00
  -27   30   30     35.08      0.00
  -24   30   30    -20.89      0.00
  -21   30   30    -11.26      0.00
  -18   30   30     22.40      0.00
  -15   30   30      3.60      0.00
  -12   30   30    -12.49      0.00
   -9   30   30    -18.07      0.00
   -6   30   30      4.34      0.00
   -3   30   30     -6.88      0.00
    0   30   30      3.92      0.00
  -29   31   30     36.09      0.00
  -26   31   30    -22.42      0.00
  -23   31   30     -7.84      0.00
  -20   31   30     13.28      0.00
  -17   31   30     -8.96      0.00
  -14   31   30    -18.32      0.00
  -11   31   30     -4.61      0.00
   -8   31   30     17.98      0.00
   -5   31   30      5.60      0.00
   -2   31   30    -27.68      0.00
  -31   32   30     10.01      0.00
  -28   32   30     17.20      0.00
  -25   32   30     -3.67      0.00
  -22   32   30     -2.47      0.00
  -19   32   30    -10.70      0.00
  -16   32   30      2.06      0.00
  -13   32   30     18.80      0.00
  -10   32   30      0.28      0.00
   -7   32   30     -3.75      0.00
   -4   32   30      3.99      0.00
   -1   32   30      2.16      0.00
  -33   33   30     14.13      0.00
  -30   33   30      6.13      0.00
  -27   33   30     35.33      0.00
  -24   33   30      3.19      0.00
  -21   33   30     18.65      0.00
  -18   33   30    -12.82      0.00
  -15   33   30      3.11      0.00
  -12   33   30     13.40      0.00
   -9   33   30      6.46      0.00
   -6   33   30      0.85      0.00
   -3   33   30     -1.62      0.00
    0   33   30     -5.82      0.00
  -32   34   30      1.73      0.00
  -29   34   30    -14.81      0.00
  -26   34   30    -18.79      0.00
  -23   34   30      0.62      0.00
  -20   34   30      4.32      0.00
  -17   34   30     32.40      0.00
  -14   34   30    -31.34      0.00
  -11   34   30     -8.22      0.00
   -8   34   30    -25.28      0.00
   -5   34   30      1.26      0.00
   -2   34   30      0.77      0.00
  -34   35   30     -8.33      0.00
  -31   35   30     -1.71      0.00
  -28   35   30    -30.37      0.00
  -25   35   30      8.60      0.00
  -22   35   30    -15.35      0.00
  -19   35   30     -1.25      0.00
  -16   35   30     14.23      0.00
  -13   35   30    -25.68      0.00
  -10   35   30     37.83      0.00
   -7   35   30      2.05      0.00
   -4   35   30      8.39      0.00
   -1   35   30    -19.46      0.00
  -36   36   30     30.11      0.00
  -33   36   30      7.09      0.00
  -30   36   30     -9.94      0.00
  -27   36   30     29.39      0.00
  -24   36   30    -17.71      0.00
  -21   36   30      2.54      0.00
  -18   36   30      3.71      0.00
  -15   36   30    -26.92      0.00
  -12   36   30    -29.83      0.00
   -9   36   30      2.47      0.00
   -6   36   30     -0.12      0.00
   -3   36   30      8.42      0.00
    0   36   30     -3.41      0.00
  -35   37   30     20.59      0.00
  -32   37   30      3.74      0.00
  -29   37   30     22.39      0.00
  -26   37   30      7.99      0.00
  -23   37   30    -28.59      0.00
  -20   37   30    -34.60      0.00
  -17   37   30     19.14      0.00
  -14   37   30     22.64      0.00
  -11   37   30     11.52      0.00
   -8   37   30      8.46      0.00
   -5   37   30     -9.88      0.00
   -2   37   30    -22.25      0.00
  -34   38   30     47.63      0.00
  -31   38   30      0.23      0.00
  -28   38   30     -4.11      0.00
  -25   38   30     -8.51      0.00
  -22   38   30      2.12      0.00
  -19   38   30      0.37      0.00
  -16   38   30    -35.91      0.00
  -13   38   30     13.84      0.00
  -10   38   30    -11.27      0.00
   -7   38   30     32.88      0.00
   -4   38   30     -3.18      0.00
  -33   39   30     22.25      0.00
  -30   39   30     34.94      0.00
  -27   39   30    -14.77      0.00
  -24   39   30    -13.64      0.00
  -21   39   30      3.51      0.00
  -18   39   30    -14.77      0.00
  -15   39   30    -33.16      0.00
  -12   39   30    -47.25      0.00
   -9   39   30     23.81      0.00
   -6   39   30    -25.11      0.00
  -35   40   30      1.24      0.00
  -32   40   30      3.19      0.00
  -29   40   30     12.68      0.00
  -26   40   30      1.67      0.00
  -23   40   30    -21.34      0.00
  -20   40   30    -26.92      0.00
  -17   40   30     15.47      0.00
  -14   40   30    -30.43      0.00
  -11   40   30      8.31      0.00
   -8   40   30     29.95      0.00
  -34   41   30     14.35      0.00
  -31   41   30     10.95      0.00
  -28   41   30      2.61      0.00
  -25   41   30     22.70      0.00
  -22   41   30    -13.26      0.00
  -19   41   30    -10.04      0.00
  -16   41   30     -0.68      0.00
  -13   41   30    -18.96      0.00
  -10   41   30    -17.42      0.00
   -7   41   30    -20.98      0.00
  -33   42   30      5.60      0.00
  -30   42   30     -0.82      0.00
  -27   42   30    -27.44      0.00
  -24   42   30    -16.37      0.00
  -21   42   30     16.96      0.00
  -18   42   30     13.14      0.00
  -12   42   30    -12.69      0.00
  -29   43   30    -11.70      0.00
  -26   43   30     23.01      0.00
  -17   43   30      1.57      0.00
  -14   43   30    -23.64      0.00
   -2    3   31     38.65      0.00
   -1    4   31    -22.25      0.00
   -3    5   31    148.63      0.00
   -5    6   31     24.07      0.00
   -2    6   31     73.38      0.00
   -4    7   31     47.34      0.00
   -1    7   31   -110.61      0.00
   -6    8   31     10.71      0.00
   -3    8   31    -18.90      0.00
   -8    9   31      7.23      0.00
   -5    9   31   -121.61      0.00
   -2    9   31    -37.85      0.00
   -7   10   31    -36.20      0.00
   -4   10   31   -103.89      0.00
   -1   10   31    -37.68      0.00
   -9   11   31     74.37      0.00
   -6   11   31    -65.47      0.00
   -3   11   31    -36.46      0.00
  -11   12   31     48.93      0.00
   -8   12   31    -16.48      0.00
   -5   12   31    -18.26      0.00
   -2   12   31     78.64      0.00
  -10   13   31     59.73      0.00
   -7   13   31      9.95      0.00
   -4   13   31     16.66      0.00
   -1   13   31    -64.66      0.00
  -12   14   31     54.61      0.00
   -9   14   31    -42.35      0.00
   -6   14   31    -32.52      0.00
   -3   14   31     34.77      0.00
  -14   15   31     13.97      0.00
  -11   15   31     17.69      0.00
   -8   15   31      7.20      0.00
   -5   15   31    -24.16      0.00
   -2   15   31     14.79      0.00
  -13   16   31      4.70      0.00
  -10   16   31     10.43      0.00
   -7   16   31     82.13      0.00
   -4   16   31     -4.50      0.00
   -1   16   31     65.54      0.00
  -15   17   31     40.97      0.00
  -12   17   31    -16.05      0.00
   -9   17   31    -23.35      0.00
   -6   17   31    -23.59      0.00
   -3   17   31    -63.27      0.00
  -17   18   31     10.71      0.00
  -14   18   31      5.02      0.00
  -11   18   31     50.29      0.00
   -8   18   31     45.17      0.00
   -5   18   31     12.48      0.00
   -2   18   31    -41.02      0.00
  -16   19   31    -27.74      0.00
  -13   19   31    -27.55      0.00
  -10   19   31     15.95      0.00
   -7   19   31     20.35      0.00
   -4   19   31     -0.94      0.00
   -1   19   31      6.22      0.00
  -18   20   31     37.49      0.00
  -15   20   31     -8.74      0.00
  -12   20   31     -3.68      0.00
   -9   20   31    -14.31      0.00
   -6   20   31    -43.96      0.00
   -3   20   31     21.39      0.00
  -20   21   31     17.16      0.00
  -17   21   31     12.10      0.00
  -14   21   31    -41.69      0.00
  -11   21   31    -32.76      0.00
   -8   21   31      7.07      0.00
   -5   21   31    -53.04      0.00
   -2   21   31     -5.16      0.00
  -19   22   31     -9.99      0.00
  -16   22   31    -39.68      0.00
  -13   22   31    -26.41      0.00
  -10   22   31     43.55      0.00
   -7   22   31     36.45      0.00
   -4   22   31     25.11      0.00
   -1   22   31     13.68      0.00
  -21   23   31      7.38      0.00
  -18   23   31     -3.69      0.00
  -15   23   31     12.18      0.00
  -12   23   31     31.13      0.00
   -9   23   31     -6.17      0.00
   -6   23   31      9.56      0.00
   -3   23   31      1.62      0.00
  -23   24   31     17.85      0.00
  -20   24   31    -10.32      0.00
  -17   24   31     -0.52      0.00
  -14   24   31      8.71      0.00
  -11   24   31      9.35      0.00
   -8   24   31    -14.34      0.00
   -5   24   31    -28.10      0.00
   -2   24   31     -0.23      0.00
  -22   25   31     -4.06      0.00
  -19   25   31     -6.49      0.00
  -16   25   31    -26.38      0.00
  -13   25   31      5.77      0.00
  -10   25   31    -13.85      0.00
   -7   25   31    -13.46      0.00
   -4   25   31     -9.94      0.00
   -1   25   31    -17.12      0.00
  -24   26   31     -2.32      0.00
  -21   26   31    -12.65      0.00
  -18   26   31     -6.50      0.00
  -15   26   31      6.16      0.00
  -12   26   31     23.61      0.00
   -9   26   31     11.11      0.00
   -6   26   31      1.51      0.00
   -3   26   31     -7.60      0.00
  -26   27   31      1.25      0.00
  -23   27   31     20.77      0.00
  -20   27   31    -11.82      0.00
  -17   27   31      1.81      0.00
  -14   27   31    -31.27      0.00
  -11   27   31     -8.12      0.00
   -8   27   31      5.80      0.00
   -5   27   31    -16.18      0.00
   -2   27   31     12.95      0.00
  -25   28   31     -3.48      0.00
  -22   28   31      6.89      0.00
  -19   28   31    -42.73      0.00
  -16   28   31      2.35      0.00
  -13   28   31    -16.32      0.00
  -10   28   31     17.41      0.00
   -7   28   31     -6.61      0.00
   -4   28   31     -2.02      0.00
   -1   28   31      5.16      0.00
  -27   29   31     25.65      0.00
  -24   29   31     -7.21      0.00
  -21   29   31    -15.25      0.00
  -18   29   31    -12.67      0.00
  -15   29   31      3.91      0.00
  -12   29   31     -2.31      0.00
   -9   29   31      7.32      0.00
   -6   29   31      2.66      0.00
   -3   29   31     -2.09      0.00
  -29   30   31     -7.88      0.00
  -26   30   31    -10.87      0.00
  -23   30   31     -6.50      0.00
  -20   30   31     15.81      0.00
  -17   30   31     11.36      0.00
  -14   30   31     -3.03      0.00
  -11   30   31     16.40      0.00
   -8   30   31     -4.04      0.00
   -5   30   31      0.86      0.00
   -2   30   31    -17.47      0.00
  -28   31   31     22.47      0.00
  -25   31   31     -4.39      0.00
  -22   31   31    -10.97      0.00
  -19   31   31    -12.09      0.00
  -16   31   31    -20.41      0.00
  -13   31   31     16.27      0.00
  -10   31   31      0.83      0.00
   -7   31   31     -2.26      0.00
   -4   31   31    -10.21      0.00
   -1   31   31    -11.21      0.00
  -30   32   31     -1.39      0.00
  -27   32   31      8.36      0.00
  -24   32   31    -22.66      0.00
  -21   32   31     22.43      0.00
  -18   32   31      2.89      0.00
  -15   32   31      1.85      0.00
  -12   32   31     -9.30      0.00
   -9   32   31     -3.78      0.00
   -6   32   31     -1.13      0.00
   -3   32   31     -1.75      0.00
  -32   33   31     12.63      0.00
  -29   33   31     28.25      0.00
  -26   33   31    -13.23      0.00
  -23   33   31    -19.08      0.00
  -20   33   31     40.00      0.00
  -17   33   31     17.47      0.00
  -14   33   31      6.62      0.00
  -11   33   31      3.09      0.00
   -8   33   31    -28.37      0.00
   -5   33   31    -12.46      0.00
   -2   33   31      7.86      0.00
  -31   34   31    -19.34      0.00
  -28   34   31     -4.35      0.00
  -25   34   31    -26.06      0.00
  -22   34   31      0.92      0.00
  -19   34   31      2.86      0.00
  -16   34   31     -5.34      0.00
  -13   34   31     -5.40      0.00
  -10   34   31     -5.63      0.00
   -7   34   31     -8.94      0.00
   -4   34   31     -9.94      0.00
   -1   34   31     -5.41      0.00
  -33   35   31    -13.78      0.00
  -30   35   31     24.62      0.00
  -27   35   31    -30.08      0.00
  -24   35   31     -2.23      0.00
  -21   35   31    -11.76      0.00
  -18   35   31    -21.45      0.00
  -15   35   31    -13.30      0.00
  -12   35   31      3.53      0.00
   -9   35   31     10.37      0.00
   -6   35   31     -3.59      0.00
   -3   35   31     11.67      0.00
  -35   36   31     17.10      0.00
  -32   36   31     10.59      0.00
  -29   36   31    -19.80      0.00
  -26   36   31      9.36      0.00
  -23   36   31      0.97      0.00
  -20   36   31     -5.61      0.00
  -17   36   31     18.99      0.00
  -14   36   31     -9.92      0.00
  -11   36   31     -7.71      0.00
   -8   36   31     19.11      0.00
   -5   36   31    -15.23      0.00
   -2   36   31     -2.83      0.00
  -34   37   31     -3.82      0.00
  -31   37   31     56.58      0.00
  -28   37   31      3.18      0.00
  -25   37   31    -13.62      0.00
  -22   37   31      3.98      0.00
  -19   37   31      4.75      0.00
  -16   37   31     21.60      0.00
  -13   37   31    -30.58      0.00
  -10   37   31     -4.29      0.00
   -7   37   31    -13.16      0.00
   -4   37   31     18.81      0.00
   -1   37   31      1.42      0.00
  -36   38   31    -45.34      0.00
  -33   38   31     -1.64      0.00
  -30   38   31     -9.60      0.00
  -27   38   31     23.40      0.00
  -24   38   31     -3.26      0.00
  -21   38   31      5.76      0.00
  -18   38   31    -10.87      0.00
  -15   38   31    -18.06      0.00
  -12   38   31     11.81      0.00
   -9   38   31    -20.36      0.00
   -6   38   31      1.49      0.00
  -35   39   31     27.53      0.00
  -32   39   31    -19.34      0.00
  -29   39   31      1.05      0.00
  -26   39   31     30.84      0.00
  -23   39   31     11.20      0.00
  -20   39   31      6.41      0.00
  -17   39   31    -40.72      0.00
  -14   39   31     13.66      0.00
  -11   39   31    -44.11      0.00
   -8   39   31      4.43      0.00
   -5   39   31     13.34      0.00
  -34   40   31      1.17      0.00
  -31   40   31     -3.26      0.00
  -28   40   31     13.61      0.00
  -25   40   31     -4.75      0.00
  -22   40   31    -17.17      0.00
  -19   40   31     20.30      0.00
  -16   40   31    -17.34      0.00
  -13   40   31      8.03      0.00
  -10   40   31     -4.60      0.00
   -7   40   31      2.87      0.00
  -33   41   31    -59.43      0.00
  -30   41   31    -20.51      0.00
  -27   41   31      8.29      0.00
  -24   41   31      1.65      0.00
  -21   41   31     14.71      0.00
  -18   41   31    -10.61      0.00
  -15   41   31      8.19      0.00
  -12   41   31      1.92      0.00
   -9   41   31     13.71      0.00
  -29   42   31      1.15      0.00
  -26   42   31      7.52      0.00
  -23   42   31    -22.04      0.00
  -20   42   31     15.79      0.00
  -14   42   31    -38.97      0.00
  -11   42   31    -11.92      0.00
  -28   43   31      8.96      0.00
  -16   43   31    -14.12      0.00
  -13   43   31     37.11      0.00
    0    1   32    158.95      0.00
   -2    2   32     87.93      0.00
   -1    3   32    -37.20      0.00
   -3    4   32     39.96      0.00
    0    4   32     83.25      0.00
   -5    5   32     -1.87      0.00
   -2    5   32     -2.24      0.00
   -4    6   32    -30.19      0.00
   -1    6   32     18.38      0.00
   -6    7   32    -61.85      0.00
   -3    7   32     46.67      0.00
    0    7   32    -83.07      0.00
   -8    8   32    -38.21      0.00
   -5    8   32     66.97      0.00
   -2    8   32     -3.18      0.00
   -7    9   32    -13.29      0.00
   -4    9   32    -12.23      0.00
   -1    9   32     41.88      0.00
   -9   10   32     45.81      0.00
   -6   10   32     11.74      0.00
   -3   10   32     11.35      0.00
    0   10   32     33.80      0.00
  -11   11   32     32.71      0.00
   -8   11   32     87.51      0.00
   -5   11   32    -31.46      0.00
   -2   11   32     49.87      0.00
  -10   12   32    -19.11      0.00
   -7   12   32      8.31      0.00
   -4   12   32     10.21      0.00
   -1   12   32     57.57      0.00
  -12   13   32     61.62      0.00
   -9   13   32    -14.98      0.00
   -6   13   32    -24.69      0.00
   -3   13   32    -19.39      0.00
    0   13   32    -71.13      0.00
  -14   14   32     27.87      0.00
  -11   14   32     71.54      0.00
   -8   14   32    -11.89      0.00
   -5   14   32      8.00      0.00
   -2   14   32     16.02      0.00
  -13   15   32     14.36      0.00
  -10   15   32    -12.38      0.00
   -7   15   32     -9.66      0.00
   -4   15   32    111.01      0.00
   -1   15   32     -2.14      0.00
  -15   16   32     15.84      0.00
  -12   16   32     63.51      0.00
   -9   16   32     40.25      0.00
   -6   16   32    -13.54      0.00
   -3   16   32    -24.34      0.00
    0   16   32    -16.09      0.00
  -17   17   32     -2.48      0.00
  -14   17   32     43.16      0.00
  -11   17   32     -4.77      0.00
   -8   17   32     -2.20      0.00
   -5   17   32     51.28      0.00
   -2   17   32     16.03      0.00
  -16   18   32     -8.99      0.00
  -13   18   32     20.92      0.00
  -10   18   32    -30.38      0.00
   -7   18   32     10.37      0.00
   -4   18   32      1.39      0.00
   -1   18   32    -19.84      0.00
  -18   19   32      6.59      0.00
  -15   19   32     28.84      0.00
  -12   19   32     29.53      0.00
   -9   19   32      1.89      0.00
   -6   19   32    -10.46      0.00
   -3   19   32    -16.08      0.00
    0   19   32     -6.64      0.00
  -20   20   32     22.24      0.00
  -17   20   32     21.91      0.00
  -14   20   32     -6.01      0.00
  -11   20   32     -6.13      0.00
   -8   20   32     23.41      0.00
   -5   20   32     -9.87      0.00
   -2   20   32    -18.52      0.00
  -19   21   32     27.14      0.00
  -16   21   32      5.16      0.00
  -13   21   32      7.77      0.00
  -10   21   32      5.18      0.00
   -7   21   32     33.16      0.00
   -4   21   32      3.06      0.00
   -1   21   32     -8.30      0.00
  -21   22   32    -62.40      0.00
  -18   22   32     -5.10      0.00
  -15   22   32    -19.20      0.00
  -12   22   32     23.92      0.00
   -9   22   32     16.08      0.00
   -6   22   32     22.23      0.00
   -3   22   32      5.48      0.00
    0   22   32     -3.37      0.00
  -23   23   32    -22.50      0.00
  -20   23   32    -22.97      0.00
  -17   23   32     10.88      0.00
  -14   23   32     19.20      0.00
  -11   23   32     19.17      0.00
   -8   23   32     -2.98      0.00
   -5   23   32     25.21      0.00
   -2   23   32    -25.79      0.00
  -22   24   32    -19.59      0.00
  -19   24   32      0.24      0.00
  -16   24   32     -6.43      0.00
  -13   24   32      2.25      0.00
  -10   24   32     -4.72      0.00
   -7   24   32     -1.86      0.00
   -4   24   32    -12.61      0.00
   -1   24   32    -18.03      0.00
  -24   25   32     13.88      0.00
  -21   25   32      3.70      0.00
  -18   25   32    -17.96      0.00
  -15   25   32     -2.15      0.00
  -12   25   32      9.40      0.00
   -9   25   32     13.59      0.00
   -6   25   32     -5.14      0.00
   -3   25   32     23.95      0.00
    0   25   32    -17.49      0.00
  -26   26   32    -29.94      0.00
  -23   26   32     15.61      0.00
  -20   26   32      4.45      0.00
  -17   26   32    -12.47      0.00
  -14   26   32      4.84      0.00
  -11   26   32      5.81      0.00
   -8   26   32     -0.07      0.00
   -5   26   32     -5.98      0.00
   -2   26   32    -23.73      0.00
  -25   27   32     32.51      0.00
  -22   27   32      9.33      0.00
  -19   27   32     27.19      0.00
  -16   27   32     19.60      0.00
  -13   27   32     25.09      0.00
  -10   27   32    -16.50      0.00
   -7   27   32     24.91      0.00
   -4   27   32      0.39      0.00
   -1   27   32     13.73      0.00
  -27   28   32    -13.52      0.00
  -24   28   32     16.65      0.00
  -21   28   32    -25.59      0.00
  -18   28   32    -29.79      0.00
  -15   28   32    -11.94      0.00
  -12   28   32    -14.60      0.00
   -9   28   32     14.92      0.00
   -6   28   32      8.87      0.00
   -3   28   32     13.38      0.00
    0   28   32     -7.78      0.00
  -29   29   32    -15.55      0.00
  -26   29   32    -16.19      0.00
  -23   29   32      2.68      0.00
  -20   29   32    -15.97      0.00
  -17   29   32     21.30      0.00
  -14   29   32     -2.45      0.00
  -11   29   32     28.19      0.00
   -8   29   32    -16.33      0.00
   -5   29   32      5.28      0.00
   -2   29   32    -24.47      0.00
  -28   30   32     11.38      0.00
  -25   30   32     -7.85      0.00
  -22   30   32     25.27      0.00
  -19   30   32     -5.18      0.00
  -16   30   32      4.50      0.00
  -13   30   32     -7.37      0.00
  -10   30   32     -9.80      0.00
   -7   30   32      0.11      0.00
   -4   30   32     -1.24      0.00
   -1   30   32    -41.02      0.00
  -30   31   32     -0.10      0.00
  -27   31   32     14.47      0.00
  -24   31   32      9.06      0.00
  -21   31   32     20.23      0.00
  -18   31   32     -4.48      0.00
  -15   31   32    -12.67      0.00
  -12   31   32      5.42      0.00
   -9   31   32    -18.68      0.00
   -6   31   32     -8.54      0.00
   -3   31   32      1.84      0.00
    0   31   32    -27.36      0.00
  -32   32   32     11.83      0.00
  -29   32   32     23.40      0.00
  -26   32   32     11.52      0.00
  -23   32   32    -37.14      0.00
  -20   32   32    -15.80      0.00
  -17   32   32     26.07      0.00
  -14   32   32      8.90      0.00
  -11   32   32     -5.59      0.00
   -8   32   32    -12.46      0.00
   -5   32   32    -31.23      0.00
   -2   32   32    -42.67      0.00
  -31   33   32     -5.62      0.00
  -28   33   32    -15.85      0.00
  -25   33   32     23.50      0.00
  -22   33   32      3.70      0.00
  -19   33   32     -2.25      0.00
  -16   33   32     -7.46      0.00
  -13   33   32      4.03      0.00
  -10   33   32     35.30      0.00
   -7   33   32     -6.21      0.00
   -4   33   32    -36.02      0.00
   -1   33   32      9.23      0.00
  -33   34   32    -27.02      0.00
  -30   34   32    -13.65      0.00
  -27   34   32      4.66      0.00
  -24   34   32     -7.08      0.00
  -21   34   32      3.99      0.00
  -18   34   32    -27.01      0.00
  -15   34   32     -2.80      0.00
  -12   34   32    -23.43      0.00
   -9   34   32      1.63      0.00
   -6   34   32    -18.89      0.00
   -3   34   32    -15.76      0.00
    0   34   32    -31.99      0.00
  -35   35   32     27.51      0.00
  -32   35   32      3.10      0.00
  -29   35   32     20.90      0.00
  -26   35   32    -19.85      0.00
  -23   35   32    -19.44      0.00
  -20   35   32      6.42      0.00
  -17   35   32     25.77      0.00
  -14   35   32      6.93      0.00
  -11   35   32     13.00      0.00
   -8   35   32      2.58      0.00
   -5   35   32     -5.36      0.00
   -2   35   32    -21.42      0.00
  -34   36   32      2.13      0.00
  -31   36   32     25.73      0.00
  -28   36   32     -1.55      0.00
  -25   36   32    -24.53      0.00
  -22   36   32     -0.58      0.00
  -19   36   32    -22.11      0.00
  -16   36   32      6.39      0.00
  -13   36   32      2.96      0.00
  -10   36   32    -13.63      0.00
   -7   36   32    -17.74      0.00
   -4   36   32    -15.83      0.00
   -1   36   32    -11.80      0.00
  -36   37   32    -31.86      0.00
  -33   37   32    -40.13      0.00
  -30   37   32    -19.81      0.00
  -27   37   32      4.95      0.00
  -24   37   32    -15.65      0.00
  -21   37   32     29.32      0.00
  -18   37   32     17.48      0.00
  -15   37   32      4.94      0.00
  -12   37   32     36.90      0.00
   -9   37   32    -30.53      0.00
   -6   37   32    -31.07      0.00
   -3   37   32    -41.81      0.00
  -35   38   32      7.49      0.00
  -32   38   32     59.94      0.00
  -29   38   32     -8.16      0.00
  -26   38   32    -43.08      0.00
  -23   38   32     -8.95      0.00
  -20   38   32     -5.37      0.00
  -17   38   32     23.91      0.00
  -14   38   32      1.67      0.00
  -11   38   32      7.90      0.00
   -8   38   32    -41.20      0.00
   -5   38   32     -8.28      0.00
  -34   39   32     -0.86      0.00
  -31   39   32    -23.48      0.00
  -28   39   32    -11.10      0.00
  -25   39   32    -27.32      0.00
  -22   39   32    -31.35      0.00
  -19   39   32      1.36      0.00
  -16   39   32     10.81      0.00
  -13   39   32     -0.06      0.00
  -10   39   32    -11.08      0.00
   -7   39   32     -6.38      0.00
   -4   39   32    -16.97      0.00
  -33   40   32     12.54      0.00
  -30   40   32    -14.17      0.00
  -27   40   32    -25.52      0.00
  -24   40   32     -2.48      0.00
  -21   40   32     20.54      0.00
  -18   40   32     19.46      0.00
  -15   40   32     13.75      0.00
  -12   40   32     -7.34      0.00
   -9   40   32      7.82      0.00
   -6   40   32    -25.95      0.00
  -32   41   32    -34.33      0.00
  -29   41   32    -36.96      0.00
  -26   41   32    -18.67      0.00
  -23   41   32      8.92      0.00
  -20   41   32      9.47      0.00
  -17   41   32     26.69      0.00
  -14   41   32     25.92      0.00
  -11   41   32      1.37      0.00
   -8   41   32     -6.55      0.00
  -28   42   32    -15.50      0.00
  -25   42   32     -5.21      0.00
  -22   42   32    -32.21      0.00
  -19   42   32    -20.00      0.00
  -16   42   32    -16.39      0.00
  -13   42   32      9.85      0.00
  -30   43   32     18.88      0.00
  -27   43   32    -14.54      0.00
  -18   43   32     26.40      0.00
  -15   43   32     -5.73      0.00
   -1    2   33    -12.79      0.00
   -2    4   33     42.41      0.00
   -4    5   33     68.64      0.00
   -1    5   33   -103.24      0.00
   -3    6   33     32.72      0.00
   -5    7   33     75.45      0.00
   -2    7   33     35.79      0.00
   -7    8   33     22.22      0.00
   -4    8   33     14.77      0.00
   -1    8   33    -43.40      0.00
   -6    9   33     48.03      0.00
   -3    9   33    -57.84      0.00
   -8   10   33     23.34      0.00
   -5   10   33     10.89      0.00
   -2   10   33    -21.72      0.00
  -10   11   33     15.81      0.00
   -7   11   33     -5.29      0.00
   -4   11   33    -55.56      0.00
   -1   11   33    -45.81      0.00
   -9   12   33    -41.46      0.00
   -6   12   33    -22.81      0.00
   -3   12   33     -2.51      0.00
  -11   13   33     10.77      0.00
   -8   13   33     21.91      0.00
   -5   13   33      5.72      0.00
   -2   13   33     -4.21      0.00
  -13   14   33     14.65      0.00
  -10   14   33     25.53      0.00
   -7   14   33    -13.05      0.00
   -4   14   33    -20.60      0.00
   -1   14   33     62.04      0.00
  -12   15   33     -0.32      0.00
   -9   15   33     -6.58      0.00
   -6   15   33     52.13      0.00
   -3   15   33    -26.32      0.00
  -14   16   33     29.25      0.00
  -11   16   33      0.43      0.00
   -8   16   33     11.99      0.00
   -5   16   33     36.82      0.00
   -2   16   33    -26.70      0.00
  -16   17   33     14.98      0.00
  -13   17   33     21.42      0.00
  -10   17   33    -36.06      0.00
   -7   17   33    -43.41      0.00
   -4   17   33     -0.18      0.00
   -1   17   33    -21.88      0.00
  -15   18   33    -44.04      0.00
  -12   18   33    -33.16      0.00
   -9   18   33     -1.11      0.00
   -6   18   33     14.83      0.00
   -3   18   33     -1.57      0.00
  -17   19   33     25.48      0.00
  -14   19   33     18.64      0.00
  -11   19   33     -1.62      0.00
   -8   19   33     -6.21      0.00
   -5   19   33    -46.54      0.00
   -2   19   33    -25.68      0.00
  -19   20   33      4.12      0.00
  -16   20   33     -3.55      0.00
  -13   20   33    -25.77      0.00
  -10   20   33    -34.07      0.00
   -7   20   33     30.47      0.00
   -4   20   33    -17.41      0.00
   -1   20   33     22.35      0.00
  -18   21   33     -3.43      0.00
  -15   21   33    -25.69      0.00
  -12   21   33    -31.24      0.00
   -9   21   33      8.66      0.00
   -6   21   33    -33.84      0.00
   -3   21   33    -32.20      0.00
  -20   22   33     35.57      0.00
  -17   22   33     -8.23      0.00
  -14   22   33     23.25      0.00
  -11   22   33      2.23      0.00
   -8   22   33     13.47      0.00
   -5   22   33     17.44      0.00
   -2   22   33      6.18      0.00
  -22   23   33     23.01      0.00
  -19   23   33     21.42      0.00
  -16   23   33      2.57      0.00
  -13   23   33     18.36      0.00
  -10   23   33      8.39      0.00
   -7   23   33     -7.57      0.00
   -4   23   33      9.66      0.00
   -1   23   33      9.33      0.00
  -21   24   33     18.98      0.00
  -18   24   33     13.53      0.00
  -15   24   33     -1.89      0.00
  -12   24   33     17.63      0.00
   -9   24   33      4.71      0.00
   -6   24   33     -6.08      0.00
   -3   24   33     -9.07      0.00
  -23   25   33    -13.36      0.00
  -20   25   33     18.71      0.00
  -17   25   33     30.06      0.00
  -14   25   33      5.99      0.00
  -11   25   33      9.87      0.00
   -8   25   33     -4.57      0.00
   -5   25   33    -20.40      0.00
   -2   25   33      5.01      0.00
  -25   26   33     20.56      0.00
  -22   26   33    -13.52      0.00
  -19   26   33      2.86      0.00
  -16   26   33     15.81      0.00
  -13   26   33      5.64      0.00
  -10   26   33     -0.74      0.00
   -7   26   33     -8.91      0.00
   -4   26   33      3.57      0.00
   -1   26   33      4.33      0.00
  -24   27   33     11.25      0.00
  -21   27   33     -2.90      0.00
  -18   27   33    -24.09      0.00
  -15   27   33    -24.48      0.00
  -12   27   33     -6.33      0.00
   -9   27   33    -19.72      0.00
   -6   27   33    -19.82      0.00
   -3   27   33      8.05      0.00
  -26   28   33     -8.46      0.00
  -23   28   33    -19.67      0.00
  -20   28   33    -33.75      0.00
  -17   28   33    -18.74      0.00
  -14   28   33    -14.79      0.00
  -11   28   33    -18.00      0.00
   -8   28   33      9.37      0.00
   -5   28   33     10.49      0.00
   -2   28   33    -19.50      0.00
  -28   29   33    -18.71      0.00
  -25   29   33     10.56      0.00
  -22   29   33      6.60      0.00
  -19   29   33      0.67      0.00
  -16   29   33      2.90      0.00
  -13   29   33     11.69      0.00
  -10   29   33      9.98      0.00
   -7   29   33    -15.56      0.00
   -4   29   33    -10.11      0.00
   -1   29   33    -12.75      0.00
  -27   30   33      4.90      0.00
  -24   30   33     -9.72      0.00
  -21   30   33     26.55      0.00
  -18   30   33     44.09      0.00
  -15   30   33     15.67      0.00
  -12   30   33      3.46      0.00
   -9   30   33     20.63      0.00
   -6   30   33      2.36      0.00
   -3   30   33      9.06      0.00
  -29   31   33      1.80      0.00
  -26   31   33      5.07      0.00
  -23   31   33     -8.59      0.00
  -20   31   33    -11.40      0.00
  -17   31   33    -10.46      0.00
  -14   31   33    -18.55      0.00
  -11   31   33     29.10      0.00
   -8   31   33      9.87      0.00
   -5   31   33      9.49      0.00
   -2   31   33     11.58      0.00
  -31   32   33      4.28      0.00
  -28   32   33      9.68      0.00
  -25   32   33      9.68      0.00
  -22   32   33     17.73      0.00
  -19   32   33     17.62      0.00
  -16   32   33      2.66      0.00
  -13   32   33      6.54      0.00
  -10   32   33     -4.82      0.00
   -7   32   33      0.48      0.00
   -4   32   33     13.48      0.00
   -1   32   33    -19.87      0.00
  -30   33   33    -35.02      0.00
  -27   33   33     -9.76      0.00
  -24   33   33      8.02      0.00
  -21   33   33     -5.26      0.00
  -18   33   33    -12.73      0.00
  -15   33   33     17.05      0.00
  -12   33   33     12.68      0.00
   -9   33   33    -13.26      0.00
   -6   33   33      4.79      0.00
   -3   33   33      9.96      0.00
  -32   34   33    -15.08      0.00
  -29   34   33      8.15      0.00
  -26   34   33     -3.55      0.00
  -23   34   33    -20.48      0.00
  -20   34   33    -13.29      0.00
  -17   34   33    -15.84      0.00
  -14   34   33     -8.98      0.00
  -11   34   33      0.18      0.00
   -8   34   33     17.98      0.00
   -5   34   33      6.19      0.00
   -2   34   33     -6.11      0.00
  -34   35   33    -21.43      0.00
  -31   35   33      7.76      0.00
  -28   35   33    -16.21      0.00
  -25   35   33    -18.05      0.00
  -22   35   33      6.89      0.00
  -19   35   33     -3.80      0.00
  -16   35   33     -9.07      0.00
  -13   35   33    -19.47      0.00
  -10   35   33      9.41      0.00
   -7   35   33     23.86      0.00
   -4   35   33    -30.47      0.00
   -1   35   33    -11.66      0.00
  -33   36   33    -42.53      0.00
  -30   36   33    -15.96      0.00
  -27   36   33     -5.15      0.00
  -24   36   33     15.24      0.00
  -21   36   33    -10.76      0.00
  -18   36   33    -15.69      0.00
  -15   36   33     25.63      0.00
  -12   36   33     16.16      0.00
   -9   36   33     35.20      0.00
   -6   36   33    -15.84      0.00
   -3   36   33    -12.59      0.00
  -35   37   33      6.70      0.00
  -32   37   33    -12.76      0.00
  -29   37   33      1.46      0.00
  -26   37   33     35.57      0.00
  -23   37   33      3.11      0.00
  -20   37   33    -17.59      0.00
  -17   37   33      3.12      0.00
  -14   37   33     24.63      0.00
  -11   37   33    -23.23      0.00
   -8   37   33     48.20      0.00
   -5   37   33    -19.47      0.00
   -2   37   33     11.63      0.00
  -34   38   33     -8.97      0.00
  -31   38   33     49.18      0.00
  -28   38   33     28.99      0.00
  -25   38   33    -11.18      0.00
  -22   38   33      4.32      0.00
  -19   38   33    -21.78      0.00
  -16   38   33      4.35      0.00
  -13   38   33     24.29      0.00
  -10   38   33     -9.78      0.00
   -7   38   33      6.03      0.00
   -4   38   33    -18.30      0.00
  -33   39   33     20.29      0.00
  -30   39   33    -15.71      0.00
  -27   39   33      6.08      0.00
  -24   39   33      6.42      0.00
  -21   39   33     20.40      0.00
  -18   39   33      8.07      0.00
  -15   39   33     21.44      0.00
  -12   39   33      4.31      0.00
   -9   39   33     -7.07      0.00
   -6   39   33     31.34      0.00
  -32   40   33    -25.49      0.00
  -29   40   33     10.43      0.00
  -26   40   33     23.59      0.00
  -23   40   33     -5.75      0.00
  -20   40   33     27.70      0.00
  -17   40   33    -12.44      0.00
  -14   40   33     76.89      0.00
  -11   40   33    -12.77      0.00
   -8   40   33     37.95      0.00
  -34   41   33     -6.60      0.00
  -31   41   33     -8.06      0.00
  -25   41   33     17.46      0.00
  -22   41   33     -2.46      0.00
  -19   41   33     -4.08      0.00
  -16   41   33      7.34      0.00
  -13   41   33    -10.39      0.00
  -10   41   33     -4.95      0.00
   -7   41   33      5.67      0.00
  -30   42   33     21.01      0.00
  -27   42   33     26.35      0.00
  -24   42   33     -6.27      0.00
  -21   42   33     11.75      0.00
  -18   42   33     14.41      0.00
  -15   42   33      6.01      0.00
  -12   42   33      7.86      0.00
  -29   43   33      3.09      0.00
  -17   43   33     10.05      0.00
  -14   43   33     21.57      0.00
   -1    1   34     89.49      0.00
    0    2   34     72.81      0.00
   -2    3   34    -92.25      0.00
   -4    4   34    -88.61      0.00
   -1    4   34    -42.77      0.00
   -3    5   34    -40.89      0.00
    0    5   34      7.16      0.00
   -5    6   34     -6.23      0.00
   -2    6   34    -28.22      0.00
   -7    7   34     68.37      0.00
   -4    7   34    -16.54      0.00
   -1    7   34     43.86      0.00
   -6    8   34    -13.71      0.00
   -3    8   34     57.72      0.00
    0    8   34     -5.62      0.00
   -8    9   34     54.74      0.00
   -5    9   34    -78.71      0.00
   -2    9   34    -23.76      0.00
  -10   10   34    -25.15      0.00
   -7   10   34      8.43      0.00
   -4   10   34    -39.46      0.00
   -1   10   34     42.91      0.00
   -9   11   34    -26.03      0.00
   -6   11   34    -21.95      0.00
   -3   11   34     -4.71      0.00
    0   11   34     -2.09      0.00
  -11   12   34     16.41      0.00
   -8   12   34    -40.17      0.00
   -5   12   34    -45.29      0.00
   -2   12   34      1.64      0.00
  -13   13   34    -11.94      0.00
  -10   13   34     39.65      0.00
   -7   13   34     24.90      0.00
   -4   13   34    -50.63      0.00
   -1   13   34     30.70      0.00
  -12   14   34     -4.91      0.00
   -9   14   34     39.53      0.00
   -6   14   34    -17.48      0.00
   -3   14   34    -11.35      0.00
    0   14   34      2.93      0.00
  -14   15   34     11.50      0.00
  -11   15   34    -30.30      0.00
   -8   15   34      5.80      0.00
   -5   15   34      1.45      0.00
   -2   15   34     48.30      0.00
  -16   16   34    -21.21      0.00
  -13   16   34      0.84      0.00
  -10   16   34    -21.13      0.00
   -7   16   34    -29.38      0.00
   -4   16   34    -13.89      0.00
   -1   16   34     22.73      0.00
  -15   17   34     10.69      0.00
  -12   17   34     22.92      0.00
   -9   17   34    -52.36      0.00
   -6   17   34    -13.37      0.00
   -3   17   34    -29.51      0.00
    0   17   34    -11.21      0.00
  -17   18   34    -13.72      0.00
  -14   18   34     12.06      0.00
  -11   18   34     -0.15      0.00
   -8   18   34      7.64      0.00
   -5   18   34     21.06      0.00
   -2   18   34     25.03      0.00
  -19   19   34     24.20      0.00
  -16   19   34      4.80      0.00
  -13   19   34     36.27      0.00
  -10   19   34     -5.57      0.00
   -7   19   34    -26.88      0.00
   -4   19   34      0.00      0.00
   -1   19   34    -17.40      0.00
  -18   20   34     14.02      0.00
  -15   20   34     15.74      0.00
  -12   20   34     -3.78      0.00
   -9   20   34    -33.70      0.00
   -6   20   34     -8.96      0.00
   -3   20   34    -18.42      0.00
    0   20   34    -19.06      0.00
  -20   21   34    -19.51      0.00
  -17   21   34     -2.71      0.00
  -14   21   34     19.75      0.00
  -11   21   34     30.21      0.00
   -8   21   34     14.97      0.00
   -5   21   34     48.10      0.00
   -2   21   34     31.91      0.00
  -22   22   34     -1.46      0.00
  -19   22   34      5.31      0.00
  -16   22   34     12.40      0.00
  -13   22   34      2.94      0.00
  -10   22   34     -3.96      0.00
   -7   22   34     -1.19      0.00
   -4   22   34     28.13      0.00
   -1   22   34     13.56      0.00
  -21   23   34      6.83      0.00
  -18   23   34     32.98      0.00
  -15   23   34     12.00      0.00
  -12   23   34      6.97      0.00
   -9   23   34      0.82      0.00
   -6   23   34     -0.04      0.00
   -3   23   34      2.47      0.00
    0   23   34     -1.09      0.00
  -23   24   34    -38.02      0.00
  -20   24   34     11.90      0.00
  -17   24   34    -10.18      0.00
  -14   24   34      6.02      0.00
  -11   24   34      0.91      0.00
   -8   24   34    -18.46      0.00
   -5   24   34    -26.61      0.00
   -2   24   34    -14.82      0.00
  -25   25   34    -10.66      0.00
  -22   25   34      8.60      0.00
  -19   25   34     19.80      0.00
  -16   25   34     34.78      0.00
  -13   25   34     16.41      0.00
  -10   25   34    -12.84      0.00
   -7   25   34      1.88      0.00
   -4   25   34    -14.17      0.00
   -1   25   34     -5.96      0.00
  -24   26   34      8.31      0.00
  -21   26   34     -9.29      0.00
  -18   26   34      1.35      0.00
  -15   26   34    -28.13      0.00
  -12   26   34    -29.13      0.00
   -9   26   34    -14.79      0.00
   -6   26   34      5.47      0.00
   -3   26   34      6.99      0.00
    0   26   34     -0.27      0.00
  -26   27   34      3.05      0.00
  -23   27   34     -8.73      0.00
  -20   27   34    -13.62      0.00
  -17   27   34      6.65      0.00
  -14   27   34    -16.54      0.00
  -11   27   34      3.24      0.00
   -8   27   34    -11.25      0.00
   -5   27   34      0.80      0.00
   -2   27   34    -23.35      0.00
  -28   28   34    -26.44      0.00
  -25   28   34     -3.13      0.00
  -22   28   34      5.01      0.00
  -19   28   34     -2.60      0.00
  -16   28   34     20.24      0.00
  -13   28   34     22.23      0.00
  -10   28   34      7.29      0.00
   -7   28   34     10.74      0.00
   -4   28   34     -0.41      0.00
   -1   28   34    -17.53      0.00
  -27   29   34     -4.39      0.00
  -24   29   34     -6.75      0.00
  -21   29   34     10.97      0.00
  -18   29   34      4.34      0.00
  -15   29   34     34.82      0.00
  -12   29   34     14.06      0.00
   -9   29   34     37.65      0.00
   -6   29   34     -2.71      0.00
   -3   29   34     11.30      0.00
    0   29   34     -2.34      0.00
  -29   30   34     15.89      0.00
  -26   30   34     29.82      0.00
  -23   30   34    -17.57      0.00
  -20   30   34     -1.59      0.00
  -17   30   34      0.22      0.00
  -14   30   34    -24.15      0.00
  -11   30   34    -10.83      0.00
   -8   30   34    -25.64      0.00
   -5   30   34      4.82      0.00
   -2   30   34      0.33      0.00
  -31   31   34     -5.14      0.00
  -28   31   34    -10.96      0.00
  -25   31   34      0.22      0.00
  -22   31   34      6.40      0.00
  -19   31   34    -10.68      0.00
  -16   31   34     13.70      0.00
  -13   31   34      6.89      0.00
  -10   31   34     -5.42      0.00
   -7   31   34    -27.56      0.00
   -4   31   34     -1.14      0.00
   -1   31   34     22.78      0.00
  -30   32   34     23.93      0.00
  -27   32   34     -3.85      0.00
  -24   32   34    -13.11      0.00
  -21   32   34    -41.77      0.00
  -18   32   34    -12.37      0.00
  -15   32   34    -12.78      0.00
  -12   32   34      1.78      0.00
   -9   32   34     15.73      0.00
   -6   32   34    -11.83      0.00
   -3   32   34    -23.17      0.00
    0   32   34    -16.09      0.00
  -32   33   34     15.64      0.00
  -29   33   34    -14.33      0.00
  -26   33   34    -17.95      0.00
  -23   33   34     -5.67      0.00
  -20   33   34      4.55      0.00
  -17   33   34     -3.13      0.00
  -14   33   34    -18.43      0.00
  -11   33   34     -0.18      0.00
   -8   33   34      7.64      0.00
   -5   33   34    -13.94      0.00
   -2   33   34    -10.21      0.00
  -34   34   34     -8.48      0.00
  -31   34   34     -6.35      0.00
  -28   34   34     20.99      0.00
  -25   34   34    -25.88      0.00
  -22   34   34    -17.10      0.00
  -19   34   34    -15.03      0.00
  -16   34   34      4.72      0.00
  -13   34   34    -17.71      0.00
  -10   34   34      0.01      0.00
   -7   34   34     -3.35      0.00
   -4   34   34     20.71      0.00
   -1   34   34     13.05      0.00
  -33   35   34     12.15      0.00
  -30   35   34    -14.72      0.00
  -27   35   34    -13.07      0.00
  -24   35   34     45.84      0.00
  -21   35   34     67.44      0.00
  -18   35   34    -19.39      0.00
  -15   35   34     31.92      0.00
  -12   35   34     33.11      0.00
   -9   35   34      8.30      0.00
   -6   35   34     -4.67      0.00
   -3   35   34     51.41      0.00
    0   35   34     31.93      0.00
  -35   36   34      3.01      0.00
  -32   36   34     26.69      0.00
  -29   36   34     12.86      0.00
  -26   36   34     24.08      0.00
  -23   36   34     11.85      0.00
  -20   36   34      3.05      0.00
  -17   36   34     25.00      0.00
  -14   36   34     -4.99      0.00
  -11   36   34     19.15      0.00
   -8   36   34    -11.61      0.00
   -5   36   34     -0.36      0.00
   -2   36   34    -21.81      0.00
  -34   37   34    -42.30      0.00
  -31   37   34      9.57      0.00
  -28   37   34     18.16      0.00
  -25   37   34     13.60      0.00
  -22   37   34     23.84      0.00
  -19   37   34     24.23      0.00
  -16   37   34     15.55      0.00
  -13   37   34    -54.07      0.00
  -10   37   34     21.85      0.00
   -7   37   34    -20.92      0.00
   -4   37   34     21.73      0.00
   -1   37   34     24.96      0.00
  -33   38   34     -0.25      0.00
  -30   38   34     46.34      0.00
  -27   38   34      8.92      0.00
  -24   38   34     29.90      0.00
  -21   38   34     10.95      0.00
  -18   38   34     14.74      0.00
  -15   38   34     14.56      0.00
  -12   38   34     -2.87      0.00
   -9   38   34      1.51      0.00
   -6   38   34    -35.08      0.00
   -3   38   34     12.26      0.00
  -35   39   34    -39.10      0.00
  -32   39   34     -7.24      0.00
  -29   39   34    -36.13      0.00
  -26   39   34      0.53      0.00
  -23   39   34     52.02      0.00
  -20   39   34      0.94      0.00
  -17   39   34     -7.68      0.00
  -14   39   34     11.64      0.00
  -11   39   34    -33.27      0.00
   -8   39   34      0.95      0.00
   -5   39   34     -7.43      0.00
  -34   40   34     12.55      0.00
  -31   40   34     -8.60      0.00
  -28   40   34     58.13      0.00
  -25   40   34      4.19      0.00
  -22   40   34     10.21      0.00
  -19   40   34    -12.43      0.00
  -16   40   34     -3.89      0.00
  -13   40   34     -7.41      0.00
  -10   40   34     14.92      0.00
   -7   40   34     36.39      0.00
  -33   41   34    -20.07      0.00
  -30   41   34     12.97      0.00
  -27   41   34     12.47      0.00
  -24   41   34     -6.55      0.00
  -21   41   34     13.63      0.00
  -18   41   34      0.76      0.00
  -15   41   34     29.72      0.00
  -12   41   34      0.05      0.00
   -9   41   34      8.69      0.00
  -29   42   34     30.37      0.00
  -26   42   34     13.43      0.00
  -23   42   34     -9.31      0.00
  -20   42   34    -21.08      0.00
  -14   42   34    -24.28      0.00
  -28   43   34      5.92      0.00
  -25   43   34     20.03      0.00
  -16   43   34     15.92      0.00
   -1    3   35     20.58      0.00
   -3    4   35     38.00      0.00
   -2    5   35    100.62      0.00
   -4    6   35    156.58      0.00
   -1    6   35     17.68      0.00
   -6    7   35     46.71      0.00
   -3    7   35    -23.02      0.00
   -5    8   35     25.59      0.00
   -2    8   35    -47.07      0.00
   -7    9   35      8.36      0.00
   -4    9   35      5.18      0.00
   -1    9   35     -2.23      0.00
   -9   10   35     -2.03      0.00
   -6   10   35    -32.79      0.00
   -3   10   35      8.50      0.00
   -8   11   35     -8.28      0.00
   -5   11   35      4.34      0.00
   -2   11   35     28.00      0.00
  -10   12   35     27.99      0.00
   -7   12   35    -19.96      0.00
   -4   12   35    -18.58      0.00
   -1   12   35     -8.25      0.00
  -12   13   35     20.01      0.00
   -9   13   35     24.94      0.00
   -6   13   35     36.47      0.00
   -3   13   35     27.40      0.00
  -11   14   35    -36.92      0.00
   -8   14   35     -2.50      0.00
   -5   14   35     24.81      0.00
   -2   14   35     26.92      0.00
  -13   15   35     32.68      0.00
  -10   15   35     -0.81      0.00
   -7   15   35    -15.49      0.00
   -4   15   35    -41.59      0.00
   -1   15   35    -56.01      0.00
  -15   16   35    -16.42      0.00
  -12   16   35     17.74      0.00
   -9   16   35      8.91      0.00
   -6   16   35     10.15      0.00
   -3   16   35     13.27      0.00
  -14   17   35     -9.33      0.00
  -11   17   35    -25.16      0.00
   -8   17   35     -0.53      0.00
   -5   17   35     26.99      0.00
   -2   17   35      8.50      0.00
  -16   18   35     23.94      0.00
  -13   18   35    -36.03      0.00
  -10   18   35    -14.13      0.00
   -7   18   35     -3.70      0.00
   -4   18   35    -27.47      0.00
   -1   18   35     16.69      0.00
  -18   19   35    -10.60      0.00
  -15   19   35     -3.04      0.00
  -12   19   35      5.77      0.00
   -9   19   35     -7.71      0.00
   -6   19   35    -11.10      0.00
   -3   19   35    -16.59      0.00
  -17   20   35    -26.56      0.00
  -14   20   35    -21.06      0.00
  -11   20   35    -38.31      0.00
   -8   20   35    -21.85      0.00
   -5   20   35     18.26      0.00
   -2   20   35      1.86      0.00
  -19   21   35     44.19      0.00
  -16   21   35     -7.87      0.00
  -13   21   35     23.45      0.00
  -10   21   35    -34.37      0.00
   -7   21   35     -4.75      0.00
   -4   21   35     24.05      0.00
   -1   21   35     16.51      0.00
  -21   22   35     27.92      0.00
  -18   22   35     20.19      0.00
  -15   22   35     -0.41      0.00
  -12   22   35     -6.13      0.00
   -9   22   35    -11.10      0.00
   -6   22   35     17.80      0.00
   -3   22   35     -3.23      0.00
  -20   23   35     26.92      0.00
  -17   23   35     21.99      0.00
  -14   23   35     13.58      0.00
  -11   23   35     11.39      0.00
   -8   23   35      0.69      0.00
   -5   23   35     -7.34      0.00
   -2   23   35    -24.47      0.00
  -22   24   35     -3.77      0.00
  -19   24   35      9.76      0.00
  -16   24   35     -4.54      0.00
  -13   24   35     12.11      0.00
  -10   24   35      3.87      0.00
   -7   24   35     25.00      0.00
   -4   24   35      5.84      0.00
   -1   24   35     21.76      0.00
  -24   25   35      3.51      0.00
  -21   25   35    -14.15      0.00
  -18   25   35     16.23      0.00
  -15   25   35     -7.90      0.00
  -12   25   35      5.92      0.00
   -9   25   35      4.64      0.00
   -6   25   35      1.53      0.00
   -3   25   35      2.94      0.00
  -23   26   35     11.82      0.00
  -20   26   35      0.84      0.00
  -17   26   35     13.29      0.00
  -14   26   35    -26.91      0.00
  -11   26   35    -15.97      0.00
   -8   26   35    -14.42      0.00
   -5   26   35     16.04      0.00
   -2   26   35      5.34      0.00
  -25   27   35     -8.02      0.00
  -22   27   35      7.34      0.00
  -19   27   35    -30.61      0.00
  -16   27   35    -12.15      0.00
  -13   27   35      5.27      0.00
  -10   27   35      3.32      0.00
   -7   27   35    -10.18      0.00
   -4   27   35     18.46      0.00
   -1   27   35     -9.05      0.00
  -27   28   35     27.61      0.00
  -24   28   35    -14.10      0.00
  -21   28   35     14.13      0.00
  -18   28   35     13.14      0.00
  -15   28   35    -25.72      0.00
  -12   28   35     -5.13      0.00
   -9   28   35     -9.05      0.00
   -6   28   35      4.99      0.00
   -3   28   35    -18.91      0.00
  -26   29   35      9.92      0.00
  -23   29   35      5.40      0.00
  -20   29   35      4.11      0.00
  -17   29   35     15.86      0.00
  -14   29   35     14.99      0.00
  -11   29   35     -5.26      0.00
   -8   29   35    -11.46      0.00
   -5   29   35    -13.65      0.00
   -2   29   35    -11.84      0.00
  -28   30   35    -17.60      0.00
  -25   30   35      9.70      0.00
  -22   30   35     -3.32      0.00
  -19   30   35      1.74      0.00
  -16   30   35      3.55      0.00
  -13   30   35     12.96      0.00
  -10   30   35      6.85      0.00
   -7   30   35     -7.90      0.00
   -4   30   35    -16.53      0.00
   -1   30   35     -7.54      0.00
  -30   31   35    -18.73      0.00
  -27   31   35     -5.81      0.00
  -24   31   35     22.56      0.00
  -21   31   35      4.40      0.00
  -18   31   35    -14.44      0.00
  -15   31   35      7.90      0.00
  -12   31   35     11.12      0.00
   -9   31   35      1.54      0.00
   -6   31   35    -35.16      0.00
   -3   31   35    -12.50      0.00
  -29   32   35     20.47      0.00
  -26   32   35     16.13      0.00
  -23   32   35      8.01      0.00
  -20   32   35      2.91      0.00
  -17   32   35     26.91      0.00
  -14   32   35     -7.70      0.00
  -11   32   35     21.41      0.00
   -8   32   35     -6.35      0.00
   -5   32   35     20.38      0.00
   -2   32   35     -8.51      0.00
  -31   33   35      4.84      0.00
  -28   33   35     -9.16      0.00
  -25   33   35     20.24      0.00
  -22   33   35     -2.94      0.00
  -19   33   35     28.86      0.00
  -16   33   35      3.96      0.00
  -13   33   35    -11.14      0.00
  -10   33   35    -25.35      0.00
   -7   33   35    -35.66      0.00
   -4   33   35     21.04      0.00
   -1   33   35     45.75      0.00
  -33   34   35     19.25      0.00
  -30   34   35      0.89      0.00
  -27   34   35     19.31      0.00
  -24   34   35     29.84      0.00
  -21   34   35     16.78      0.00
  -18   34   35     37.67      0.00
  -15   34   35     13.58      0.00
  -12   34   35     11.66      0.00
   -9   34   35    -12.95      0.00
   -6   34   35      7.86      0.00
   -3   34   35    -10.10      0.00
  -32   35   35      2.36      0.00
  -29   35   35      2.29      0.00
  -26   35   35     25.67      0.00
  -23   35   35     -9.99      0.00
  -20   35   35     17.61      0.00
  -17   35   35     -3.73      0.00
  -14   35   35    -21.44      0.00
  -11   35   35      1.60      0.00
   -8   35   35     20.15      0.00
   -5   35   35     -4.28      0.00
   -2   35   35    -18.83      0.00
  -34   36   35      3.07      0.00
  -31   36   35      1.81      0.00
  -28   36   35      9.58      0.00
  -25   36   35     13.42      0.00
  -22   36   35      2.79      0.00
  -19   36   35    -24.99      0.00
  -16   36   35     30.35      0.00
  -13   36   35      2.49      0.00
  -10   36   35    -28.47      0.00
   -7   36   35     -5.74      0.00
   -4   36   35    -32.71      0.00
   -1   36   35    -14.96      0.00
  -33   37   35      1.81      0.00
  -30   37   35     -6.71      0.00
  -27   37   35     -9.87      0.00
  -24   37   35     19.27      0.00
  -21   37   35     16.34      0.00
  -18   37   35    -25.73      0.00
  -15   37   35    -11.82      0.00
  -12   37   35     -5.59      0.00
   -9   37   35    -21.66      0.00
   -6   37   35    -41.07      0.00
   -3   37   35    -27.24      0.00
  -35   38   35     32.27      0.00
  -32   38   35     34.08      0.00
  -29   38   35     13.20      0.00
  -26   38   35    -11.88      0.00
  -23   38   35    -14.73      0.00
  -20   38   35    -20.11      0.00
  -17   38   35    -11.96      0.00
  -14   38   35     20.02      0.00
  -11   38   35    -11.94      0.00
   -8   38   35     20.47      0.00
   -5   38   35     31.60      0.00
  -34   39   35      1.91      0.00
  -31   39   35     -4.72      0.00
  -28   39   35    -31.07      0.00
  -25   39   35      3.93      0.00
  -22   39   35    -23.07      0.00
  -19   39   35     -8.66      0.00
  -16   39   35      4.88      0.00
  -13   39   35     -9.56      0.00
  -10   39   35     -6.84      0.00
   -7   39   35    -17.25      0.00
  -33   40   35     12.09      0.00
  -30   40   35     16.52      0.00
  -27   40   35      8.47      0.00
  -24   40   35     12.08      0.00
  -21   40   35    -28.67      0.00
  -18   40   35      9.46      0.00
  -15   40   35     -5.10      0.00
  -12   40   35     35.03      0.00
   -9   40   35      0.37      0.00
   -6   40   35     16.29      0.00
  -32   41   35     13.14      0.00
  -29   41   35    -31.23      0.00
  -26   41   35    -13.50      0.00
  -23   41   35    -26.52      0.00
  -20   41   35      3.63      0.00
  -17   41   35    -42.91      0.00
  -14   41   35     41.60      0.00
  -11   41   35    -30.74      0.00
   -8   41   35     55.50      0.00
  -28   42   35     25.33      0.00
  -25   42   35     10.84      0.00
  -22   42   35     -3.07      0.00
  -19   42   35    -33.35      0.00
  -16   42   35     27.95      0.00
  -13   42   35    -34.42      0.00
  -15   43   35    -16.76      0.00
    0    0   36    207.68      0.00
   -1    2   36      8.82      0.00
   -3    3   36     40.77      0.00
    0    3   36     32.73      0.00
   -2    4   36     25.96      0.00
   -4    5   36      6.60      0.00
   -1    5   36     51.36      0.00
   -6    6   36    127.38      0.00
   -3    6   36     21.15      0.00
    0    6   36     11.67      0.00
   -5    7   36     54.45      0.00
   -2    7   36     59.91      0.00
   -7    8   36     77.95      0.00
   -4    8   36    -36.19      0.00
   -1    8   36     31.53      0.00
   -9    9   36    -27.31      0.00
   -6    9   36     88.75      0.00
   -3    9   36     41.86      0.00
    0    9   36     23.36      0.00
   -8   10   36      9.38      0.00
   -5   10   36     16.90      0.00
   -2   10   36     20.62      0.00
  -10   11   36      9.21      0.00
   -7   11   36      6.68      0.00
   -4   11   36    -37.06      0.00
   -1   11   36    -24.60      0.00
  -12   12   36    -15.96      0.00
   -9   12   36     33.92      0.00
   -6   12   36     40.39      0.00
   -3   12   36     43.13      0.00
    0   12   36     38.27      0.00
  -11   13   36      5.50      0.00
   -8   13   36     23.80      0.00
   -5   13   36      6.27      0.00
   -2   13   36     -1.96      0.00
  -13   14   36     40.28      0.00
  -10   14   36      1.66      0.00
   -7   14   36     30.84      0.00
   -4   14   36      1.51      0.00
   -1   14   36     13.49      0.00
  -15   15   36      3.66      0.00
  -12   15   36    -22.86      0.00
   -9   15   36     46.99      0.00
   -6   15   36     16.42      0.00
   -3   15   36      2.68      0.00
    0   15   36     12.42      0.00
  -14   16   36     -8.51      0.00
  -11   16   36     -7.44      0.00
   -8   16   36     -8.96      0.00
   -5   16   36     10.61      0.00
   -2   16   36     13.37      0.00
  -16   17   36      2.98      0.00
  -13   17   36    -27.51      0.00
  -10   17   36     -7.85      0.00
   -7   17   36     16.98      0.00
   -4   17   36    -24.41      0.00
   -1   17   36     22.58      0.00
  -18   18   36     29.81      0.00
  -15   18   36     -3.66      0.00
  -12   18   36     10.19      0.00
   -9   18   36     12.11      0.00
   -6   18   36     24.54      0.00
   -3   18   36    -60.29      0.00
    0   18   36      5.76      0.00
  -17   19   36      1.96      0.00
  -14   19   36     38.96      0.00
  -11   19   36      8.04      0.00
   -8   19   36     25.07      0.00
   -5   19   36    -29.80      0.00
   -2   19   36     30.86      0.00
  -19   20   36    -11.62      0.00
  -16   20   36     18.87      0.00
  -13   20   36     -8.32      0.00
  -10   20   36     -2.38      0.00
   -7   20   36      2.35      0.00
   -4   20   36      4.51      0.00
   -1   20   36    -19.54      0.00
  -21   21   36     31.11      0.00
  -18   21   36     32.18      0.00
  -15   21   36     31.64      0.00
  -12   21   36     12.60      0.00
   -9   21   36    -12.29      0.00
   -6   21   36      3.72      0.00
   -3   21   36      1.06      0.00
    0   21   36     16.81      0.00
  -20   22   36     27.78      0.00
  -17   22   36    -10.73      0.00
  -14   22   36     22.22      0.00
  -11   22   36     22.47      0.00
   -8   22   36      6.57      0.00
   -5   22   36      7.13      0.00
   -2   22   36     17.92      0.00
  -22   23   36    -16.35      0.00
  -19   23   36     -9.88      0.00
  -16   23   36    -19.17      0.00
  -13   23   36     27.84      0.00
  -10   23   36     -3.31      0.00
   -7   23   36     -5.30      0.00
   -4   23   36     -7.15      0.00
   -1   23   36      2.66      0.00
  -24   24   36     24.00      0.00
  -21   24   36     12.06      0.00
  -18   24   36     -8.51      0.00
  -15   24   36     -7.86      0.00
  -12   24   36    -17.70      0.00
   -9   24   36    -36.08      0.00
   -6   24   36     10.57      0.00
   -3   24   36      0.32      0.00
    0   24   36     18.87      0.00
  -23   25   36     11.82      0.00
  -20   25   36      9.40      0.00
  -17   25   36    -12.06      0.00
  -14   25   36      7.40      0.00
  -11   25   36      0.32      0.00
   -8   25   36     -0.53      0.00
   -5   25   36    -11.82      0.00
   -2   25   36     16.86      0.00
  -25   26   36    -19.35      0.00
  -22   26   36     36.28      0.00
  -19   26   36     18.13      0.00
  -16   26   36     -3.77      0.00
  -13   26   36    -13.50      0.00
  -10   26   36    -25.76      0.00
   -7   26   36    -12.64      0.00
   -4   26   36    -26.56      0.00
   -1   26   36      6.23      0.00
  -27   27   36    -11.75      0.00
  -24   27   36      0.32      0.00
  -21   27   36    -10.52      0.00
  -18   27   36     20.90      0.00
  -15   27   36     -9.17      0.00
  -12   27   36    -10.95      0.00
   -9   27   36     -1.09      0.00
   -6   27   36     -3.39      0.00
   -3   27   36     -1.13      0.00
    0   27   36     -5.53      0.00
  -26   28   36     28.51      0.00
  -23   28   36    -34.94      0.00
  -20   28   36     20.97      0.00
  -17   28   36     20.27      0.00
  -14   28   36     19.15      0.00
  -11   28   36     25.96      0.00
   -8   28   36    -10.61      0.00
   -5   28   36     -4.42      0.00
   -2   28   36     14.66      0.00
  -28   29   36     17.96      0.00
  -25   29   36     -3.46      0.00
  -22   29   36     10.41      0.00
  -19   29   36     25.25      0.00
  -16   29   36     19.21      0.00
  -13   29   36     31.93      0.00
  -10   29   36     -1.43      0.00
   -7   29   36    -13.35      0.00
   -4   29   36      4.25      0.00
   -1   29   36      5.75      0.00
  -30   30   36     -5.07      0.00
  -27   30   36     20.16      0.00
  -24   30   36      7.30      0.00
  -21   30   36     -3.83      0.00
  -18   30   36     -4.51      0.00
  -15   30   36      0.50      0.00
  -12   30   36      0.37      0.00
   -9   30   36     23.63      0.00
   -6   30   36     15.27      0.00
   -3   30   36    -10.72      0.00
    0   30   36    -14.27      0.00
  -29   31   36      8.26      0.00
  -26   31   36     29.36      0.00
  -23   31   36    -19.52      0.00
  -20   31   36     21.52      0.00
  -17   31   36     -4.45      0.00
  -14   31   36    -28.99      0.00
  -11   31   36     -7.62      0.00
   -8   31   36      0.27      0.00
   -5   31   36      3.96      0.00
   -2   31   36     15.45      0.00
  -31   32   36     25.56      0.00
  -28   32   36     27.81      0.00
  -25   32   36    -17.46      0.00
  -22   32   36     -0.56      0.00
  -19   32   36     -8.33      0.00
  -16   32   36     27.24      0.00
  -13   32   36     -0.70      0.00
  -10   32   36      9.10      0.00
   -7   32   36    -10.60      0.00
   -4   32   36    -33.50      0.00
   -1   32   36     -9.97      0.00
  -33   33   36      0.80      0.00
  -30   33   36    -22.35      0.00
  -27   33   36    -12.97      0.00
  -24   33   36      4.10      0.00
  -21   33   36     11.89      0.00
  -18   33   36    -23.10      0.00
  -15   33   36      4.91      0.00
  -12   33   36     -1.22      0.00
   -9   33   36     16.98      0.00
   -6   33   36     -4.03      0.00
   -3   33   36    -26.11      0.00
    0   33   36    -28.36      0.00
  -32   34   36      5.37      0.00
  -29   34   36    -18.94      0.00
  -26   34   36     32.22      0.00
  -23   34   36    -29.76      0.00
  -20   34   36    -16.95      0.00
  -17   34   36      2.30      0.00
  -14   34   36      3.73      0.00
  -11   34   36      5.86      0.00
   -8   34   36      6.00      0.00
   -5   34   36      4.17      0.00
   -2   34   36    -16.42      0.00
  -34   35   36     12.42      0.00
  -31   35   36     -8.50      0.00
  -28   35   36      1.89      0.00
  -25   35   36     26.31      0.00
  -22   35   36     15.90      0.00
  -19   35   36     13.28      0.00
  -16   35   36     16.15      0.00
  -13   35   36      2.56      0.00
  -10   35   36     39.63      0.00
   -7   35   36    -40.88      0.00
   -4   35   36    -18.83      0.00
   -1   35   36    -35.58      0.00
  -36   36   36     26.30      0.00
  -33   36   36     30.47      0.00
  -30   36   36      0.53      0.00
  -27   36   36    -11.77      0.00
  -24   36   36    -19.00      0.00
  -21   36   36     -5.76      0.00
  -18   36   36     19.41      0.00
  -15   36   36     -9.79      0.00
  -12   36   36     33.90      0.00
   -9   36   36      1.56      0.00
   -6   36   36     -7.58      0.00
   -3   36   36     13.22      0.00
    0   36   36    -11.99      0.00
  -35   37   36     15.42      0.00
  -32   37   36    -19.27      0.00
  -29   37   36    -17.71      0.00
  -26   37   36     11.39      0.00
  -23   37   36    -17.73      0.00
  -20   37   36     -7.52      0.00
  -17   37   36     16.22      0.00
  -14   37   36    -13.68      0.00
  -11   37   36    -21.61      0.00
   -8   37   36      7.73      0.00
   -5   37   36    -10.72      0.00
   -2   37   36    -29.05      0.00
  -34   38   36     17.96      0.00
  -31   38   36     14.34      0.00
  -28   38   36     70.16      0.00
  -25   38   36    -24.75      0.00
  -22   38   36     -9.81      0.00
  -19   38   36     -7.96      0.00
  -16   38   36     18.90      0.00
  -13   38   36     47.35      0.00
  -10   38   36     -8.31      0.00
   -7   38   36     -9.93      0.00
   -4   38   36    -50.74      0.00
  -33   39   36     -2.37      0.00
  -30   39   36     -7.76      0.00
  -27   39   36    -39.09      0.00
  -24   39   36     21.00      0.00
  -21   39   36     29.62      0.00
  -18   39   36    -13.87      0.00
  -15   39   36     38.13      0.00
  -12   39   36      5.62      0.00
   -9   39   36     35.59      0.00
   -6   39   36    -25.60      0.00
  -32   40   36     39.12      0.00
  -29   40   36     40.70      0.00
  -26   40   36      6.72      0.00
  -23   40   36    -29.62      0.00
  -20   40   36    -12.30      0.00
  -17   40   36      6.69      0.00
  -14   40   36     -5.31      0.00
  -11   40   36      1.32      0.00
   -8   40   36    -18.43      0.00
  -31   41   36     -8.18      0.00
  -28   41   36      2.55      0.00
  -25   41   36     29.08      0.00
  -22   41   36     14.43      0.00
  -19   41   36     25.04      0.00
  -16   41   36     14.05      0.00
  -13   41   36    -24.37      0.00
  -10   41   36     11.88      0.00
  -30   42   36     11.74      0.00
  -27   42   36     21.67      0.00
  -24   42   36     16.97      0.00
  -18   42   36     33.50      0.00
  -15   42   36     17.25      0.00
  -26   43   36    -10.15      0.00
   -2    3   37     30.83      0.00
   -1    4   37     -2.53      0.00
   -3    5   37    130.95      0.00
   -5    6   37     29.16      0.00
   -2    6   37     64.00      0.00
   -4    7   37      6.20      0.00
   -1    7   37    -37.04      0.00
   -6    8   37    -26.27      0.00
   -3    8   37    -39.98      0.00
   -8    9   37      5.18      0.00
   -5    9   37    -62.95      0.00
   -2    9   37     10.19      0.00
   -7   10   37      7.20      0.00
   -4   10   37    -17.84      0.00
   -1   10   37     28.31      0.00
   -9   11   37     40.19      0.00
   -6   11   37    -45.96      0.00
   -3   11   37     25.86      0.00
  -11   12   37     20.05      0.00
   -8   12   37      5.11      0.00
   -5   12   37     32.10      0.00
   -2   12   37     73.77      0.00
  -10   13   37     49.74      0.00
   -7   13   37     21.56      0.00
   -4   13   37     35.86      0.00
   -1   13   37     12.38      0.00
  -12   14   37     34.78      0.00
   -9   14   37    -27.18      0.00
   -6   14   37    -12.42      0.00
   -3   14   37     -4.75      0.00
  -14   15   37     -2.85      0.00
  -11   15   37    -15.54      0.00
   -8   15   37      2.95      0.00
   -5   15   37     10.65      0.00
   -2   15   37      1.98      0.00
  -13   16   37     -7.04      0.00
  -10   16   37      0.87      0.00
   -7   16   37    -17.96      0.00
   -4   16   37    -18.31      0.00
   -1   16   37    -10.56      0.00
  -15   17   37     39.43      0.00
  -12   17   37      6.27      0.00
   -9   17   37     56.76      0.00
   -6   17   37      2.53      0.00
   -3   17   37     12.25      0.00
  -17   18   37    -15.03      0.00
  -14   18   37    -44.87      0.00
  -11   18   37     12.99      0.00
   -8   18   37     27.36      0.00
   -5   18   37      3.36      0.00
   -2   18   37     18.83      0.00
  -16   19   37     12.60      0.00
  -13   19   37      9.63      0.00
  -10   19   37    -27.49      0.00
   -7   19   37    -19.87      0.00
   -4   19   37    -23.44      0.00
   -1   19   37      3.01      0.00
  -18   20   37     22.14      0.00
  -15   20   37    -12.19      0.00
  -12   20   37     -2.30      0.00
   -9   20   37    -25.51      0.00
   -6   20   37    -17.40      0.00
   -3   20   37     19.04      0.00
  -20   21   37     13.90      0.00
  -17   21   37     26.54      0.00
  -14   21   37      8.61      0.00
  -11   21   37      3.50      0.00
   -8   21   37    -13.87      0.00
   -5   21   37     15.21      0.00
   -2   21   37     24.06      0.00
  -19   22   37     13.92      0.00
  -16   22   37    -13.28      0.00
  -13   22   37     -9.82      0.00
  -10   22   37    -21.20      0.00
   -7   22   37    -11.16      0.00
   -4   22   37     11.44      0.00
   -1   22   37     -4.37      0.00
  -21   23   37    -14.39      0.00
  -18   23   37    -16.58      0.00
  -15   23   37      3.19      0.00
  -12   23   37     15.79      0.00
   -9   23   37      0.11      0.00
   -6   23   37    -13.98      0.00
   -3   23   37    -10.68      0.00
  -23   24   37     25.83      0.00
  -20   24   37      1.83      0.00
  -17   24   37     27.67      0.00
  -14   24   37     -1.53      0.00
  -11   24   37      8.38      0.00
   -8   24   37    -17.82      0.00
   -5   24   37    -13.79      0.00
   -2   24   37     16.80      0.00
  -22   25   37    -19.64      0.00
  -19   25   37      0.66      0.00
  -16   25   37     13.49      0.00
  -13   25   37     29.94      0.00
  -10   25   37      4.15      0.00
   -7   25   37      7.79      0.00
   -4   25   37      5.67      0.00
   -1   25   37     -5.34      0.00
  -24   26   37     -8.35      0.00
  -21   26   37      2.69      0.00
  -18   26   37    -23.64      0.00
  -15   26   37     -2.66      0.00
  -12   26   37    -33.24      0.00
   -9   26   37    -19.51      0.00
   -6   26   37    -23.28      0.00
   -3   26   37     14.80      0.00
  -26   27   37      2.18      0.00
  -23   27   37     -4.23      0.00
  -20   27   37     -0.09      0.00
  -17   27   37     18.36      0.00
  -14   27   37     -0.02      0.00
  -11   27   37    -12.87      0.00
   -8   27   37    -11.26      0.00
   -5   27   37     -6.06      0.00
   -2   27   37     -2.57      0.00
  -25   28   37      6.23      0.00
  -22   28   37     -3.94      0.00
  -19   28   37      8.19      0.00
  -16   28   37    -14.54      0.00
  -13   28   37     11.76      0.00
  -10   28   37     14.84      0.00
   -7   28   37      9.55      0.00
   -4   28   37      3.23      0.00
   -1   28   37    -13.23      0.00
  -27   29   37    -12.59      0.00
  -24   29   37      5.35      0.00
  -21   29   37    -12.88      0.00
  -18   29   37     -6.40      0.00
  -15   29   37    -12.90      0.00
  -12   29   37      7.08      0.00
   -9   29   37    -31.33      0.00
   -6   29   37      3.92      0.00
   -3   29   37     11.85      0.00
  -29   30   37     24.59      0.00
  -26   30   37    -10.57      0.00
  -23   30   37     -6.72      0.00
  -20   30   37    -12.68      0.00
  -17   30   37      8.29      0.00
  -14   30   37    -10.86      0.00
  -11   30   37    -20.10      0.00
   -8   30   37    -18.65      0.00
   -5   30   37     11.55      0.00
   -2   30   37     -6.33      0.00
  -28   31   37      8.37      0.00
  -25   31   37    -35.07      0.00
  -22   31   37     12.39      0.00
  -19   31   37     -4.80      0.00
  -16   31   37      1.26      0.00
  -13   31   37      2.10      0.00
  -10   31   37     -7.47      0.00
   -7   31   37    -14.67      0.00
   -4   31   37     -5.41      0.00
   -1   31   37    -22.23      0.00
  -30   32   37     15.20      0.00
  -27   32   37      4.07      0.00
  -24   32   37    -21.08      0.00
  -21   32   37     12.92      0.00
  -18   32   37      0.07      0.00
  -15   32   37     -7.18      0.00
  -12   32   37     10.05      0.00
   -9   32   37      6.06      0.00
   -6   32   37     12.29      0.00
   -3   32   37      2.77      0.00
  -32   33   37     -9.54      0.00
  -29   33   37     10.11      0.00
  -26   33   37      9.59      0.00
  -23   33   37     -6.41      0.00
  -20   33   37     16.24      0.00
  -17   33   37      0.42      0.00
  -14   33   37    -33.75      0.00
  -11   33   37     -9.82      0.00
   -8   33   37    -21.73      0.00
   -5   33   37     10.85      0.00
   -2   33   37     25.41      0.00
  -31   34   37     36.66      0.00
  -28   34   37     28.91      0.00
  -25   34   37     20.59      0.00
  -22   34   37     18.04      0.00
  -19   34   37     21.04      0.00
  -16   34   37     24.51      0.00
  -13   34   37     27.33      0.00
  -10   34   37     29.46      0.00
   -7   34   37     24.82      0.00
   -4   34   37     -2.36      0.00
   -1   34   37      5.99      0.00
  -33   35   37      5.17      0.00
  -30   35   37      8.75      0.00
  -27   35   37    -32.94      0.00
  -24   35   37     -2.99      0.00
  -21   35   37     25.24      0.00
  -18   35   37     -8.28      0.00
  -15   35   37     -0.87      0.00
  -12   35   37     -9.13      0.00
   -9   35   37     19.20      0.00
   -6   35   37     21.64      0.00
   -3   35   37     13.48      0.00
  -35   36   37     -9.76      0.00
  -32   36   37     16.00      0.00
  -29   36   37      9.27      0.00
  -26   36   37      3.92      0.00
  -23   36   37    -12.33      0.00
  -20   36   37    -24.14      0.00
  -17   36   37    -13.79      0.00
  -14   36   37     -7.36      0.00
  -11   36   37    -22.74      0.00
   -8   36   37     -5.17      0.00
   -5   36   37     11.09      0.00
   -2   36   37      0.62      0.00
  -34   37   37      3.50      0.00
  -31   37   37    -31.14      0.00
  -28   37   37     -7.65      0.00
  -25   37   37      8.15      0.00
  -22   37   37     16.89      0.00
  -19   37   37      7.15      0.00
  -16   37   37     31.86      0.00
  -13   37   37      8.68      0.00
  -10   37   37     10.61      0.00
   -7   37   37     -3.48      0.00
   -4   37   37      0.29      0.00
  -33   38   37     29.19      0.00
  -30   38   37     29.08      0.00
  -27   38   37     22.56      0.00
  -24   38   37    -19.52      0.00
  -21   38   37    -19.60      0.00
  -18   38   37     19.18      0.00
  -15   38   37    -23.78      0.00
  -12   38   37     30.35      0.00
   -9   38   37     -4.46      0.00
   -6   38   37    -32.62      0.00
  -32   39   37     -0.66      0.00
  -29   39   37     -2.44      0.00
  -26   39   37     -3.93      0.00
  -23   39   37    -15.71      0.00
  -20   39   37     10.32      0.00
  -17   39   37    -16.61      0.00
  -14   39   37      9.02      0.00
  -11   39   37    -50.65      0.00
   -8   39   37      6.36      0.00
   -5   39   37     13.01      0.00
  -34   40   37    -10.58      0.00
  -31   40   37    -11.49      0.00
  -28   40   37     14.84      0.00
  -25   40   37     19.53      0.00
  -22   40   37    -11.32      0.00
  -19   40   37      4.19      0.00
  -16   40   37     38.64      0.00
  -13   40   37      3.70      0.00
  -10   40   37     -9.35      0.00
   -7   40   37     10.85      0.00
  -30   41   37     15.10      0.00
  -27   41   37    -20.58      0.00
  -24   41   37     13.67      0.00
  -21   41   37     38.50      0.00
  -18   41   37    -20.25      0.00
  -15   41   37    -34.83      0.00
  -12   41   37    -17.81      0.00
   -9   41   37    -17.49      0.00
  -29   42   37     -1.34      0.00
  -26   42   37     19.78      0.00
  -23   42   37    -22.66      0.00
  -20   42   37     22.97      0.00
  -14   42   37     21.11      0.00
  -25   43   37    -20.18      0.00
    0    1   38     -7.49      0.00
   -2    2   38      8.38      0.00
   -1    3   38    -39.83      0.00
   -3    4   38     24.20      0.00
    0    4   38      5.02      0.00
   -5    5   38      9.15      0.00
   -2    5   38     53.09      0.00
   -4    6   38     29.73      0.00
   -1    6   38     -5.32      0.00
   -6    7   38    -45.74      0.00
   -3    7   38     -9.74      0.00
    0    7   38    -83.78      0.00
   -8    8   38    -33.19      0.00
   -5    8   38     19.65      0.00
   -2    8   38      6.28      0.00
   -7    9   38     -8.10      0.00
   -4    9   38     39.21      0.00
   -1    9   38      4.70      0.00
   -9   10   38     -9.98      0.00
   -6   10   38     65.55      0.00
   -3   10   38    -36.20      0.00
    0   10   38    -41.01      0.00
  -11   11   38    -14.49      0.00
   -8   11   38     13.23      0.00
   -5   11   38    -21.91      0.00
   -2   11   38     28.23      0.00
  -10   12   38    -20.08      0.00
   -7   12   38     11.00      0.00
   -4   12   38     13.91      0.00
   -1   12   38    -17.01      0.00
  -12   13   38      3.10      0.00
   -9   13   38    -18.59      0.00
   -6   13   38      9.90      0.00
   -3   13   38      0.76      0.00
    0   13   38    -80.18      0.00
  -14   14   38     19.77      0.00
  -11   14   38    -17.36      0.00
   -8   14   38    -34.80      0.00
   -5   14   38    -19.67      0.00
   -2   14   38    -23.83      0.00
  -13   15   38      3.23      0.00
  -10   15   38    -12.31      0.00
   -7   15   38     -4.16      0.00
   -4   15   38      7.29      0.00
   -1   15   38    -83.74      0.00
  -15   16   38    -41.65      0.00
  -12   16   38     -0.75      0.00
   -9   16   38     21.66      0.00
   -6   16   38     65.28      0.00
   -3   16   38     10.45      0.00
    0   16   38     21.57      0.00
  -17   17   38     -3.12      0.00
  -14   17   38     22.02      0.00
  -11   17   38    -23.35      0.00
   -8   17   38    -31.25      0.00
   -5   17   38     22.26      0.00
   -2   17   38    -28.65      0.00
  -16   18   38    -23.40      0.00
  -13   18   38    -15.23      0.00
  -10   18   38     -5.32      0.00
   -7   18   38     31.01      0.00
   -4   18   38    -36.04      0.00
   -1   18   38     -0.41      0.00
  -18   19   38     -2.93      0.00
  -15   19   38    -14.23      0.00
  -12   19   38    -17.26      0.00
   -9   19   38     -1.15      0.00
   -6   19   38     14.55      0.00
   -3   19   38    -29.05      0.00
    0   19   38     -8.38      0.00
  -20   20   38     46.71      0.00
  -17   20   38     25.17      0.00
  -14   20   38     11.09      0.00
  -11   20   38     -4.07      0.00
   -8   20   38     21.12      0.00
   -5   20   38    -15.71      0.00
   -2   20   38     20.70      0.00
  -19   21   38     -8.36      0.00
  -16   21   38    -15.16      0.00
  -13   21   38     -7.45      0.00
  -10   21   38     15.18      0.00
   -7   21   38     -2.31      0.00
   -4   21   38     14.86      0.00
   -1   21   38      3.42      0.00
  -21   22   38    -28.86      0.00
  -18   22   38      3.77      0.00
  -15   22   38    -36.23      0.00
  -12   22   38     -6.36      0.00
   -9   22   38    -12.24      0.00
   -6   22   38      4.02      0.00
   -3   22   38    -22.54      0.00
    0   22   38    -34.70      0.00
  -23   23   38     -4.06      0.00
  -20   23   38    -30.46      0.00
  -17   23   38    -26.36      0.00
  -14   23   38     22.87      0.00
  -11   23   38     11.58      0.00
   -8   23   38     25.42      0.00
   -5   23   38     10.92      0.00
   -2   23   38     11.10      0.00
  -22   24   38     23.73      0.00
  -19   24   38    -12.90      0.00
  -16   24   38     -3.41      0.00
  -13   24   38      7.98      0.00
  -10   24   38     -3.23      0.00
   -7   24   38     20.42      0.00
   -4   24   38     20.68      0.00
   -1   24   38     13.60      0.00
  -24   25   38      4.57      0.00
  -21   25   38     -0.57      0.00
  -18   25   38    -25.13      0.00
  -15   25   38    -13.74      0.00
  -12   25   38     -7.24      0.00
   -9   25   38    -24.15      0.00
   -6   25   38     15.94      0.00
   -3   25   38    -35.31      0.00
    0   25   38     -7.71      0.00
  -26   26   38     -3.08      0.00
  -23   26   38     -3.47      0.00
  -20   26   38      6.26      0.00
  -17   26   38      4.77      0.00
  -14   26   38     10.54      0.00
  -11   26   38     -4.29      0.00
   -8   26   38     -1.90      0.00
   -5   26   38    -13.25      0.00
   -2   26   38      9.45      0.00
  -25   27   38      0.11      0.00
  -22   27   38     -5.44      0.00
  -19   27   38    -12.30      0.00
  -16   27   38     -1.55      0.00
  -13   27   38      4.05      0.00
  -10   27   38    -12.53      0.00
   -7   27   38     -6.73      0.00
   -4   27   38     21.88      0.00
   -1   27   38      2.42      0.00
  -27   28   38    -32.44      0.00
  -24   28   38     -9.23      0.00
  -21   28   38      4.28      0.00
  -18   28   38     -9.32      0.00
  -15   28   38     15.72      0.00
  -12   28   38      4.47      0.00
   -9   28   38     17.76      0.00
   -6   28   38      1.40      0.00
   -3   28   38     11.37      0.00
    0   28   38     34.49      0.00
  -29   29   38    -26.47      0.00
  -26   29   38      6.20      0.00
  -23   29   38    -26.05      0.00
  -20   29   38    -12.62      0.00
  -17   29   38    -21.01      0.00
  -14   29   38    -32.96      0.00
  -11   29   38    -13.99      0.00
   -8   29   38    -19.87      0.00
   -5   29   38    -12.87      0.00
   -2   29   38     16.35      0.00
  -28   30   38    -13.30      0.00
  -25   30   38    -26.31      0.00
  -22   30   38    -15.45      0.00
  -19   30   38     32.89      0.00
  -16   30   38     15.16      0.00
  -13   30   38      6.57      0.00
  -10   30   38    -16.15      0.00
   -7   30   38      0.11      0.00
   -4   30   38     15.35      0.00
   -1   30   38     -9.20      0.00
  -30   31   38      3.43      0.00
  -27   31   38    -16.22      0.00
  -24   31   38      4.74      0.00
  -21   31   38      1.39      0.00
  -18   31   38    -20.84      0.00
  -15   31   38    -14.26      0.00
  -12   31   38    -14.37      0.00
   -9   31   38      2.08      0.00
   -6   31   38     11.23      0.00
   -3   31   38      0.17      0.00
    0   31   38     -8.99      0.00
  -32   32   38     -9.92      0.00
  -29   32   38      6.03      0.00
  -26   32   38      7.18      0.00
  -23   32   38     -2.42      0.00
  -20   32   38      9.96      0.00
  -17   32   38     -6.16      0.00
  -14   32   38     16.46      0.00
  -11   32   38     -5.25      0.00
   -8   32   38     -4.66      0.00
   -5   32   38      0.57      0.00
   -2   32   38     -3.37      0.00
  -31   33   38    -12.44      0.00
  -28   33   38     -2.52      0.00
  -25   33   38      3.66      0.00
  -22   33   38     25.95      0.00
  -19   33   38      1.76      0.00
  -16   33   38      3.34      0.00
  -13   33   38     -1.26      0.00
  -10   33   38     18.18      0.00
   -7   33   38     15.20      0.00
   -4   33   38     -4.24      0.00
   -1   33   38     26.60      0.00
  -33   34   38    -15.70      0.00
  -30   34   38      6.63      0.00
  -27   34   38    -24.83      0.00
  -24   34   38     -3.12      0.00
  -21   34   38     -1.65      0.00
  -18   34   38      3.53      0.00
  -15   34   38      1.48      0.00
  -12   34   38    -25.91      0.00
   -9   34   38     29.69      0.00
   -6   34   38     23.85      0.00
   -3   34   38     21.94      0.00
    0   34   38     -3.38      0.00
  -35   35   38    -20.41      0.00
  -32   35   38    -46.09      0.00
  -29   35   38    -40.46      0.00
  -26   35   38      5.92      0.00
  -23   35   38     -9.38      0.00
  -20   35   38     17.64      0.00
  -17   35   38     -7.12      0.00
  -14   35   38    -45.61      0.00
  -11   35   38     -1.58      0.00
   -8   35   38    -12.09      0.00
   -5   35   38     20.66      0.00
   -2   35   38     19.02      0.00
  -34   36   38    -13.14      0.00
  -31   36   38     -4.53      0.00
  -28   36   38     -4.24      0.00
  -25   36   38    -18.28      0.00
  -22   36   38      7.76      0.00
  -19   36   38    -24.50      0.00
  -16   36   38    -16.99      0.00
  -13   36   38     11.07      0.00
  -10   36   38      7.19      0.00
   -7   36   38     -3.31      0.00
   -4   36   38    -10.76      0.00
   -1   36   38    -14.39      0.00
  -33   37   38     17.75      0.00
  -30   37   38     -6.91      0.00
  -27   37   38     12.17      0.00
  -24   37   38      0.83      0.00
  -21   37   38      3.08      0.00
  -18   37   38      3.32      0.00
  -15   37   38    -14.54      0.00
  -12   37   38      4.19      0.00
   -9   37   38    -10.88      0.00
   -6   37   38     30.02      0.00
   -3   37   38    -26.14      0.00
  -35   38   38     -0.28      0.00
  -32   38   38     -8.67      0.00
  -29   38   38      6.58      0.00
  -26   38   38      4.51      0.00
  -23   38   38     -1.62      0.00
  -20   38   38    -23.78      0.00
  -17   38   38     -1.54      0.00
  -14   38   38     13.39      0.00
  -11   38   38    -10.61      0.00
   -8   38   38      1.12      0.00
   -5   38   38      4.44      0.00
  -34   39   38     41.31      0.00
  -31   39   38     -6.20      0.00
  -28   39   38      5.34      0.00
  -25   39   38    -13.59      0.00
  -22   39   38     15.31      0.00
  -19   39   38    -14.22      0.00
  -16   39   38    -61.44      0.00
  -13   39   38      2.79      0.00
  -10   39   38    -38.14      0.00
   -7   39   38      5.91      0.00
  -33   40   38     -0.45      0.00
  -30   40   38     18.60      0.00
  -27   40   38     16.86      0.00
  -24   40   38     22.44      0.00
  -21   40   38     15.66      0.00
  -18   40   38      2.42      0.00
  -15   40   38     21.04      0.00
  -12   40   38      6.32      0.00
   -9   40   38     27.10      0.00
   -6   40   38     -1.57      0.00
  -29   41   38     14.23      0.00
  -23   41   38      1.32      0.00
  -20   41   38     -6.64      0.00
  -17   41   38    -27.46      0.00
  -14   41   38    -17.50      0.00
  -11   41   38     38.18      0.00
  -28   42   38    -14.94      0.00
  -25   42   38      1.19      0.00
  -19   42   38    -21.26      0.00
  -16   42   38     -8.63      0.00
  -13   42   38     18.40      0.00
   -1    2   39    -45.92      0.00
   -2    4   39    -18.70      0.00
   -4    5   39     -7.90      0.00
   -1    5   39    -19.16      0.00
   -3    6   39     -8.28      0.00
   -5    7   39    -10.76      0.00
   -2    7   39    -46.43      0.00
   -7    8   39     12.58      0.00
   -4    8   39    -45.14      0.00
   -1    8   39    -24.17      0.00
   -6    9   39    -18.00      0.00
   -3    9   39     13.02      0.00
   -8   10   39     -9.27      0.00
   -5   10   39    -48.21      0.00
   -2   10   39    -35.80      0.00
  -10   11   39     -6.09      0.00
   -7   11   39    -33.32      0.00
   -4   11   39    -36.19      0.00
   -1   11   39     30.70      0.00
   -9   12   39     18.06      0.00
   -6   12   39     10.40      0.00
   -3   12   39     31.16      0.00
  -11   13   39      5.22      0.00
   -8   13   39      6.24      0.00
   -5   13   39    -34.84      0.00
   -2   13   39    -34.90      0.00
  -13   14   39    -15.88      0.00
  -10   14   39     -3.47      0.00
   -7   14   39      7.75      0.00
   -4   14   39     23.48      0.00
   -1   14   39     -8.70      0.00
  -12   15   39     -8.67      0.00
   -9   15   39      4.15      0.00
   -6   15   39     22.15      0.00
   -3   15   39     30.29      0.00
  -14   16   39     -2.51      0.00
  -11   16   39      8.87      0.00
   -8   16   39     18.55      0.00
   -5   16   39    -10.50      0.00
   -2   16   39     31.29      0.00
  -16   17   39      4.78      0.00
  -13   17   39      0.01      0.00
  -10   17   39     -0.79      0.00
   -7   17   39     11.92      0.00
   -4   17   39     -3.27      0.00
   -1   17   39    -14.93      0.00
  -15   18   39      6.18      0.00
  -12   18   39      0.27      0.00
   -9   18   39      1.01      0.00
   -6   18   39      7.42      0.00
   -3   18   39    -20.19      0.00
  -17   19   39     -3.51      0.00
  -14   19   39      8.03      0.00
  -11   19   39     28.69      0.00
   -8   19   39     22.33      0.00
   -5   19   39     13.42      0.00
   -2   19   39      0.34      0.00
  -19   20   39     37.69      0.00
  -16   20   39      9.62      0.00
  -13   20   39     -0.55      0.00
  -10   20   39    -28.33      0.00
   -7   20   39     -7.41      0.00
   -4   20   39    -22.31      0.00
   -1   20   39     -9.09      0.00
  -18   21   39      3.66      0.00
  -15   21   39    -10.20      0.00
  -12   21   39     -6.55      0.00
   -9   21   39     14.10      0.00
   -6   21   39    -20.93      0.00
   -3   21   39     13.09      0.00
  -20   22   39     -4.39      0.00
  -17   22   39    -11.48      0.00
  -14   22   39     -6.88      0.00
  -11   22   39     18.56      0.00
   -8   22   39     11.63      0.00
   -5   22   39      4.85      0.00
   -2   22   39     23.21      0.00
  -22   23   39     17.61      0.00
  -19   23   39     18.17      0.00
  -16   23   39     -0.98      0.00
  -13   23   39      1.34      0.00
  -10   23   39     11.31      0.00
   -7   23   39      4.30      0.00
   -4   23   39      9.63      0.00
   -1   23   39     13.26      0.00
  -21   24   39      8.54      0.00
  -18   24   39     11.34      0.00
  -15   24   39     12.14      0.00
  -12   24   39     -2.40      0.00
   -9   24   39      2.41      0.00
   -6   24   39     -3.91      0.00
   -3   24   39     26.23      0.00
  -23   25   39      8.78      0.00
  -20   25   39    -12.26      0.00
  -17   25   39     23.97      0.00
  -14   25   39      5.09      0.00
  -11   25   39      8.15      0.00
   -8   25   39    -14.90      0.00
   -5   25   39    -24.36      0.00
   -2   25   39    -15.09      0.00
  -25   26   39     14.31      0.00
  -22   26   39      7.46      0.00
  -19   26   39      6.55      0.00
  -16   26   39    -14.10      0.00
  -13   26   39     10.32      0.00
  -10   26   39     -9.70      0.00
   -7   26   39     -2.93      0.00
   -4   26   39      1.86      0.00
   -1   26   39     21.40      0.00
  -24   27   39     14.95      0.00
  -21   27   39     14.47      0.00
  -18   27   39    -25.37      0.00
  -15   27   39    -27.24      0.00
  -12   27   39     -6.43      0.00
   -9   27   39      3.00      0.00
   -6   27   39      3.58      0.00
   -3   27   39     13.00      0.00
  -26   28   39     14.84      0.00
  -23   28   39     20.04      0.00
  -20   28   39    -22.99      0.00
  -17   28   39     15.46      0.00
  -14   28   39    -18.01      0.00
  -11   28   39    -12.78      0.00
   -8   28   39    -15.53      0.00
   -5   28   39    -12.66      0.00
   -2   28   39    -12.62      0.00
  -28   29   39      1.65      0.00
  -25   29   39      1.87      0.00
  -22   29   39      8.77      0.00
  -19   29   39     11.32      0.00
  -16   29   39     25.01      0.00
  -13   29   39     -8.42      0.00
  -10   29   39     -0.45      0.00
   -7   29   39    -13.53      0.00
   -4   29   39     11.55      0.00
   -1   29   39      2.56      0.00
  -27   30   39      8.28      0.00
  -24   30   39     -1.26      0.00
  -21   30   39     26.68      0.00
  -18   30   39    -17.43      0.00
  -15   30   39     -7.17      0.00
  -12   30   39     -2.05      0.00
   -9   30   39     21.98      0.00
   -6   30   39     25.67      0.00
   -3   30   39     -7.21      0.00
  -29   31   39     -1.65      0.00
  -26   31   39     26.51      0.00
  -23   31   39      9.53      0.00
  -20   31   39     23.41      0.00
  -17   31   39     12.85      0.00
  -14   31   39     -4.55      0.00
  -11   31   39     -0.26      0.00
   -8   31   39     -6.06      0.00
   -5   31   39      1.21      0.00
   -2   31   39    -11.58      0.00
  -31   32   39     27.47      0.00
  -28   32   39     33.31      0.00
  -25   32   39      8.92      0.00
  -22   32   39    -20.17      0.00
  -19   32   39     10.69      0.00
  -16   32   39     -4.50      0.00
  -13   32   39     -2.26      0.00
  -10   32   39      1.51      0.00
   -7   32   39      2.36      0.00
   -4   32   39      6.31      0.00
   -1   32   39     10.63      0.00
  -30   33   39     16.24      0.00
  -27   33   39     -8.57      0.00
  -24   33   39      8.58      0.00
  -21   33   39     19.73      0.00
  -18   33   39    -14.96      0.00
  -15   33   39     -0.05      0.00
  -12   33   39    -15.02      0.00
   -9   33   39    -36.32      0.00
   -6   33   39      6.62      0.00
   -3   33   39      9.10      0.00
  -32   34   39      2.88      0.00
  -29   34   39     31.42      0.00
  -26   34   39    -13.17      0.00
  -23   34   39    -21.96      0.00
  -20   34   39     -9.99      0.00
  -17   34   39     -1.69      0.00
  -14   34   39      9.33      0.00
  -11   34   39    -10.39      0.00
   -8   34   39    -10.66      0.00
   -5   34   39    -30.82      0.00
   -2   34   39    -21.42      0.00
  -34   35   39     13.77      0.00
  -31   35   39    -16.66      0.00
  -28   35   39    -12.55      0.00
  -25   35   39     -4.60      0.00
  -22   35   39      2.53      0.00
  -19   35   39    -24.43      0.00
  -16   35   39      0.37      0.00
  -13   35   39    -11.34      0.00
  -10   35   39      5.79      0.00
   -7   35   39     37.65      0.00
   -4   35   39    -28.85      0.00
   -1   35   39    -22.28      0.00
  -33   36   39    -15.95      0.00
  -30   36   39     51.89      0.00
  -27   36   39     28.34      0.00
  -24   36   39     15.79      0.00
  -21   36   39    -11.72      0.00
  -18   36   39    -19.14      0.00
  -15   36   39     28.09      0.00
  -12   36   39    -10.40      0.00
   -9   36   39     20.33      0.00
   -6   36   39    -19.64      0.00
   -3   36   39     23.68      0.00
  -35   37   39      7.68      0.00
  -32   37   39     34.35      0.00
  -29   37   39    -15.27      0.00
  -26   37   39      3.08      0.00
  -23   37   39     10.00      0.00
  -20   37   39     34.85      0.00
  -17   37   39     29.32      0.00
  -14   37   39     -1.23      0.00
  -11   37   39    -17.17      0.00
   -8   37   39     26.13      0.00
   -5   37   39      0.77      0.00
  -34   38   39    -15.79      0.00
  -31   38   39     15.29      0.00
  -28   38   39     33.02      0.00
  -25   38   39     -4.86      0.00
  -22   38   39      0.97      0.00
  -19   38   39     27.26      0.00
  -16   38   39     18.06      0.00
  -13   38   39      0.32      0.00
  -10   38   39    -26.31      0.00
   -7   38   39     28.28      0.00
   -4   38   39    -13.08      0.00
  -33   39   39    -10.97      0.00
  -30   39   39     35.79      0.00
  -27   39   39     16.72      0.00
  -24   39   39     29.29      0.00
  -21   39   39      9.81      0.00
  -18   39   39     -8.06      0.00
  -15   39   39      7.44      0.00
  -12   39   39    -13.30      0.00
   -9   39   39     14.46      0.00
   -6   39   39      4.24      0.00
  -32   40   39    -16.04      0.00
  -29   40   39      4.80      0.00
  -26   40   39     -3.75      0.00
  -23   40   39      3.41      0.00
  -20   40   39     33.55      0.00
  -17   40   39     -0.07      0.00
  -14   40   39     58.95      0.00
  -11   40   39    -26.64      0.00
   -8   40   39     38.82      0.00
  -28   41   39     16.01      0.00
  -25   41   39      1.90      0.00
  -22   41   39      7.82      0.00
  -16   41   39     19.65      0.00
  -13   41   39      0.13      0.00
  -27   42   39      8.58      0.00
  -18   42   39    -21.73      0.00
  -15   42   39     -8.10      0.00
  -26   43   39     23.72      0.00
   -1    1   40     63.11      0.00
    0    2   40     13.47      0.00
   -2    3   40      5.35      0.00
   -4    4   40     45.06      0.00
   -1    4   40    -34.34      0.00
   -3    5   40    -20.88      0.00
    0    5   40     35.12      0.00
   -5    6   40    -16.96      0.00
   -2    6   40     35.49      0.00
   -7    7   40     22.02      0.00
   -4    7   40     17.43      0.00
   -1    7   40    -73.53      0.00
   -6    8   40      8.39      0.00
   -3    8   40     20.23      0.00
    0    8   40     40.98      0.00
   -8    9   40     -7.99      0.00
   -5    9   40    -30.29      0.00
   -2    9   40     31.62      0.00
  -10   10   40     99.36      0.00
   -7   10   40     16.49      0.00
   -4   10   40     10.21      0.00
   -1   10   40    -18.21      0.00
   -9   11   40    -18.43      0.00
   -6   11   40    -19.43      0.00
   -3   11   40    -11.96      0.00
    0   11   40     89.81      0.00
  -11   12   40    -16.89      0.00
   -8   12   40     25.39      0.00
   -5   12   40      9.52      0.00
   -2   12   40     18.36      0.00
  -13   13   40     69.53      0.00
  -10   13   40      9.35      0.00
   -7   13   40     -4.85      0.00
   -4   13   40    -23.49      0.00
   -1   13   40    -31.80      0.00
  -12   14   40    -21.65      0.00
   -9   14   40    -19.84      0.00
   -6   14   40     -6.59      0.00
   -3   14   40     35.26      0.00
    0   14   40     13.47      0.00
  -14   15   40    -11.77      0.00
  -11   15   40     -6.00      0.00
   -8   15   40     12.03      0.00
   -5   15   40     12.09      0.00
   -2   15   40     -5.45      0.00
  -16   16   40     35.49      0.00
  -13   16   40     28.38      0.00
  -10   16   40    -18.11      0.00
   -7   16   40    -13.35      0.00
   -4   16   40     25.09      0.00
   -1   16   40      2.63      0.00
  -15   17   40      9.79      0.00
  -12   17   40      1.24      0.00
   -9   17   40    -27.50      0.00
   -6   17   40     48.57      0.00
   -3   17   40    -15.41      0.00
    0   17   40    -34.87      0.00
  -17   18   40     -5.55      0.00
  -14   18   40      3.98      0.00
  -11   18   40     -8.97      0.00
   -8   18   40     12.77      0.00
   -5   18   40     30.42      0.00
   -2   18   40      9.03      0.00
  -19   19   40     34.74      0.00
  -16   19   40      6.60      0.00
  -13   19   40     10.93      0.00
  -10   19   40    -27.13      0.00
   -7   19   40    -20.17      0.00
   -4   19   40      3.53      0.00
   -1   19   40    -16.62      0.00
  -18   20   40     17.74      0.00
  -15   20   40     15.00      0.00
  -12   20   40     15.03      0.00
   -9   20   40     13.31      0.00
   -6   20   40     -3.76      0.00
   -3   20   40     -5.31      0.00
    0   20   40      0.89      0.00
  -20   21   40      0.37      0.00
  -17   21   40    -24.48      0.00
  -14   21   40    -16.46      0.00
  -11   21   40    -20.11      0.00
   -8   21   40     -6.19      0.00
   -5   21   40     13.45      0.00
   -2   21   40      0.99      0.00
  -22   22   40    -16.72      0.00
  -19   22   40     -1.08      0.00
  -16   22   40     -9.86      0.00
  -13   22   40      5.05      0.00
  -10   22   40     -9.23      0.00
   -7   22   40      9.97      0.00
   -4   22   40     22.46      0.00
   -1   22   40     15.21      0.00
  -21   23   40      2.23      0.00
  -18   23   40     39.12      0.00
  -15   23   40      2.42      0.00
  -12   23   40      0.39      0.00
   -9   23   40    -17.00      0.00
   -6   23   40     -4.33      0.00
   -3   23   40    -12.26      0.00
    0   23   40      4.51      0.00
  -23   24   40      9.67      0.00
  -20   24   40     12.05      0.00
  -17   24   40      4.89      0.00
  -14   24   40      9.15      0.00
  -11   24   40     21.48      0.00
   -8   24   40      8.67      0.00
   -5   24   40      0.72      0.00
   -2   24   40      2.04      0.00
  -25   25   40     -2.37      0.00
  -22   25   40    -14.67      0.00
  -19   25   40    -15.51      0.00
  -16   25   40     -6.45      0.00
  -13   25   40    -13.25      0.00
  -10   25   40     -5.16      0.00
   -7   25   40      6.11      0.00
   -4   25   40     16.16      0.00
   -1   25   40    -19.35      0.00
  -24   26   40     21.92      0.00
  -21   26   40      4.60      0.00
  -18   26   40     11.19      0.00
  -15   26   40     -3.47      0.00
  -12   26   40     -5.19      0.00
   -9   26   40    -14.52      0.00
   -6   26   40      7.33      0.00
   -3   26   40     15.89      0.00
    0   26   40     29.16      0.00
  -26   27   40     -0.13      0.00
  -23   27   40     14.07      0.00
  -20   27   40    -12.13      0.00
  -17   27   40     -2.04      0.00
  -14   27   40     -1.01      0.00
  -11   27   40    -19.57      0.00
   -8   27   40     12.77      0.00
   -5   27   40     11.12      0.00
   -2   27   40      2.34      0.00
  -28   28   40    -26.56      0.00
  -25   28   40     19.67      0.00
  -22   28   40    -24.74      0.00
  -19   28   40    -16.88      0.00
  -16   28   40     10.88      0.00
  -13   28   40     15.13      0.00
  -10   28   40     16.25      0.00
   -7   28   40     40.01      0.00
   -4   28   40      8.34      0.00
   -1   28   40      1.16      0.00
  -27   29   40     -7.60      0.00
  -24   29   40     -1.29      0.00
  -21   29   40     -8.12      0.00
  -18   29   40    -30.21      0.00
  -15   29   40    -27.21      0.00
  -12   29   40    -19.29      0.00
   -9   29   40     -5.86      0.00
   -6   29   40      7.47      0.00
   -3   29   40     14.97      0.00
    0   29   40     -6.36      0.00
  -29   30   40    -16.19      0.00
  -26   30   40      4.31      0.00
  -23   30   40     21.45      0.00
  -20   30   40    -15.14      0.00
  -17   30   40      5.76      0.00
  -14   30   40    -15.88      0.00
  -11   30   40     35.51      0.00
   -8   30   40     -2.81      0.00
   -5   30   40      6.05      0.00
   -2   30   40      7.00      0.00
  -31   31   40     48.35      0.00
  -28   31   40     34.46      0.00
  -25   31   40     14.41      0.00
  -22   31   40     -9.79      0.00
  -19   31   40    -44.40      0.00
  -16   31   40     10.46      0.00
  -13   31   40     -1.71      0.00
  -10   31   40     -6.83      0.00
   -7   31   40    -16.67      0.00
   -4   31   40      5.39      0.00
   -1   31   40    -17.94      0.00
  -30   32   40     21.70      0.00
  -27   32   40     -7.31      0.00
  -24   32   40    -18.94      0.00
  -21   32   40     21.34      0.00
  -18   32   40      4.12      0.00
  -15   32   40    -15.45      0.00
  -12   32   40    -31.01      0.00
   -9   32   40     -0.60      0.00
   -6   32   40    -20.32      0.00
   -3   32   40     23.75      0.00
    0   32   40     27.41      0.00
  -32   33   40      4.43      0.00
  -29   33   40     10.72      0.00
  -26   33   40      5.95      0.00
  -23   33   40    -17.56      0.00
  -20   33   40     -4.09      0.00
  -17   33   40    -40.78      0.00
  -14   33   40      4.00      0.00
  -11   33   40     26.38      0.00
   -8   33   40      0.28      0.00
   -5   33   40    -20.10      0.00
   -2   33   40    -33.68      0.00
  -31   34   40     25.22      0.00
  -28   34   40     17.37      0.00
  -25   34   40     -3.79      0.00
  -22   34   40     -7.51      0.00
  -19   34   40     -4.23      0.00
  -16   34   40      6.13      0.00
  -13   34   40     11.12      0.00
  -10   34   40      5.49      0.00
   -7   34   40     10.64      0.00
   -4   34   40     -4.38      0.00
   -1   34   40     10.45      0.00
  -33   35   40     26.55      0.00
  -30   35   40     16.87      0.00
  -27   35   40    -12.12      0.00
  -24   35   40     24.95      0.00
  -21   35   40     23.14      0.00
  -18   35   40    -12.52      0.00
  -15   35   40      4.42      0.00
  -12   35   40    -39.02      0.00
   -9   35   40     24.87      0.00
   -6   35   40     -0.46      0.00
   -3   35   40     55.02      0.00
    0   35   40     37.81      0.00
  -35   36   40    -12.89      0.00
  -32   36   40      2.03      0.00
  -29   36   40      6.06      0.00
  -26   36   40     -0.26      0.00
  -23   36   40     19.36      0.00
  -20   36   40     -9.31      0.00
  -17   36   40     62.87      0.00
  -14   36   40     -7.28      0.00
  -11   36   40      3.30      0.00
   -8   36   40    -29.91      0.00
   -5   36   40     19.17      0.00
   -2   36   40     13.25      0.00
  -34   37   40    -23.02      0.00
  -31   37   40     57.32      0.00
  -28   37   40     24.02      0.00
  -25   37   40      1.94      0.00
  -22   37   40     31.40      0.00
  -19   37   40      7.78      0.00
  -16   37   40     -1.90      0.00
  -13   37   40     -5.45      0.00
  -10   37   40    -30.23      0.00
   -7   37   40    -36.01      0.00
   -4   37   40      1.14      0.00
  -33   38   40    -35.13      0.00
  -30   38   40    -27.82      0.00
  -27   38   40     -7.45      0.00
  -24   38   40     -8.47      0.00
  -21   38   40     18.77      0.00
  -18   38   40     -6.75      0.00
  -15   38   40    -16.55      0.00
  -12   38   40    -20.07      0.00
   -9   38   40     -7.38      0.00
   -6   38   40    -10.50      0.00
  -32   39   40     19.85      0.00
  -29   39   40     20.97      0.00
  -26   39   40     12.40      0.00
  -23   39   40    -18.71      0.00
  -20   39   40      4.42      0.00
  -17   39   40      9.36      0.00
  -14   39   40    -12.30      0.00
  -11   39   40    -10.87      0.00
   -8   39   40    -35.26      0.00
   -5   39   40      5.47      0.00
  -31   40   40    -31.62      0.00
  -28   40   40    -27.30      0.00
  -25   40   40    -13.84      0.00
  -22   40   40     -5.75      0.00
  -19   40   40     28.67      0.00
  -16   40   40      0.32      0.00
  -13   40   40     -3.80      0.00
   -7   40   40      8.94      0.00
  -27   41   40    -14.60      0.00
  -24   41   40     14.11      0.00
  -21   41   40     17.90      0.00
  -18   41   40    -15.35      0.00
  -15   41   40      9.24      0.00
  -12   41   40    -50.37      0.00
  -29   42   40     13.39      0.00
  -26   42   40    -21.23      0.00
  -23   42   40     -6.01      0.00
  -17   42   40     10.39      0.00
  -14   42   40     -0.58      0.00
  -25   43   40     -3.99      0.00
   -1    3   41     -4.68      0.00
   -3    4   41     15.72      0.00
   -2    5   41    -19.30      0.00
   -4    6   41     68.63      0.00
   -1    6   41    -50.63      0.00
   -6    7   41     -1.90      0.00
   -3    7   41     -0.58      0.00
   -5    8   41      7.47      0.00
   -2    8   41     -3.17      0.00
   -7    9   41     -4.39      0.00
   -4    9   41    -13.17      0.00
   -1    9   41     -4.40      0.00
   -9   10   41      9.99      0.00
   -6   10   41    -48.37      0.00
   -3   10   41    -58.05      0.00
   -8   11   41    -45.87      0.00
   -5   11   41    -39.10      0.00
   -2   11   41     -1.24      0.00
  -10   12   41     11.94      0.00
   -7   12   41     10.82      0.00
   -4   12   41     13.13      0.00
   -1   12   41    -13.35      0.00
  -12   13   41     22.65      0.00
   -9   13   41     18.96      0.00
   -6   13   41    -45.26      0.00
   -3   13   41    -50.03      0.00
  -11   14   41    -20.94      0.00
   -8   14   41     12.98      0.00
   -5   14   41      7.70      0.00
   -2   14   41     27.64      0.00
  -13   15   41    -17.14      0.00
  -10   15   41     31.54      0.00
   -7   15   41      3.89      0.00
   -4   15   41      1.78      0.00
   -1   15   41    -29.32      0.00
  -15   16   41     46.16      0.00
  -12   16   41     24.82      0.00
   -9   16   41     -1.42      0.00
   -6   16   41      3.98      0.00
   -3   16   41    -17.41      0.00
  -14   17   41    -18.05      0.00
  -11   17   41    -43.82      0.00
   -8   17   41     -9.89      0.00
   -5   17   41     23.24      0.00
   -2   17   41     -6.34      0.00
  -16   18   41     -9.31      0.00
  -13   18   41     12.80      0.00
  -10   18   41      6.35      0.00
   -7   18   41      0.89      0.00
   -4   18   41    -25.55      0.00
   -1   18   41      1.10      0.00
  -18   19   41     12.43      0.00
  -15   19   41     11.63      0.00
  -12   19   41      9.33      0.00
   -9   19   41     -3.10      0.00
   -6   19   41      9.94      0.00
   -3   19   41    -27.05      0.00
  -17   20   41      3.91      0.00
  -14   20   41    -17.98      0.00
  -11   20   41    -17.98      0.00
   -8   20   41     -7.13      0.00
   -5   20   41      4.52      0.00
   -2   20   41     -7.87      0.00
  -19   21   41      6.23      0.00
  -16   21   41    -23.34      0.00
  -13   21   41      6.41      0.00
  -10   21   41    -26.18      0.00
   -7   21   41    -40.09      0.00
   -4   21   41      0.27      0.00
   -1   21   41    -10.91      0.00
  -21   22   41     27.92      0.00
  -18   22   41     16.04      0.00
  -15   22   41     17.31      0.00
  -12   22   41      0.32      0.00
   -9   22   41      6.21      0.00
   -6   22   41      4.72      0.00
   -3   22   41    -17.49      0.00
  -20   23   41     25.16      0.00
  -17   23   41     15.40      0.00
  -14   23   41     11.97      0.00
  -11   23   41      9.10      0.00
   -8   23   41     18.60      0.00
   -5   23   41      4.25      0.00
   -2   23   41    -10.30      0.00
  -22   24   41      4.64      0.00
  -19   24   41      5.86      0.00
  -16   24   41    -13.43      0.00
  -13   24   41     -8.62      0.00
  -10   24   41     -3.23      0.00
   -7   24   41      4.01      0.00
   -4   24   41    -12.33      0.00
   -1   24   41      6.43      0.00
  -24   25   41     -6.85      0.00
  -21   25   41     -5.59      0.00
  -18   25   41      6.02      0.00
  -15   25   41    -13.42      0.00
  -12   25   41     11.24      0.00
   -9   25   41    -12.84      0.00
   -6   25   41    -32.74      0.00
   -3   25   41    -15.88      0.00
  -23   26   41    -15.30      0.00
  -20   26   41     29.97      0.00
  -17   26   41     15.40      0.00
  -14   26   41    -23.59      0.00
  -11   26   41      3.39      0.00
   -8   26   41    -11.45      0.00
   -5   26   41     -7.36      0.00
   -2   26   41     12.58      0.00
  -25   27   41     14.27      0.00
  -22   27   41     -2.26      0.00
  -19   27   41    -15.93      0.00
  -16   27   41    -26.88      0.00
  -13   27   41     -7.78      0.00
  -10   27   41    -36.26      0.00
   -7   27   41     -8.44      0.00
   -4   27   41      9.82      0.00
   -1   27   41    -20.21      0.00
  -27   28   41     -5.25      0.00
  -24   28   41      9.60      0.00
  -21   28   41    -12.03      0.00
  -18   28   41    -23.16      0.00
  -15   28   41    -20.98      0.00
  -12   28   41     -2.28      0.00
   -9   28   41    -17.35      0.00
   -6   28   41    -15.81      0.00
   -3   28   41    -36.24      0.00
  -26   29   41      0.25      0.00
  -23   29   41     13.94      0.00
  -20   29   41     10.83      0.00
  -17   29   41     23.03      0.00
  -14   29   41      6.71      0.00
  -11   29   41      8.86      0.00
   -8   29   41     13.87      0.00
   -5   29   41     -8.03      0.00
   -2   29   41    -16.39      0.00
  -28   30   41    -24.36      0.00
  -25   30   41     23.93      0.00
  -22   30   41      7.65      0.00
  -19   30   41     18.11      0.00
  -16   30   41     -4.78      0.00
  -13   30   41      6.28      0.00
  -10   30   41     33.80      0.00
   -7   30   41     14.99      0.00
   -4   30   41     -0.40      0.00
   -1   30   41     17.84      0.00
  -30   31   41     20.42      0.00
  -27   31   41     11.32      0.00
  -24   31   41     20.94      0.00
  -21   31   41     -4.61      0.00
  -18   31   41      7.69      0.00
  -15   31   41     17.08      0.00
  -12   31   41     10.71      0.00
   -9   31   41     18.20      0.00
   -6   31   41      1.71      0.00
   -3   31   41      3.62      0.00
  -29   32   41     -9.43      0.00
  -26   32   41     -6.89      0.00
  -23   32   41     12.52      0.00
  -20   32   41    -26.50      0.00
  -17   32   41      9.03      0.00
  -14   32   41    -20.71      0.00
  -11   32   41     24.60      0.00
   -8   32   41      0.96      0.00
   -5   32   41      1.10      0.00
   -2   32   41      1.61      0.00
  -31   33   41    -32.03      0.00
  -28   33   41     -2.87      0.00
  -25   33   41     26.61      0.00
  -22   33   41    -35.69      0.00
  -19   33   41      9.86      0.00
  -16   33   41    -13.73      0.00
  -13   33   41     16.58      0.00
  -10   33   41     22.93      0.00
   -7   33   41     14.46      0.00
   -4   33   41     34.94      0.00
   -1   33   41     -4.40      0.00
  -33   34   41     20.43      0.00
  -30   34   41     10.66      0.00
  -27   34   41    -10.09      0.00
  -24   34   41    -22.46      0.00
  -21   34   41    -14.93      0.00
  -18   34   41      7.88      0.00
  -15   34   41     22.21      0.00
  -12   34   41     -9.80      0.00
   -9   34   41    -20.43      0.00
   -6   34   41     23.23      0.00
   -3   34   41     23.48      0.00
  -32   35   41      8.88      0.00
  -29   35   41      4.14      0.00
  -26   35   41     12.56      0.00
  -23   35   41      3.90      0.00
  -20   35   41     19.98      0.00
  -17   35   41    -18.41      0.00
  -14   35   41     -0.15      0.00
  -11   35   41      4.28      0.00
   -8   35   41     20.19      0.00
   -5   35   41      6.45      0.00
   -2   35   41      5.39      0.00
  -34   36   41    -14.09      0.00
  -31   36   41    -25.78      0.00
  -28   36   41     -5.96      0.00
  -25   36   41    -17.78      0.00
  -22   36   41     24.47      0.00
  -19   36   41    -15.13      0.00
  -16   36   41      1.46      0.00
  -13   36   41     13.03      0.00
  -10   36   41      2.89      0.00
   -7   36   41     31.74      0.00
   -4   36   41    -46.30      0.00
   -1   36   41    -19.43      0.00
  -33   37   41     -2.93      0.00
  -30   37   41     17.10      0.00
  -27   37   41     -0.15      0.00
  -24   37   41     29.11      0.00
  -21   37   41      1.74      0.00
  -18   37   41    -20.61      0.00
  -15   37   41      2.69      0.00
  -12   37   41     -1.15      0.00
   -9   37   41     44.49      0.00
   -6   37   41      2.59      0.00
   -3   37   41     10.43      0.00
  -32   38   41     14.11      0.00
  -29   38   41    -39.11      0.00
  -26   38   41    -35.05      0.00
  -23   38   41      1.52      0.00
  -20   38   41    -33.18      0.00
  -17   38   41     -3.52      0.00
  -14   38   41    -22.83      0.00
  -11   38   41    -23.21      0.00
   -8   38   41     20.42      0.00
   -5   38   41     22.27      0.00
  -34   39   41     -1.26      0.00
  -31   39   41    -23.08      0.00
  -28   39   41    -23.78      0.00
  -25   39   41      6.00      0.00
  -22   39   41    -13.04      0.00
  -19   39   41      0.99      0.00
  -16   39   41     -2.67      0.00
  -13   39   41     21.49      0.00
  -10   39   41     -0.26      0.00
   -7   39   41     27.34      0.00
  -30   40   41    -23.22      0.00
  -27   40   41     -6.58      0.00
  -24   40   41     -6.73      0.00
  -21   40   41      9.85      0.00
  -18   40   41    -31.55      0.00
  -15   40   41      3.24      0.00
  -12   40   41     -3.12      0.00
   -9   40   41     21.21      0.00
  -29   41   41    -27.04      0.00
  -23   41   41    -23.55      0.00
  -20   41   41     -3.96      0.00
  -17   41   41    -44.94      0.00
  -14   41   41     20.12      0.00
  -28   42   41    -15.79      0.00
  -25   42   41    -12.33      0.00
  -16   42   41      1.50      0.00
    0    0   42     91.62      0.00
   -1    2   42     41.39      0.00
   -3    3   42      3.65      0.00
    0    3   42     72.14      0.00
   -2    4   42     30.82      0.00
   -4    5   42      9.81      0.00
   -1    5   42     -1.14      0.00
   -6    6   42     99.33      0.00
   -3    6   42      8.22      0.00
    0    6   42     51.59      0.00
   -5    7   42     -0.54      0.00
   -2    7   42     30.47      0.00
   -7    8   42    -17.94      0.00
   -4    8   42     13.59      0.00
   -1    8   42      6.73      0.00
   -9    9   42     -0.73      0.00
   -6    9   42     -1.38      0.00
   -3    9   42    -55.85      0.00
    0    9   42    -36.38      0.00
   -8   10   42     -2.34      0.00
   -5   10   42    -21.82      0.00
   -2   10   42     11.09      0.00
  -10   11   42    -43.90      0.00
   -7   11   42    -31.40      0.00
   -4   11   42     -1.62      0.00
   -1   11   42    -11.02      0.00
  -12   12   42     41.96      0.00
   -9   12   42     21.88      0.00
   -6   12   42     32.04      0.00
   -3   12   42    -21.15      0.00
    0   12   42     27.01      0.00
  -11   13   42     21.70      0.00
   -8   13   42      6.00      0.00
   -5   13   42    -61.40      0.00
   -2   13   42     25.17      0.00
  -13   14   42    -10.10      0.00
  -10   14   42     -9.26      0.00
   -7   14   42     -8.56      0.00
   -4   14   42     -0.05      0.00
   -1   14   42     63.58      0.00
  -15   15   42     53.97      0.00
  -12   15   42    -12.08      0.00
   -9   15   42     23.05      0.00
   -6   15   42    -10.10      0.00
   -3   15   42     -9.46      0.00
    0   15   42     18.07      0.00
  -14   16   42      7.98      0.00
  -11   16   42     -4.19      0.00
   -8   16   42    -52.05      0.00
   -5   16   42    -19.78      0.00
   -2   16   42      1.57      0.00
  -16   17   42     -9.84      0.00
  -13   17   42    -31.26      0.00
  -10   17   42    -29.21      0.00
   -7   17   42    -10.76      0.00
   -4   17   42    -17.47      0.00
   -1   17   42     25.05      0.00
  -18   18   42    -30.79      0.00
  -15   18   42      6.21      0.00
  -12   18   42     28.95      0.00
   -9   18   42     12.08      0.00
   -6   18   42     34.04      0.00
   -3   18   42    -11.11      0.00
    0   18   42     -5.84      0.00
  -17   19   42     19.53      0.00
  -14   19   42     43.74      0.00
  -11   19   42    -37.63      0.00
   -8   19   42    -25.44      0.00
   -5   19   42    -17.24      0.00
   -2   19   42      4.27      0.00
  -19   20   42    -16.22      0.00
  -16   20   42    -19.55      0.00
  -13   20   42     -3.81      0.00
  -10   20   42    -21.10      0.00
   -7   20   42     -2.75      0.00
   -4   20   42    -15.14      0.00
   -1   20   42      4.22      0.00
  -21   21   42     -0.97      0.00
  -18   21   42     -0.26      0.00
  -15   21   42     17.01      0.00
  -12   21   42      0.75      0.00
   -9   21   42     -9.14      0.00
   -6   21   42      1.08      0.00
   -3   21   42      0.55      0.00
    0   21   42     -8.65      0.00
  -20   22   42    -20.79      0.00
  -17   22   42     30.06      0.00
  -14   22   42     21.09      0.00
  -11   22   42      0.49      0.00
   -8   22   42     -5.96      0.00
   -5   22   42     26.43      0.00
   -2   22   42      4.89      0.00
  -22   23   42     24.49      0.00
  -19   23   42      1.82      0.00
  -16   23   42    -24.13      0.00
  -13   23   42     -6.93      0.00
  -10   23   42    -11.30      0.00
   -7   23   42     -4.98      0.00
   -4   23   42     -7.45      0.00
   -1   23   42     15.75      0.00
  -24   24   42    -33.38      0.00
  -21   24   42     12.19      0.00
  -18   24   42    -18.02      0.00
  -15   24   42      5.41      0.00
  -12   24   42     17.48      0.00
   -9   24   42     -6.02      0.00
   -6   24   42    -10.90      0.00
   -3   24   42    -16.15      0.00
    0   24   42     -8.58      0.00
  -23   25   42      3.54      0.00
  -20   25   42      4.82      0.00
  -17   25   42     15.87      0.00
  -14   25   42     -7.37      0.00
  -11   25   42    -22.11      0.00
   -8   25   42     -7.46      0.00
   -5   25   42    -10.63      0.00
   -2   25   42     -7.16      0.00
  -25   26   42     -2.81      0.00
  -22   26   42     -4.21      0.00
  -19   26   42      3.24      0.00
  -16   26   42      0.51      0.00
  -13   26   42      2.89      0.00
  -10   26   42    -16.18      0.00
   -7   26   42      9.53      0.00
   -4   26   42      0.34      0.00
   -1   26   42     14.67      0.00
  -27   27   42     28.63      0.00
  -24   27   42      7.48      0.00
  -21   27   42     11.66      0.00
  -18   27   42      9.99      0.00
  -15   27   42    -17.88      0.00
  -12   27   42     16.89      0.00
   -9   27   42    -17.01      0.00
   -6   27   42    -18.64      0.00
   -3   27   42    -18.51      0.00
    0   27   42    -42.99      0.00
  -26   28   42     12.46      0.00
  -23   28   42    -25.95      0.00
  -20   28   42     20.13      0.00
  -17   28   42     20.64      0.00
  -14   28   42     19.50      0.00
  -11   28   42     17.39      0.00
   -8   28   42     10.54      0.00
   -5   28   42     16.26      0.00
   -2   28   42     10.71      0.00
  -28   29   42    -14.56      0.00
  -25   29   42     21.51      0.00
  -22   29   42      3.95      0.00
  -19   29   42     15.95      0.00
  -16   29   42     38.08      0.00
  -13   29   42     10.00      0.00
  -10   29   42     11.83      0.00
   -7   29   42     -5.50      0.00
   -4   29   42     20.33      0.00
   -1   29   42     25.40      0.00
  -30   30   42     -5.46      0.00
  -27   30   42      7.16      0.00
  -24   30   42      9.63      0.00
  -21   30   42     17.57      0.00
  -18   30   42     -9.96      0.00
  -15   30   42      7.04      0.00
  -12   30   42    -12.14      0.00
   -9   30   42     26.90      0.00
   -6   30   42    -21.94      0.00
   -3   30   42     -1.36      0.00
    0   30   42     19.88      0.00
  -29   31   42      9.99      0.00
  -26   31   42     27.22      0.00
  -23   31   42    -31.73      0.00
  -20   31   42      2.94      0.00
  -17   31   42    -25.51      0.00
  -14   31   42    -22.75      0.00
  -11   31   42    -14.63      0.00
   -8   31   42    -16.67      0.00
   -5   31   42     -2.66      0.00
   -2   31   42    -17.69      0.00
  -31   32   42    -11.77      0.00
  -28   32   42    -55.42      0.00
  -25   32   42    -10.65      0.00
  -22   32   42    -17.37      0.00
  -19   32   42     -1.42      0.00
  -16   32   42     -4.58      0.00
  -13   32   42      6.87      0.00
  -10   32   42     -1.23      0.00
   -7   32   42      9.82      0.00
   -4   32   42     -3.75      0.00
   -1   32   42     -6.12      0.00
  -33   33   42    -14.92      0.00
  -30   33   42     -7.18      0.00
  -27   33   42     10.67      0.00
  -24   33   42     -0.01      0.00
  -21   33   42    -15.43      0.00
  -18   33   42    -29.95      0.00
  -15   33   42     -7.99      0.00
  -12   33   42     -5.54      0.00
   -9   33   42     -4.02      0.00
   -6   33   42    -19.15      0.00
   -3   33   42     11.71      0.00
    0   33   42    -36.59      0.00
  -32   34   42      9.07      0.00
  -29   34   42     -6.98      0.00
  -26   34   42    -22.54      0.00
  -23   34   42     10.37      0.00
  -20   34   42      3.43      0.00
  -17   34   42     12.67      0.00
  -14   34   42    -17.59      0.00
  -11   34   42     11.36      0.00
   -8   34   42    -20.72      0.00
   -5   34   42     -2.96      0.00
   -2   34   42    -17.08      0.00
  -34   35   42      5.81      0.00
  -31   35   42     -9.72      0.00
  -28   35   42      5.71      0.00
  -25   35   42     37.37      0.00
  -22   35   42      3.82      0.00
  -19   35   42     -5.32      0.00
  -16   35   42     12.10      0.00
  -13   35   42      4.27      0.00
  -10   35   42     14.63      0.00
   -7   35   42      4.86      0.00
   -4   35   42     21.90      0.00
   -1   35   42     -2.36      0.00
  -33   36   42     -5.94      0.00
  -30   36   42    -17.40      0.00
  -27   36   42     29.08      0.00
  -24   36   42     -6.17      0.00
  -21   36   42     18.56      0.00
  -18   36   42     -0.93      0.00
  -15   36   42     12.88      0.00
  -12   36   42     -7.43      0.00
   -9   36   42      7.04      0.00
   -6   36   42    -19.95      0.00
   -3   36   42     29.39      0.00
  -32   37   42    -10.05      0.00
  -29   37   42     27.19      0.00
  -26   37   42     -4.42      0.00
  -23   37   42    -18.00      0.00
  -20   37   42    -19.86      0.00
  -17   37   42     -4.16      0.00
  -14   37   42     -8.19      0.00
  -11   37   42     29.38      0.00
   -8   37   42    -10.67      0.00
   -5   37   42      2.88      0.00
  -34   38   42     -5.01      0.00
  -31   38   42    -14.48      0.00
  -28   38   42     -8.14      0.00
  -25   38   42    -23.92      0.00
  -22   38   42    -33.11      0.00
  -19   38   42     -6.93      0.00
  -16   38   42    -35.24      0.00
  -13   38   42      8.21      0.00
  -10   38   42    -18.69      0.00
   -7   38   42     -1.04      0.00
   -4   38   42      3.44      0.00
  -33   39   42    -12.27      0.00
  -30   39   42     21.85      0.00
  -27   39   42    -12.59      0.00
  -24   39   42     14.01      0.00
  -21   39   42    -23.36      0.00
  -18   39   42    -14.58      0.00
  -15   39   42     36.27      0.00
  -12   39   42    -26.22      0.00
   -9   39   42     21.19      0.00
   -6   39   42    -31.78      0.00
  -32   40   42      2.36      0.00
  -29   40   42     -0.40      0.00
  -26   40   42    -41.59      0.00
  -23   40   42    -11.93      0.00
  -20   40   42    -22.87      0.00
  -17   40   42      4.75      0.00
  -14   40   42     15.27      0.00
  -11   40   42     18.62      0.00
   -8   40   42      5.46      0.00
  -28   41   42     12.08      0.00
  -25   41   42    -11.64      0.00
  -22   41   42     -4.27      0.00
  -16   41   42      3.87      0.00
  -13   41   42     -3.63      0.00
  -15   42   42      3.05      0.00
   -2    3   43    -12.75      0.00
   -1    4   43     38.24      0.00
   -3    5   43     79.58      0.00
   -5    6   43     49.44      0.00
   -2    6   43     67.07      0.00
   -4    7   43     29.95      0.00
   -1    7   43     12.80      0.00
   -6    8   43     -2.93      0.00
   -3    8   43    -20.33      0.00
   -8    9   43     10.36      0.00
   -5    9   43     -5.26      0.00
   -2    9   43     14.66      0.00
   -7   10   43    -40.03      0.00
   -4   10   43     10.84      0.00
   -1   10   43     58.76      0.00
   -9   11   43     12.72      0.00
   -6   11   43     -4.23      0.00
   -3   11   43     39.77      0.00
  -11   12   43     32.74      0.00
   -8   12   43     54.53      0.00
   -5   12   43      3.18      0.00
   -2   12   43     30.48      0.00
  -10   13   43     10.30      0.00
   -7   13   43    -21.89      0.00
   -4   13   43     20.98      0.00
   -1   13   43      2.75      0.00
  -12   14   43      9.81      0.00
   -9   14   43     -7.88      0.00
   -6   14   43      9.52      0.00
   -3   14   43     19.13      0.00
  -14   15   43      4.25      0.00
  -11   15   43     -0.90      0.00
   -8   15   43     -0.58      0.00
   -5   15   43    -54.69      0.00
   -2   15   43    -31.64      0.00
  -13   16   43      3.48      0.00
  -10   16   43     17.89      0.00
   -7   16   43    -27.85      0.00
   -4   16   43    -37.87      0.00
   -1   16   43     17.17      0.00
  -15   17   43    -25.28      0.00
  -12   17   43    -13.71      0.00
   -9   17   43     14.62      0.00
   -6   17   43     31.86      0.00
   -3   17   43    -14.33      0.00
  -17   18   43     19.92      0.00
  -14   18   43      3.09      0.00
  -11   18   43     22.45      0.00
   -8   18   43     -3.42      0.00
   -5   18   43      2.56      0.00
   -2   18   43     10.56      0.00
  -16   19   43     -3.44      0.00
  -13   19   43     -0.63      0.00
  -10   19   43      2.29      0.00
   -7   19   43    -49.40      0.00
   -4   19   43     -5.53      0.00
   -1   19   43     -9.43      0.00
  -18   20   43     -5.97      0.00
  -15   20   43    -19.83      0.00
  -12   20   43     11.71      0.00
   -9   20   43     -5.93      0.00
   -6   20   43      2.94      0.00
   -3   20   43     39.90      0.00
  -20   21   43      6.66      0.00
  -17   21   43    -10.35      0.00
  -14   21   43     18.81      0.00
  -11   21   43    -28.41      0.00
   -8   21   43    -22.09      0.00
   -5   21   43     11.82      0.00
   -2   21   43     22.56      0.00
  -19   22   43     23.11      0.00
  -16   22   43     10.18      0.00
  -13   22   43     21.69      0.00
  -10   22   43    -20.68      0.00
   -7   22   43      7.03      0.00
   -4   22   43     21.60      0.00
   -1   22   43     16.71      0.00
  -21   23   43     -9.09      0.00
  -18   23   43      2.04      0.00
  -15   23   43     -6.13      0.00
  -12   23   43     17.29      0.00
   -9   23   43      8.05      0.00
   -6   23   43     13.98      0.00
   -3   23   43    -13.34      0.00
  -23   24   43    -10.49      0.00
  -20   24   43    -23.75      0.00
  -17   24   43      8.54      0.00
  -14   24   43     12.03      0.00
  -11   24   43     22.77      0.00
   -8   24   43     30.59      0.00
   -5   24   43      8.31      0.00
   -2   24   43      6.88      0.00
  -22   25   43    -13.84      0.00
  -19   25   43     21.45      0.00
  -16   25   43      7.91      0.00
  -13   25   43      9.66      0.00
  -10   25   43    -19.82      0.00
   -7   25   43      5.09      0.00
   -4   25   43     19.47      0.00
   -1   25   43     24.85      0.00
  -24   26   43     14.37      0.00
  -21   26   43     10.42      0.00
  -18   26   43     15.94      0.00
  -15   26   43    -11.97      0.00
  -12   26   43     12.27      0.00
   -9   26   43      7.79      0.00
   -6   26   43     30.32      0.00
   -3   26   43      1.65      0.00
  -26   27   43      4.91      0.00
  -23   27   43     -2.22      0.00
  -20   27   43     -2.37      0.00
  -17   27   43     25.17      0.00
  -14   27   43     13.16      0.00
  -11   27   43     12.48      0.00
   -8   27   43    -22.51      0.00
   -5   27   43     19.92      0.00
   -2   27   43    -15.35      0.00
  -25   28   43    -27.19      0.00
  -22   28   43      8.06      0.00
  -19   28   43      0.97      0.00
  -16   28   43    -11.71      0.00
  -13   28   43     -1.58      0.00
  -10   28   43     -9.69      0.00
   -7   28   43     -2.74      0.00
   -4   28   43      2.67      0.00
   -1   28   43     15.50      0.00
  -27   29   43      2.02      0.00
  -24   29   43    -10.90      0.00
  -21   29   43     25.36      0.00
  -18   29   43      8.67      0.00
  -15   29   43     -0.35      0.00
  -12   29   43     -7.74      0.00
   -9   29   43    -19.19      0.00
   -6   29   43      2.20      0.00
   -3   29   43    -27.48      0.00
  -29   30   43     -5.74      0.00
  -26   30   43    -14.92      0.00
  -23   30   43     -8.00      0.00
  -20   30   43     -0.93      0.00
  -17   30   43      5.91      0.00
  -14   30   43     20.60      0.00
  -11   30   43      0.37      0.00
   -8   30   43    -24.39      0.00
   -5   30   43    -18.30      0.00
   -2   30   43    -39.20      0.00
  -28   31   43     -7.48      0.00
  -25   31   43    -15.65      0.00
  -22   31   43    -16.68      0.00
  -19   31   43    -12.41      0.00
  -16   31   43     -2.89      0.00
  -13   31   43     -7.07      0.00
  -10   31   43      6.33      0.00
   -7   31   43      1.19      0.00
   -4   31   43      5.73      0.00
   -1   31   43     20.63      0.00
  -30   32   43     -9.42      0.00
  -27   32   43    -28.77      0.00
  -24   32   43     11.36      0.00
  -21   32   43     -9.12      0.00
  -18   32   43      3.26      0.00
  -15   32   43    -14.07      0.00
  -12   32   43    -27.48      0.00
   -9   32   43    -16.75      0.00
   -6   32   43     -2.08      0.00
   -3   32   43     -7.80      0.00
  -32   33   43     -5.58      0.00
  -29   33   43     21.06      0.00
  -26   33   43     32.17      0.00
  -23   33   43      7.93      0.00
  -20   33   43     24.45      0.00
  -17   33   43     19.57      0.00
  -14   33   43    -11.56      0.00
  -11   33   43      8.22      0.00
   -8   33   43    -16.66      0.00
   -5   33   43     -2.19      0.00
   -2   33   43     -5.87      0.00
  -31   34   43     10.46      0.00
  -28   34   43      0.06      0.00
  -25   34   43     -5.42      0.00
  -22   34   43      9.35      0.00
  -19   34   43     32.11      0.00
  -16   34   43    -18.98      0.00
  -13   34   43     -0.08      0.00
  -10   34   43    -18.77      0.00
   -7   34   43     -7.74      0.00
   -4   34   43     22.78      0.00
   -1   34   43     44.64      0.00
  -33   35   43     -9.13      0.00
  -30   35   43      0.04      0.00
  -27   35   43      6.60      0.00
  -24   35   43     10.47      0.00
  -21   35   43     23.67      0.00
  -18   35   43    -23.16      0.00
  -15   35   43      5.90      0.00
  -12   35   43     37.44      0.00
   -9   35   43     28.79      0.00
   -6   35   43     11.95      0.00
   -3   35   43     -4.68      0.00
  -35   36   43     27.46      0.00
  -32   36   43    -11.85      0.00
  -29   36   43    -26.88      0.00
  -26   36   43      1.52      0.00
  -23   36   43     -6.82      0.00
  -20   36   43     -5.67      0.00
  -17   36   43    -14.49      0.00
  -14   36   43    -35.21      0.00
  -11   36   43     -3.24      0.00
   -8   36   43     27.52      0.00
   -5   36   43     -5.84      0.00
   -2   36   43    -42.91      0.00
  -34   37   43    -10.79      0.00
  -31   37   43     -8.97      0.00
  -28   37   43    -11.36      0.00
  -25   37   43     -2.34      0.00
  -22   37   43    -20.59      0.00
  -19   37   43    -31.10      0.00
  -16   37   43     18.55      0.00
  -13   37   43      6.59      0.00
  -10   37   43    -29.71      0.00
   -4   37   43     18.89      0.00
  -33   38   43    -19.54      0.00
  -30   38   43    -39.36      0.00
  -27   38   43    -29.74      0.00
  -24   38   43     -0.86      0.00
  -21   38   43    -42.89      0.00
  -18   38   43    -41.62      0.00
  -15   38   43     22.06      0.00
  -12   38   43     30.97      0.00
   -9   38   43     -1.31      0.00
   -6   38   43    -16.27      0.00
  -32   39   43    -19.72      0.00
  -29   39   43     16.88      0.00
  -26   39   43    -12.52      0.00
  -23   39   43    -38.10      0.00
  -20   39   43     -5.51      0.00
  -17   39   43      9.65      0.00
  -14   39   43     18.38      0.00
  -11   39   43     -1.26      0.00
   -8   39   43    -25.87      0.00
  -28   40   43    -16.67      0.00
  -25   40   43     10.12      0.00
  -22   40   43    -30.40      0.00
  -19   40   43     19.10      0.00
  -16   40   43     -7.51      0.00
  -13   40   43     43.06      0.00
  -27   41   43      2.00      0.00
  -24   41   43     -8.41      0.00
  -18   41   43    -11.97      0.00
  -15   41   43     15.47      0.00
  -23   42   43    -13.79      0.00
    0    1   44    -73.32      0.00
   -2    2   44     -6.55      0.00
   -1    3   44    -39.80      0.00
   -3    4   44     -4.64      0.00
    0    4   44     27.55      0.00
   -5    5   44     69.35      0.00
   -2    5   44     59.23      0.00
   -4    6   44      3.33      0.00
   -1    6   44     15.26      0.00
   -6    7   44    -30.12      0.00
   -3    7   44      9.09      0.00
    0    7   44    -70.35      0.00
   -8    8   44    -38.61      0.00
   -5    8   44     34.75      0.00
   -2    8   44     38.90      0.00
   -7    9   44     -4.21      0.00
   -4    9   44    -27.06      0.00
   -1    9   44    -40.50      0.00
   -9   10   44    -54.26      0.00
   -6   10   44     53.95      0.00
   -3   10   44    -36.12      0.00
    0   10   44    -24.05      0.00
  -11   11   44     -9.46      0.00
   -8   11   44     11.90      0.00
   -5   11   44     23.15      0.00
   -2   11   44     -8.08      0.00
  -10   12   44     -5.50      0.00
   -7   12   44     34.95      0.00
   -4   12   44    -16.89      0.00
   -1   12   44    -19.63      0.00
  -12   13   44    -13.88      0.00
   -9   13   44    -25.13      0.00
   -6   13   44    -23.02      0.00
   -3   13   44      8.73      0.00
    0   13   44     -0.17      0.00
  -14   14   44     21.76      0.00
  -11   14   44    -15.04      0.00
   -8   14   44     19.19      0.00
   -5   14   44    -25.94      0.00
   -2   14   44    -19.53      0.00
  -13   15   44     39.33      0.00
  -10   15   44     47.60      0.00
   -7   15   44    -10.79      0.00
   -4   15   44    -22.45      0.00
   -1   15   44    -46.83      0.00
  -15   16   44    -38.15      0.00
  -12   16   44    -31.19      0.00
   -9   16   44    -22.72      0.00
   -6   16   44     13.79      0.00
   -3   16   44      5.67      0.00
    0   16   44      7.64      0.00
  -17   17   44    -11.88      0.00
  -14   17   44     -6.94      0.00
  -11   17   44    -13.15      0.00
   -8   17   44    -24.18      0.00
   -5   17   44      9.81      0.00
   -2   17   44     -8.42      0.00
  -16   18   44    -29.38      0.00
  -13   18   44     39.61      0.00
  -10   18   44      8.57      0.00
   -7   18   44     24.73      0.00
   -4   18   44    -60.01      0.00
   -1   18   44     25.37      0.00
  -18   19   44    -16.85      0.00
  -15   19   44      1.09      0.00
  -12   19   44    -40.05      0.00
   -9   19   44     -8.74      0.00
   -6   19   44     -5.32      0.00
   -3   19   44     -7.66      0.00
    0   19   44      6.78      0.00
  -20   20   44    -15.13      0.00
  -17   20   44     -0.92      0.00
  -14   20   44     -9.12      0.00
  -11   20   44    -14.83      0.00
   -8   20   44     11.10      0.00
   -5   20   44    -26.49      0.00
   -2   20   44      7.73      0.00
  -19   21   44     34.98      0.00
  -16   21   44     22.68      0.00
  -13   21   44     15.18      0.00
  -10   21   44      2.79      0.00
   -7   21   44    -13.64      0.00
   -4   21   44     -7.98      0.00
   -1   21   44     20.10      0.00
  -21   22   44     29.13      0.00
  -18   22   44     -4.36      0.00
  -15   22   44     17.24      0.00
  -12   22   44     16.77      0.00
   -9   22   44     19.67      0.00
   -6   22   44     -1.10      0.00
   -3   22   44     -6.31      0.00
    0   22   44    -16.27      0.00
  -23   23   44     19.72      0.00
  -20   23   44     -9.59      0.00
  -17   23   44    -27.94      0.00
  -14   23   44      1.45      0.00
  -11   23   44      0.65      0.00
   -8   23   44     13.49      0.00
   -5   23   44     30.36      0.00
   -2   23   44     10.45      0.00
  -22   24   44    -12.21      0.00
  -19   24   44    -15.69      0.00
  -16   24   44     -7.68      0.00
  -13   24   44     12.47      0.00
  -10   24   44    -25.05      0.00
   -7   24   44     11.79      0.00
   -4   24   44    -10.35      0.00
   -1   24   44     22.14      0.00
  -24   25   44     19.41      0.00
  -21   25   44     27.77      0.00
  -18   25   44     -1.50      0.00
  -15   25   44     13.64      0.00
  -12   25   44     15.51      0.00
   -9   25   44    -11.11      0.00
   -6   25   44      6.64      0.00
   -3   25   44      2.10      0.00
    0   25   44    -15.49      0.00
  -26   26   44    -37.22      0.00
  -23   26   44      6.67      0.00
  -20   26   44    -19.32      0.00
  -17   26   44    -27.68      0.00
  -14   26   44     -4.41      0.00
  -11   26   44     -4.89      0.00
   -8   26   44      9.71      0.00
   -5   26   44      7.69      0.00
   -2   26   44     25.67      0.00
  -25   27   44     18.40      0.00
  -22   27   44    -18.80      0.00
  -19   27   44      3.39      0.00
  -16   27   44    -10.62      0.00
  -13   27   44     -3.32      0.00
  -10   27   44    -25.40      0.00
   -7   27   44     -7.11      0.00
   -4   27   44    -35.18      0.00
   -1   27   44      4.50      0.00
  -27   28   44     -4.72      0.00
  -24   28   44    -20.19      0.00
  -21   28   44     -1.16      0.00
  -18   28   44      4.46      0.00
  -15   28   44      8.31      0.00
  -12   28   44     -1.25      0.00
   -9   28   44     -5.07      0.00
   -6   28   44    -10.13      0.00
   -3   28   44     16.11      0.00
    0   28   44      2.98      0.00
  -29   29   44      1.00      0.00
  -26   29   44     -1.58      0.00
  -23   29   44    -19.75      0.00
  -20   29   44     -6.45      0.00
  -17   29   44    -14.38      0.00
  -14   29   44      5.50      0.00
  -11   29   44     31.19      0.00
   -8   29   44     10.43      0.00
   -5   29   44     -6.70      0.00
   -2   29   44      7.78      0.00
  -28   30   44     13.26      0.00
  -25   30   44     -7.35      0.00
  -22   30   44    -18.49      0.00
  -19   30   44     -9.13      0.00
  -16   30   44     -2.49      0.00
  -13   30   44      6.54      0.00
  -10   30   44     -0.97      0.00
   -7   30   44     -1.56      0.00
   -4   30   44     -2.51      0.00
   -1   30   44      9.05      0.00
  -30   31   44     14.86      0.00
  -27   31   44      7.83      0.00
  -24   31   44    -19.55      0.00
  -21   31   44      5.31      0.00
  -18   31   44    -13.12      0.00
  -15   31   44    -14.87      0.00
  -12   31   44      4.56      0.00
   -9   31   44     10.71      0.00
   -6   31   44    -10.59      0.00
   -3   31   44     -1.02      0.00
    0   31   44     10.66      0.00
  -32   32   44    -16.38      0.00
  -29   32   44    -25.71      0.00
  -26   32   44    -21.51      0.00
  -23   32   44      1.18      0.00
  -20   32   44     20.36      0.00
  -17   32   44      4.02      0.00
  -14   32   44     11.25      0.00
  -11   32   44      6.06      0.00
   -8   32   44     -5.05      0.00
   -5   32   44      8.98      0.00
   -2   32   44      5.20      0.00
  -31   33   44      5.94      0.00
  -28   33   44      0.95      0.00
  -25   33   44     -1.15      0.00
  -22   33   44    -25.19      0.00
  -19   33   44    -18.66      0.00
  -16   33   44     38.44      0.00
  -13   33   44     15.24      0.00
  -10   33   44      4.90      0.00
   -7   33   44     -5.65      0.00
   -4   33   44    -17.73      0.00
   -1   33   44     24.84      0.00
  -33   34   44    -11.62      0.00
  -30   34   44    -18.98      0.00
  -27   34   44    -15.72      0.00
  -24   34   44      0.42      0.00
  -21   34   44     31.46      0.00
  -18   34   44    -18.12      0.00
  -15   34   44      0.82      0.00
  -12   34   44     -3.31      0.00
   -9   34   44     25.80      0.00
   -6   34   44      2.95      0.00
   -3   34   44      5.44      0.00
    0   34   44    -13.74      0.00
  -35   35   44     -8.14      0.00
  -32   35   44     -2.89      0.00
  -29   35   44    -29.20      0.00
  -26   35   44      0.04      0.00
  -23   35   44    -16.43      0.00
  -20   35   44      3.88      0.00
  -17   35   44     23.43      0.00
  -14   35   44      0.08      0.00
  -11   35   44     -2.14      0.00
   -8   35   44     -5.00      0.00
   -5   35   44     45.46      0.00
   -2   35   44     10.61      0.00
  -34   36   44     10.52      0.00
  -31   36   44    -26.55      0.00
  -28   36   44    -14.12      0.00
  -25   36   44      6.94      0.00
  -22   36   44    -15.01      0.00
  -19   36   44    -11.65      0.00
  -16   36   44     -0.32      0.00
  -13   36   44     15.17      0.00
  -10   36   44    -24.80      0.00
   -7   36   44     -5.77      0.00
   -4   36   44    -12.38      0.00
  -33   37   44     -4.62      0.00
  -30   37   44     -5.90      0.00
  -27   37   44     14.54      0.00
  -24   37   44     -8.23      0.00
  -21   37   44      3.71      0.00
  -18   37   44     -6.23      0.00
  -15   37   44    -23.83      0.00
  -12   37   44      9.27      0.00
   -9   37   44    -30.24      0.00
   -6   37   44      6.46      0.00
   -3   37   44      2.91      0.00
  -32   38   44      4.11      0.00
  -29   38   44     -3.89      0.00
  -26   38   44    -16.39      0.00
  -23   38   44     13.75      0.00
  -20   38   44      6.13      0.00
  -17   38   44     -6.23      0.00
  -14   38   44     43.86      0.00
  -11   38   44    -23.69      0.00
   -8   38   44     -0.19      0.00
   -5   38   44      0.73      0.00
  -34   39   44    -10.60      0.00
  -31   39   44     -2.65      0.00
  -28   39   44     36.79      0.00
  -25   39   44      0.49      0.00
  -22   39   44      4.89      0.00
  -19   39   44      5.60      0.00
  -16   39   44     -2.14      0.00
  -13   39   44     16.30      0.00
  -10   39   44    -30.47      0.00
  -27   40   44    -17.27      0.00
  -24   40   44     22.08      0.00
  -21   40   44     24.52      0.00
  -18   40   44    -19.66      0.00
  -15   40   44    -16.16      0.00
  -12   40   44    -24.35      0.00
  -29   41   44     19.09      0.00
  -26   41   44     32.16      0.00
  -23   41   44     -0.63      0.00
  -17   41   44     -2.14      0.00
  -14   41   44      8.40      0.00
  -25   42   44     10.38      0.00
  -16   42   44    -28.72      0.00
   -1    2   45    -18.25      0.00
   -2    4   45     12.38      0.00
   -4    5   45     35.36      0.00
   -1    5   45      6.50      0.00
   -3    6   45      9.22      0.00
   -5    7   45    -41.78      0.00
   -2    7   45     11.04      0.00
   -7    8   45    -20.63      0.00
   -4    8   45    -26.09      0.00
   -1    8   45     -0.92      0.00
   -6    9   45    -37.28      0.00
   -3    9   45     22.53      0.00
   -8   10   45    -12.67      0.00
   -5   10   45    -25.00      0.00
   -2   10   45     61.90      0.00
  -10   11   45      1.20      0.00
   -7   11   45     14.44      0.00
   -4   11   45     36.78      0.00
   -1   11   45     20.88      0.00
   -9   12   45    -12.54      0.00
   -6   12   45     -8.62      0.00
   -3   12   45     37.23      0.00
  -11   13   45    -14.38      0.00
   -8   13   45      1.74      0.00
   -5   13   45      3.54      0.00
   -2   13   45     34.22      0.00
  -13   14   45    -16.67      0.00
  -10   14   45     17.56      0.00
   -7   14   45     29.17      0.00
   -4   14   45     30.60      0.00
   -1   14   45     14.24      0.00
  -12   15   45    -38.22      0.00
   -9   15   45    -17.59      0.00
   -6   15   45    -23.90      0.00
   -3   15   45    -28.57      0.00
  -14   16   45    -12.20      0.00
  -11   16   45    -31.36      0.00
   -8   16   45    -36.22      0.00
   -5   16   45     -7.43      0.00
   -2   16   45     21.39      0.00
  -16   17   45    -18.71      0.00
  -13   17   45    -25.00      0.00
  -10   17   45     40.60      0.00
   -7   17   45     -3.86      0.00
   -4   17   45     19.58      0.00
   -1   17   45    -33.00      0.00
  -15   18   45      9.80      0.00
  -12   18   45     43.11      0.00
   -9   18   45     10.04      0.00
   -6   18   45    -17.26      0.00
   -3   18   45     25.24      0.00
  -17   19   45    -12.72      0.00
  -14   19   45    -11.41      0.00
  -11   19   45    -26.53      0.00
   -8   19   45    -21.55      0.00
   -5   19   45    -19.56      0.00
   -2   19   45      6.08      0.00
  -19   20   45     19.75      0.00
  -16   20   45      9.54      0.00
  -13   20   45     16.78      0.00
  -10   20   45      0.52      0.00
   -7   20   45     -2.65      0.00
   -4   20   45      3.30      0.00
   -1   20   45     26.86      0.00
  -18   21   45     27.11      0.00
  -15   21   45     15.96      0.00
  -12   21   45     25.79      0.00
   -9   21   45      1.35      0.00
   -6   21   45     -6.62      0.00
   -3   21   45      2.81      0.00
  -20   22   45    -21.19      0.00
  -17   22   45    -19.95      0.00
  -14   22   45    -23.96      0.00
  -11   22   45    -31.24      0.00
   -8   22   45     -8.49      0.00
   -5   22   45     18.86      0.00
   -2   22   45     25.36      0.00
  -22   23   45     26.75      0.00
  -19   23   45    -13.48      0.00
  -16   23   45      1.09      0.00
  -13   23   45    -14.99      0.00
  -10   23   45     -1.60      0.00
   -7   23   45    -25.28      0.00
   -4   23   45    -17.07      0.00
   -1   23   45     10.44      0.00
  -21   24   45      1.92      0.00
  -18   24   45     15.13      0.00
  -15   24   45     15.25      0.00
  -12   24   45     16.08      0.00
   -9   24   45     14.67      0.00
   -6   24   45     12.58      0.00
   -3   24   45     20.94      0.00
  -23   25   45      5.45      0.00
  -20   25   45      6.79      0.00
  -17   25   45      1.78      0.00
  -14   25   45    -15.07      0.00
  -11   25   45     -3.66      0.00
   -8   25   45      1.57      0.00
   -5   25   45      4.83      0.00
   -2   25   45      5.43      0.00
  -25   26   45     20.56      0.00
  -22   26   45     26.92      0.00
  -19   26   45      1.39      0.00
  -16   26   45     -1.16      0.00
  -13   26   45     23.00      0.00
  -10   26   45      6.00      0.00
   -7   26   45      2.05      0.00
   -4   26   45     11.77      0.00
   -1   26   45     -9.95      0.00
  -24   27   45      5.33      0.00
  -21   27   45     19.83      0.00
  -18   27   45     -0.85      0.00
  -15   27   45     -1.41      0.00
  -12   27   45     -7.63      0.00
   -9   27   45     -2.80      0.00
   -6   27   45      2.39      0.00
   -3   27   45      6.62      0.00
  -26   28   45      9.07      0.00
  -23   28   45     11.85      0.00
  -20   28   45     10.89      0.00
  -17   28   45      7.56      0.00
  -14   28   45     29.65      0.00
  -11   28   45     17.49      0.00
   -8   28   45      1.12      0.00
   -5   28   45      6.29      0.00
   -2   28   45      7.97      0.00
  -28   29   45    -11.57      0.00
  -25   29   45     17.97      0.00
  -22   29   45     -7.20      0.00
  -19   29   45      1.57      0.00
  -16   29   45      1.86      0.00
  -13   29   45     21.77      0.00
  -10   29   45     10.90      0.00
   -7   29   45      7.50      0.00
   -4   29   45     14.38      0.00
   -1   29   45     -6.91      0.00
  -27   30   45     -6.53      0.00
  -24   30   45     12.81      0.00
  -21   30   45     16.96      0.00
  -18   30   45     11.73      0.00
  -15   30   45      6.45      0.00
  -12   30   45    -17.55      0.00
   -9   30   45      3.60      0.00
   -6   30   45     26.36      0.00
   -3   30   45      7.63      0.00
  -29   31   45     13.42      0.00
  -26   31   45    -21.44      0.00
  -23   31   45    -12.32      0.00
  -20   31   45      3.78      0.00
  -17   31   45     33.38      0.00
  -14   31   45     16.53      0.00
  -11   31   45      8.45      0.00
   -8   31   45     22.40      0.00
   -5   31   45     28.53      0.00
   -2   31   45      4.30      0.00
  -31   32   45     10.84      0.00
  -28   32   45     -4.59      0.00
  -25   32   45     -4.18      0.00
  -22   32   45     14.23      0.00
  -19   32   45    -11.30      0.00
  -16   32   45      4.44      0.00
  -13   32   45     16.57      0.00
  -10   32   45     -9.40      0.00
   -7   32   45    -13.36      0.00
   -4   32   45    -15.48      0.00
   -1   32   45     -1.07      0.00
  -30   33   45     32.62      0.00
  -27   33   45     26.39      0.00
  -24   33   45     16.99      0.00
  -21   33   45      1.70      0.00
  -18   33   45      8.29      0.00
  -15   33   45     -6.01      0.00
  -12   33   45      4.26      0.00
   -9   33   45     -0.73      0.00
   -6   33   45     20.90      0.00
   -3   33   45     -4.46      0.00
  -32   34   45      3.62      0.00
  -29   34   45     28.05      0.00
  -26   34   45     -7.36      0.00
  -23   34   45    -21.09      0.00
  -20   34   45     27.55      0.00
  -17   34   45      0.03      0.00
  -14   34   45     -2.88      0.00
  -11   34   45      9.76      0.00
   -8   34   45     23.20      0.00
   -5   34   45    -11.59      0.00
   -2   34   45     22.49      0.00
  -34   35   45     -3.18      0.00
  -31   35   45      4.28      0.00
  -28   35   45     12.30      0.00
  -25   35   45     15.84      0.00
  -22   35   45     18.27      0.00
  -19   35   45    -15.93      0.00
  -16   35   45      6.23      0.00
  -13   35   45     -1.72      0.00
  -10   35   45     -1.47      0.00
   -7   35   45     -5.72      0.00
   -4   35   45    -20.07      0.00
   -1   35   45     13.79      0.00
  -33   36   45     23.41      0.00
  -30   36   45     -9.80      0.00
  -27   36   45    -17.69      0.00
  -24   36   45     -3.03      0.00
  -21   36   45    -16.62      0.00
  -18   36   45      0.04      0.00
  -15   36   45     17.83      0.00
  -12   36   45    -24.13      0.00
   -9   36   45     14.83      0.00
   -6   36   45     14.69      0.00
   -3   36   45      0.14      0.00
  -32   37   45     -3.49      0.00
  -29   37   45     33.32      0.00
  -26   37   45     11.60      0.00
  -23   37   45      4.19      0.00
  -20   37   45      1.98      0.00
  -17   37   45     19.51      0.00
  -14   37   45     -1.09      0.00
  -11   37   45    -24.87      0.00
   -8   37   45    -19.15      0.00
   -5   37   45      7.48      0.00
  -34   38   45    -19.64      0.00
  -31   38   45    -23.28      0.00
  -28   38   45     -4.03      0.00
  -25   38   45      0.01      0.00
  -22   38   45     11.03      0.00
  -19   38   45     25.61      0.00
  -16   38   45      1.22      0.00
  -13   38   45     20.56      0.00
  -10   38   45    -14.55      0.00
   -7   38   45     16.63      0.00
  -27   39   45     -9.02      0.00
  -24   39   45    -24.25      0.00
  -21   39   45     -1.21      0.00
  -18   39   45     22.01      0.00
  -15   39   45     11.75      0.00
  -12   39   45    -38.39      0.00
   -9   39   45     -0.64      0.00
   -6   39   45    -15.43      0.00
  -29   40   45     15.32      0.00
  -26   40   45    -10.24      0.00
  -23   40   45      1.73      0.00
  -20   40   45     33.81      0.00
  -17   40   45      0.36      0.00
  -14   40   45      7.34      0.00
   -8   40   45     17.24      0.00
  -28   41   45      2.33      0.00
  -25   41   45     47.63      0.00
  -22   41   45     16.92      0.00
  -16   41   45     15.99      0.00
   -1    1   46    -43.71      0.00
    0    2   46    -39.39      0.00
   -2    3   46     -9.03      0.00
   -4    4   46      8.50      0.00
   -1    4   46      7.55      0.00
   -3    5   46     83.52      0.00
    0    5   46    -23.91      0.00
   -5    6   46     -6.82      0.00
   -2    6   46     21.55      0.00
   -7    7   46     -3.57      0.00
   -4    7   46    -17.55      0.00
   -1    7   46    -37.22      0.00
   -6    8   46     -4.09      0.00
   -3    8   46     49.21      0.00
    0    8   46    -18.79      0.00
   -8    9   46      1.40      0.00
   -5    9   46     49.78      0.00
   -2    9   46    -15.13      0.00
  -10   10   46     -9.11      0.00
   -7   10   46     -1.73      0.00
   -4   10   46      6.62      0.00
   -1   10   46      7.48      0.00
   -9   11   46     -5.21      0.00
   -6   11   46     16.65      0.00
   -3   11   46      0.77      0.00
    0   11   46    -29.39      0.00
  -11   12   46    -16.81      0.00
   -8   12   46      5.47      0.00
   -5   12   46      2.48      0.00
   -2   12   46     33.37      0.00
  -13   13   46    -14.51      0.00
  -10   13   46    -32.13      0.00
   -7   13   46     39.71      0.00
   -4   13   46      9.63      0.00
   -1   13   46      6.88      0.00
  -12   14   46     -9.19      0.00
   -9   14   46      4.86      0.00
   -6   14   46      4.29      0.00
   -3   14   46    -26.68      0.00
    0   14   46    -82.46      0.00
  -14   15   46     18.92      0.00
  -11   15   46     -6.62      0.00
   -8   15   46    -19.56      0.00
   -5   15   46      7.43      0.00
   -2   15   46    -18.74      0.00
  -16   16   46      3.82      0.00
  -13   16   46     19.69      0.00
  -10   16   46    -11.64      0.00
   -7   16   46     29.47      0.00
   -4   16   46     52.93      0.00
   -1   16   46      4.73      0.00
  -15   17   46     -1.18      0.00
  -12   17   46    -21.64      0.00
   -9   17   46      2.63      0.00
   -6   17   46     64.70      0.00
   -3   17   46     -6.83      0.00
    0   17   46     12.25      0.00
  -17   18   46    -13.41      0.00
  -14   18   46      9.10      0.00
  -11   18   46     -8.71      0.00
   -8   18   46     -6.62      0.00
   -5   18   46     -8.36      0.00
   -2   18   46    -15.38      0.00
  -19   19   46     58.72      0.00
  -16   19   46    -12.36      0.00
  -13   19   46     10.84      0.00
  -10   19   46    -12.80      0.00
   -7   19   46     22.30      0.00
   -4   19   46     15.88      0.00
   -1   19   46      5.58      0.00
  -18   20   46    -12.63      0.00
  -15   20   46    -15.49      0.00
  -12   20   46      4.97      0.00
   -9   20   46     25.98      0.00
   -6   20   46     -1.82      0.00
   -3   20   46     13.53      0.00
    0   20   46     -7.01      0.00
  -20   21   46     11.97      0.00
  -17   21   46     16.79      0.00
  -14   21   46     -9.74      0.00
  -11   21   46     -3.26      0.00
   -8   21   46     -9.44      0.00
   -5   21   46     -5.38      0.00
   -2   21   46     19.96      0.00
  -22   22   46      1.83      0.00
  -19   22   46     17.58      0.00
  -16   22   46    -21.75      0.00
  -13   22   46     -0.21      0.00
  -10   22   46      0.80      0.00
   -7   22   46     -9.74      0.00
   -4   22   46    -16.38      0.00
   -1   22   46      1.39      0.00
  -21   23   46     -2.24      0.00
  -18   23   46     -6.00      0.00
  -15   23   46      4.09      0.00
  -12   23   46      4.68      0.00
   -9   23   46     10.38      0.00
   -6   23   46     23.93      0.00
   -3   23   46     13.60      0.00
    0   23   46     -9.25      0.00
  -23   24   46     26.65      0.00
  -20   24   46     -3.76      0.00
  -17   24   46     22.83      0.00
  -14   24   46     -0.07      0.00
  -11   24   46     12.63      0.00
   -8   24   46     11.71      0.00
   -5   24   46      8.35      0.00
   -2   24   46     15.50      0.00
  -25   25   46    -14.99      0.00
  -22   25   46      1.28      0.00
  -19   25   46     13.34      0.00
  -16   25   46     -5.29      0.00
  -13   25   46     -9.83      0.00
  -10   25   46    -11.81      0.00
   -7   25   46     31.74      0.00
   -4   25   46     -3.48      0.00
   -1   25   46      1.79      0.00
  -24   26   46     15.35      0.00
  -21   26   46     14.82      0.00
  -18   26   46      2.96      0.00
  -15   26   46     14.68      0.00
  -12   26   46      2.57      0.00
   -9   26   46    -36.16      0.00
   -6   26   46      5.00      0.00
   -3   26   46      2.57      0.00
    0   26   46      9.72      0.00
  -26   27   46      5.25      0.00
  -23   27   46      7.15      0.00
  -20   27   46    -13.74      0.00
  -17   27   46     17.20      0.00
  -14   27   46      1.30      0.00
  -11   27   46     -9.68      0.00
   -8   27   46      6.30      0.00
   -5   27   46     17.60      0.00
   -2   27   46    -13.07      0.00
  -28   28   46    -38.62      0.00
  -25   28   46     32.12      0.00
  -22   28   46     18.35      0.00
  -19   28   46    -22.02      0.00
  -16   28   46    -12.15      0.00
  -13   28   46    -34.44      0.00
  -10   28   46    -10.08      0.00
   -7   28   46      6.45      0.00
   -4   28   46     10.92      0.00
   -1   28   46     20.90      0.00
  -27   29   46     28.69      0.00
  -24   29   46      6.69      0.00
  -21   29   46     22.86      0.00
  -18   29   46     -1.75      0.00
  -15   29   46     25.33      0.00
  -12   29   46     -5.66      0.00
   -9   29   46      0.93      0.00
   -6   29   46     -1.50      0.00
   -3   29   46     -1.07      0.00
    0   29   46     -9.16      0.00
  -29   30   46     -3.21      0.00
  -26   30   46     11.55      0.00
  -23   30   46     13.14      0.00
  -20   30   46     24.57      0.00
  -17   30   46      4.47      0.00
  -14   30   46    -11.74      0.00
  -11   30   46    -11.90      0.00
   -8   30   46     -4.12      0.00
   -5   30   46      5.61      0.00
   -2   30   46     17.50      0.00
  -31   31   46     41.08      0.00
  -28   31   46     10.80      0.00
  -25   31   46     22.60      0.00
  -22   31   46     23.01      0.00
  -19   31   46     27.68      0.00
  -16   31   46    -13.74      0.00
  -13   31   46     -8.90      0.00
  -10   31   46      3.02      0.00
   -7   31   46    -16.72      0.00
   -4   31   46     -0.02      0.00
   -1   31   46    -17.55      0.00
  -30   32   46     21.01      0.00
  -27   32   46     20.12      0.00
  -24   32   46     20.28      0.00
  -21   32   46     39.78      0.00
  -18   32   46     13.44      0.00
  -15   32   46    -12.43      0.00
  -12   32   46      4.58      0.00
   -9   32   46     18.10      0.00
   -6   32   46      2.23      0.00
   -3   32   46      1.98      0.00
    0   32   46    -52.06      0.00
  -32   33   46     17.62      0.00
  -29   33   46     42.32      0.00
  -26   33   46      4.20      0.00
  -23   33   46     10.94      0.00
  -20   33   46     21.70      0.00
  -17   33   46      3.45      0.00
  -14   33   46    -11.55      0.00
  -11   33   46    -22.71      0.00
   -8   33   46      6.89      0.00
   -5   33   46     18.35      0.00
   -2   33   46     13.57      0.00
  -34   34   46    -20.69      0.00
  -31   34   46    -13.82      0.00
  -28   34   46    -16.23      0.00
  -25   34   46     -3.86      0.00
  -22   34   46     30.67      0.00
  -19   34   46      3.46      0.00
  -16   34   46      4.60      0.00
  -13   34   46    -22.03      0.00
  -10   34   46     35.61      0.00
   -7   34   46     35.11      0.00
   -4   34   46     -4.12      0.00
   -1   34   46     12.48      0.00
  -33   35   46     -1.66      0.00
  -30   35   46     14.53      0.00
  -27   35   46    -27.60      0.00
  -24   35   46     -7.29      0.00
  -21   35   46    -19.73      0.00
  -18   35   46    -37.55      0.00
  -15   35   46     -3.32      0.00
  -12   35   46    -14.86      0.00
   -9   35   46    -11.18      0.00
   -6   35   46    -19.58      0.00
   -3   35   46      4.67      0.00
  -32   36   46     10.84      0.00
  -29   36   46     -9.95      0.00
  -26   36   46     20.65      0.00
  -23   36   46     30.53      0.00
  -20   36   46     25.20      0.00
  -17   36   46     -3.03      0.00
  -14   36   46     -0.03      0.00
  -11   36   46    -15.78      0.00
   -8   36   46     -4.36      0.00
   -5   36   46     20.72      0.00
   -2   36   46     -5.44      0.00
  -34   37   46    -15.49      0.00
  -31   37   46    -24.81      0.00
  -28   37   46     -6.49      0.00
  -25   37   46      1.33      0.00
  -22   37   46     14.86      0.00
  -19   37   46     14.37      0.00
  -16   37   46     -4.92      0.00
  -13   37   46      0.57      0.00
  -10   37   46     28.09      0.00
   -7   37   46     21.39      0.00
  -33   38   46     -7.23      0.00
  -30   38   46      1.14      0.00
  -27   38   46     -6.00      0.00
  -24   38   46      1.98      0.00
  -21   38   46    -25.37      0.00
  -18   38   46      9.91      0.00
  -15   38   46    -25.41      0.00
  -12   38   46      6.02      0.00
   -9   38   46    -19.43      0.00
   -6   38   46      1.96      0.00
  -32   39   46    -28.15      0.00
  -29   39   46    -11.32      0.00
  -26   39   46     10.08      0.00
  -23   39   46      8.34      0.00
  -20   39   46     25.70      0.00
  -17   39   46     -7.42      0.00
  -14   39   46     40.01      0.00
  -11   39   46    -14.69      0.00
   -8   39   46    -12.52      0.00
  -28   40   46     11.05      0.00
  -25   40   46     -4.98      0.00
  -22   40   46     32.97      0.00
  -19   40   46      1.26      0.00
  -16   40   46    -46.02      0.00
  -13   40   46     -8.10      0.00
  -27   41   46      9.64      0.00
  -24   41   46     -6.60      0.00
  -15   41   46     21.42      0.00
  -23   42   46    -33.96      0.00
   -1    3   47    -29.48      0.00
   -3    4   47     -2.90      0.00
   -2    5   47     15.00      0.00
   -4    6   47     -5.00      0.00
   -1    6   47    -56.47      0.00
   -6    7   47      3.81      0.00
   -3    7   47      1.24      0.00
   -5    8   47    -18.48      0.00
   -2    8   47     26.83      0.00
   -7    9   47    -31.37      0.00
   -4    9   47    -30.60      0.00
   -1    9   47    -20.76      0.00
   -9   10   47     -8.68      0.00
   -6   10   47    -64.47      0.00
   -3   10   47    -24.96      0.00
   -8   11   47      8.60      0.00
   -5   11   47      7.92      0.00
   -2   11   47     24.08      0.00
  -10   12   47     -9.39      0.00
   -7   12   47    -16.98      0.00
   -4   12   47    -32.19      0.00
   -1   12   47     -1.07      0.00
  -12   13   47     -5.25      0.00
   -9   13   47     34.78      0.00
   -6   13   47    -14.00      0.00
   -3   13   47      3.50      0.00
  -11   14   47     29.53      0.00
   -8   14   47     31.57      0.00
   -5   14   47     -0.78      0.00
   -2   14   47    -25.35      0.00
  -13   15   47    -23.80      0.00
  -10   15   47     -1.26      0.00
   -7   15   47     -9.56      0.00
   -4   15   47     33.33      0.00
   -1   15   47     10.01      0.00
  -15   16   47     10.94      0.00
  -12   16   47    -16.53      0.00
   -9   16   47    -24.61      0.00
   -6   16   47     13.69      0.00
   -3   16   47     28.45      0.00
  -14   17   47     15.89      0.00
  -11   17   47      7.37      0.00
   -8   17   47     13.00      0.00
   -5   17   47    -26.18      0.00
   -2   17   47    -37.49      0.00
  -16   18   47     -2.98      0.00
  -13   18   47     11.34      0.00
  -10   18   47     18.62      0.00
   -7   18   47     10.30      0.00
   -4   18   47      5.53      0.00
   -1   18   47     20.06      0.00
  -18   19   47      3.32      0.00
  -15   19   47     16.48      0.00
  -12   19   47     -1.43      0.00
   -9   19   47     -6.01      0.00
   -6   19   47     25.00      0.00
   -3   19   47    -14.16      0.00
  -17   20   47     -4.21      0.00
  -14   20   47      6.18      0.00
  -11   20   47      7.19      0.00
   -8   20   47      4.76      0.00
   -5   20   47      4.24      0.00
   -2   20   47     -2.67      0.00
  -19   21   47     -0.93      0.00
  -16   21   47    -19.52      0.00
  -13   21   47     21.10      0.00
  -10   21   47      2.83      0.00
   -7   21   47    -38.29      0.00
   -4   21   47    -20.53      0.00
   -1   21   47    -33.30      0.00
  -21   22   47     16.01      0.00
  -18   22   47    -16.27      0.00
  -15   22   47    -22.58      0.00
  -12   22   47      3.08      0.00
   -9   22   47     17.05      0.00
   -6   22   47     12.74      0.00
   -3   22   47     11.87      0.00
  -20   23   47    -15.31      0.00
  -17   23   47     -7.38      0.00
  -14   23   47    -11.07      0.00
  -11   23   47     -6.28      0.00
   -8   23   47      1.33      0.00
   -5   23   47      1.43      0.00
   -2   23   47     16.70      0.00
  -22   24   47     -1.58      0.00
  -19   24   47     22.08      0.00
  -16   24   47     12.36      0.00
  -13   24   47     12.21      0.00
  -10   24   47      2.41      0.00
   -7   24   47      1.65      0.00
   -4   24   47    -19.87      0.00
   -1   24   47    -15.43      0.00
  -24   25   47    -16.75      0.00
  -21   25   47    -16.91      0.00
  -18   25   47     -2.00      0.00
  -15   25   47    -26.10      0.00
  -12   25   47     28.72      0.00
   -9   25   47      8.42      0.00
   -6   25   47     -3.37      0.00
   -3   25   47     -2.74      0.00
  -23   26   47    -12.13      0.00
  -20   26   47     -4.67      0.00
  -17   26   47     -1.11      0.00
  -14   26   47    -21.94      0.00
  -11   26   47      0.09      0.00
   -8   26   47    -20.49      0.00
   -5   26   47      0.26      0.00
   -2   26   47      7.97      0.00
  -25   27   47     -2.85      0.00
  -22   27   47     -6.39      0.00
  -19   27   47     -4.38      0.00
  -16   27   47    -19.09      0.00
  -13   27   47      9.64      0.00
  -10   27   47     -9.96      0.00
   -7   27   47    -26.51      0.00
   -4   27   47     -7.29      0.00
   -1   27   47      5.77      0.00
  -27   28   47     -9.25      0.00
  -24   28   47      1.35      0.00
  -21   28   47     10.48      0.00
  -18   28   47      2.32      0.00
  -15   28   47      7.32      0.00
  -12   28   47      0.22      0.00
   -9   28   47     13.04      0.00
   -6   28   47    -11.17      0.00
   -3   28   47    -10.91      0.00
  -26   29   47    -22.71      0.00
  -23   29   47     23.52      0.00
  -20   29   47      8.64      0.00
  -17   29   47     27.97      0.00
  -14   29   47      4.06      0.00
  -11   29   47     -8.77      0.00
   -8   29   47     19.07      0.00
   -5   29   47    -10.84      0.00
   -2   29   47     -2.94      0.00
  -28   30   47    -21.80      0.00
  -25   30   47      8.37      0.00
  -22   30   47     26.40      0.00
  -19   30   47     24.02      0.00
  -16   30   47     21.25      0.00
  -13   30   47     12.15      0.00
  -10   30   47     14.97      0.00
   -7   30   47      3.32      0.00
   -4   30   47    -13.94      0.00
   -1   30   47      9.85      0.00
  -30   31   47     -0.17      0.00
  -27   31   47    -12.93      0.00
  -24   31   47     11.34      0.00
  -21   31   47      5.72      0.00
  -18   31   47     -4.79      0.00
  -15   31   47     -9.09      0.00
  -12   31   47     11.53      0.00
   -9   31   47     11.09      0.00
   -6   31   47     27.80      0.00
   -3   31   47      7.36      0.00
  -29   32   47     11.08      0.00
  -26   32   47      2.05      0.00
  -23   32   47     10.09      0.00
  -20   32   47      5.25      0.00
  -17   32   47     -5.65      0.00
  -14   32   47     -7.27      0.00
  -11   32   47     24.56      0.00
   -8   32   47      4.29      0.00
   -5   32   47     -1.76      0.00
   -2   32   47     25.09      0.00
  -31   33   47     -2.27      0.00
  -28   33   47    -16.95      0.00
  -25   33   47      6.93      0.00
  -22   33   47    -41.23      0.00
  -19   33   47     -3.19      0.00
  -16   33   47      7.56      0.00
  -13   33   47    -32.58      0.00
  -10   33   47    -18.77      0.00
   -7   33   47     -8.57      0.00
   -4   33   47     10.85      0.00
   -1   33   47     -3.98      0.00
  -33   34   47      9.68      0.00
  -30   34   47    -31.64      0.00
  -27   34   47    -17.39      0.00
  -24   34   47      3.55      0.00
  -21   34   47     -0.40      0.00
  -18   34   47    -22.34      0.00
  -15   34   47      0.29      0.00
  -12   34   47    -21.27      0.00
   -9   34   47      1.02      0.00
   -6   34   47      8.64      0.00
   -3   34   47     -1.71      0.00
  -32   35   47    -23.77      0.00
  -29   35   47     33.65      0.00
  -26   35   47      6.47      0.00
  -23   35   47     -5.84      0.00
  -20   35   47      5.56      0.00
  -17   35   47    -17.79      0.00
  -14   35   47     19.47      0.00
  -11   35   47      8.68      0.00
   -8   35   47      1.48      0.00
   -5   35   47    -38.12      0.00
   -2   35   47     -4.40      0.00
  -34   36   47     22.59      0.00
  -31   36   47     12.77      0.00
  -28   36   47     -2.92      0.00
  -25   36   47    -10.58      0.00
  -22   36   47     22.67      0.00
  -19   36   47     14.68      0.00
  -16   36   47     14.11      0.00
  -13   36   47    -16.88      0.00
  -10   36   47    -18.41      0.00
   -7   36   47     21.38      0.00
   -4   36   47     16.27      0.00
  -33   37   47    -18.39      0.00
  -30   37   47      5.51      0.00
  -27   37   47     -5.36      0.00
  -24   37   47     66.18      0.00
  -21   37   47     19.67      0.00
  -18   37   47      3.81      0.00
  -15   37   47      1.94      0.00
  -12   37   47    -11.58      0.00
   -9   37   47     36.03      0.00
   -6   37   47      3.46      0.00
  -32   38   47     13.33      0.00
  -29   38   47    -13.96      0.00
  -26   38   47    -42.95      0.00
  -23   38   47     10.94      0.00
  -20   38   47      3.41      0.00
  -17   38   47     -6.38      0.00
  -14   38   47    -15.44      0.00
  -11   38   47    -20.06      0.00
   -8   38   47     -3.80      0.00
   -5   38   47    -10.79      0.00
  -31   39   47    -12.75      0.00
  -28   39   47     11.31      0.00
  -25   39   47     12.29      0.00
  -22   39   47      5.20      0.00
  -19   39   47    -10.49      0.00
  -16   39   47    -29.86      0.00
  -13   39   47    -31.74      0.00
   -7   39   47     22.12      0.00
  -27   40   47     -1.91      0.00
  -24   40   47     11.94      0.00
  -21   40   47      8.77      0.00
  -18   40   47    -13.69      0.00
  -15   40   47    -19.62      0.00
  -23   41   47    -42.93      0.00
  -17   41   47    -47.97      0.00
  -14   41   47      2.12      0.00
    0    0   48    -43.73      0.00
   -1    2   48    -10.35      0.00
   -3    3   48     65.43      0.00
    0    3   48     20.61      0.00
   -2    4   48    -21.25      0.00
   -4    5   48    -23.54      0.00
   -1    5   48     31.19      0.00
   -6    6   48     13.02      0.00
   -3    6   48     29.65      0.00
    0    6   48    -26.55      0.00
   -5    7   48      7.62      0.00
   -2    7   48    -21.11      0.00
   -7    8   48    -13.32      0.00
   -4    8   48     -8.18      0.00
   -1    8   48      4.52      0.00
   -9    9   48     17.15      0.00
   -6    9   48      2.75      0.00
   -3    9   48     18.05      0.00
    0    9   48    -34.67      0.00
   -8   10   48    -49.30      0.00
   -5   10   48    -11.83      0.00
   -2   10   48      3.27      0.00
  -10   11   48    -18.59      0.00
   -7   11   48     10.72      0.00
   -4   11   48      2.90      0.00
   -1   11   48     11.13      0.00
  -12   12   48     17.78      0.00
   -9   12   48     27.70      0.00
   -6   12   48      0.89      0.00
   -3   12   48    -30.19      0.00
    0   12   48     28.44      0.00
  -11   13   48    -29.64      0.00
   -8   13   48     20.98      0.00
   -5   13   48     -7.53      0.00
   -2   13   48     23.96      0.00
  -13   14   48     -3.61      0.00
  -10   14   48      8.65      0.00
   -7   14   48      5.91      0.00
   -4   14   48      5.52      0.00
   -1   14   48     20.38      0.00
  -15   15   48     17.59      0.00
  -12   15   48    -30.77      0.00
   -9   15   48    -33.19      0.00
   -6   15   48    -32.44      0.00
   -3   15   48     -7.18      0.00
    0   15   48     38.14      0.00
  -14   16   48     -8.62      0.00
  -11   16   48      4.56      0.00
   -8   16   48    -17.61      0.00
   -5   16   48     20.46      0.00
   -2   16   48    -10.34      0.00
  -16   17   48      7.50      0.00
  -13   17   48      3.10      0.00
  -10   17   48    -11.29      0.00
   -7   17   48     26.45      0.00
   -4   17   48     -2.44      0.00
   -1   17   48     -8.76      0.00
  -18   18   48    -19.26      0.00
  -15   18   48     -5.32      0.00
  -12   18   48    -19.60      0.00
   -9   18   48    -36.19      0.00
   -6   18   48     20.77      0.00
   -3   18   48     18.96      0.00
    0   18   48     -1.78      0.00
  -17   19   48     -9.04      0.00
  -14   19   48      3.02      0.00
  -11   19   48    -18.61      0.00
   -8   19   48     14.97      0.00
   -5   19   48      3.23      0.00
   -2   19   48      0.29      0.00
  -19   20   48     11.54      0.00
  -16   20   48      9.23      0.00
  -13   20   48     25.01      0.00
  -10   20   48     -2.84      0.00
   -7   20   48     -1.11      0.00
   -4   20   48    -13.44      0.00
   -1   20   48    -25.08      0.00
  -21   21   48    -11.15      0.00
  -18   21   48    -28.80      0.00
  -15   21   48     -4.06      0.00
  -12   21   48    -23.60      0.00
   -9   21   48      0.50      0.00
   -6   21   48     26.67      0.00
   -3   21   48     15.83      0.00
    0   21   48     11.01      0.00
  -20   22   48     13.16      0.00
  -17   22   48     21.09      0.00
  -14   22   48    -12.99      0.00
  -11   22   48    -16.57      0.00
   -8   22   48    -15.75      0.00
   -5   22   48    -24.88      0.00
   -2   22   48    -16.99      0.00
  -22   23   48     22.88      0.00
  -19   23   48     22.64      0.00
  -16   23   48    -19.64      0.00
  -13   23   48     14.84      0.00
  -10   23   48     18.71      0.00
   -7   23   48     26.27      0.00
   -4   23   48     11.42      0.00
   -1   23   48     -4.81      0.00
  -24   24   48     -4.72      0.00
  -21   24   48     10.13      0.00
  -18   24   48      4.00      0.00
  -15   24   48     -0.52      0.00
  -12   24   48      4.77      0.00
   -9   24   48    -14.95      0.00
   -6   24   48      9.74      0.00
   -3   24   48    -30.25      0.00
    0   24   48    -23.92      0.00
  -23   25   48      9.48      0.00
  -20   25   48    -30.43      0.00
  -17   25   48    -12.16      0.00
  -14   25   48    -29.25      0.00
  -11   25   48     14.52      0.00
   -8   25   48     10.44      0.00
   -5   25   48     -2.71      0.00
   -2   25   48    -21.12      0.00
  -25   26   48     13.54      0.00
  -22   26   48      7.93      0.00
  -19   26   48      8.36      0.00
  -16   26   48     -8.05      0.00
  -13   26   48     -1.48      0.00
  -10   26   48     -7.86      0.00
   -7   26   48    -10.18      0.00
   -4   26   48     10.65      0.00
   -1   26   48    -18.85      0.00
  -27   27   48     15.71      0.00
  -24   27   48      0.18      0.00
  -21   27   48     -2.20      0.00
  -18   27   48     -2.70      0.00
  -15   27   48      0.69      0.00
  -12   27   48      3.31      0.00
   -9   27   48     -4.73      0.00
   -6   27   48     24.02      0.00
   -3   27   48    -14.63      0.00
    0   27   48    -26.35      0.00
  -26   28   48     32.27      0.00
  -23   28   48     10.88      0.00
  -20   28   48     13.09      0.00
  -17   28   48     15.78      0.00
  -14   28   48     38.84      0.00
  -11   28   48     -3.96      0.00
   -8   28   48     10.66      0.00
   -5   28   48     -0.10      0.00
   -2   28   48      7.65      0.00
  -28   29   48    -29.91      0.00
  -25   29   48     19.79      0.00
  -22   29   48    -19.30      0.00
  -19   29   48     -1.81      0.00
  -16   29   48     -4.99      0.00
  -13   29   48     -8.87      0.00
  -10   29   48     -0.48      0.00
   -7   29   48     -2.69      0.00
   -4   29   48    -10.01      0.00
   -1   29   48     -5.54      0.00
  -30   30   48     -4.12      0.00
  -27   30   48      8.77      0.00
  -24   30   48     13.87      0.00
  -21   30   48     -8.72      0.00
  -18   30   48     -8.49      0.00
  -15   30   48     -2.23      0.00
  -12   30   48     30.97      0.00
   -9   30   48      7.55      0.00
   -6   30   48      5.42      0.00
   -3   30   48      0.45      0.00
    0   30   48    -14.16      0.00
  -29   31   48     -0.94      0.00
  -26   31   48     -7.66      0.00
  -23   31   48    -10.01      0.00
  -20   31   48     -8.20      0.00
  -17   31   48     15.34      0.00
  -14   31   48    -31.89      0.00
  -11   31   48     -6.39      0.00
   -8   31   48     -4.86      0.00
   -5   31   48     17.71      0.00
   -2   31   48      1.15      0.00
  -31   32   48    -10.68      0.00
  -28   32   48    -22.27      0.00
  -25   32   48     12.62      0.00
  -22   32   48     10.60      0.00
  -19   32   48     -7.68      0.00
  -16   32   48      6.91      0.00
  -13   32   48    -28.19      0.00
  -10   32   48     16.41      0.00
   -7   32   48     -4.87      0.00
   -4   32   48     -0.62      0.00
   -1   32   48     -9.53      0.00
  -33   33   48      0.10      0.00
  -30   33   48      5.38      0.00
  -27   33   48      0.15      0.00
  -24   33   48    -21.22      0.00
  -21   33   48     -4.95      0.00
  -18   33   48    -24.31      0.00
  -15   33   48     -2.11      0.00
  -12   33   48      9.57      0.00
   -9   33   48    -12.76      0.00
   -6   33   48    -14.96      0.00
   -3   33   48     19.92      0.00
    0   33   48     -9.65      0.00
  -32   34   48    -10.74      0.00
  -29   34   48    -15.56      0.00
  -26   34   48      0.23      0.00
  -23   34   48    -16.37      0.00
  -20   34   48     21.54      0.00
  -17   34   48    -14.35      0.00
  -14   34   48     22.64      0.00
  -11   34   48    -13.22      0.00
   -8   34   48      6.35      0.00
   -5   34   48      8.80      0.00
   -2   34   48    -32.70      0.00
  -34   35   48     -9.30      0.00
  -31   35   48     19.97      0.00
  -28   35   48     22.15      0.00
  -25   35   48     31.45      0.00
  -22   35   48     25.21      0.00
  -19   35   48    -24.34      0.00
  -16   35   48      9.62      0.00
  -13   35   48    -12.10      0.00
  -10   35   48    -13.80      0.00
   -7   35   48    -17.27      0.00
   -4   35   48     35.46      0.00
   -1   35   48     29.02      0.00
  -33   36   48     34.39      0.00
  -30   36   48     35.58      0.00
  -27   36   48     23.66      0.00
  -24   36   48     29.30      0.00
  -21   36   48     20.57      0.00
  -18   36   48     53.49      0.00
  -15   36   48    -19.58      0.00
  -12   36   48    -14.20      0.00
   -9   36   48    -11.50      0.00
   -6   36   48    -13.33      0.00
   -3   36   48     47.21      0.00
  -32   37   48    -20.45      0.00
  -29   37   48     15.79      0.00
  -26   37   48      5.81      0.00
  -23   37   48     -3.79      0.00
  -20   37   48     -5.32      0.00
  -17   37   48    -24.69      0.00
  -14   37   48    -24.90      0.00
  -11   37   48     -3.28      0.00
   -8   37   48     -5.27      0.00
   -5   37   48      4.84      0.00
  -31   38   48     19.96      0.00
  -28   38   48     43.19      0.00
  -25   38   48     27.58      0.00
  -22   38   48    -14.27      0.00
  -19   38   48    -39.28      0.00
  -16   38   48    -36.23      0.00
  -13   38   48      1.26      0.00
  -10   38   48     -2.67      0.00
   -4   38   48     11.22      0.00
  -27   39   48    -15.15      0.00
  -24   39   48    -11.84      0.00
  -21   39   48    -16.67      0.00
  -18   39   48     -0.84      0.00
  -15   39   48     -2.43      0.00
  -12   39   48    -29.57      0.00
  -26   40   48    -17.40      0.00
  -23   40   48    -20.07      0.00
  -20   40   48     -7.11      0.00
  -17   40   48    -15.77      0.00
  -14   40   48    -14.29      0.00
  -22   41   48    -18.28      0.00
  -16   41   48     -0.70      0.00
   -2    3   49    -20.95      0.00
   -1    4   49      1.64      0.00
   -3    5   49     60.32      0.00
   -5    6   49      3.70      0.00
   -2    6   49      5.05      0.00
   -4    7   49     32.88      0.00
   -1    7   49     36.78      0.00
   -6    8   49    -23.68      0.00
   -3    8   49     -9.46      0.00
   -8    9   49     11.13      0.00
   -5    9   49    -10.98      0.00
   -2    9   49    -16.20      0.00
   -7   10   49    -38.10      0.00
   -4   10   49    -36.80      0.00
   -1   10   49     20.37      0.00
   -9   11   49     -1.00      0.00
   -6   11   49    -24.05      0.00
   -3   11   49      4.39      0.00
  -11   12   49     60.81      0.00
   -8   12   49     27.13      0.00
   -5   12   49    -16.88      0.00
   -2   12   49     23.20      0.00
  -10   13   49    -12.04      0.00
   -7   13   49     -5.98      0.00
   -4   13   49     15.31      0.00
   -1   13   49      6.06      0.00
  -12   14   49    -18.49      0.00
   -9   14   49     11.05      0.00
   -6   14   49    -28.65      0.00
   -3   14   49     -5.55      0.00
  -14   15   49     32.63      0.00
  -11   15   49     30.52      0.00
   -8   15   49      0.64      0.00
   -5   15   49      8.15      0.00
   -2   15   49     -8.83      0.00
  -13   16   49     12.77      0.00
  -10   16   49     -4.07      0.00
   -7   16   49      9.23      0.00
   -4   16   49      8.62      0.00
   -1   16   49     -9.39      0.00
  -15   17   49    -11.77      0.00
  -12   17   49      7.86      0.00
   -9   17   49     24.20      0.00
   -6   17   49     18.09      0.00
   -3   17   49    -34.02      0.00
  -17   18   49     15.96      0.00
  -14   18   49      7.81      0.00
  -11   18   49      0.26      0.00
   -8   18   49     24.02      0.00
   -5   18   49     14.22      0.00
   -2   18   49     17.01      0.00
  -16   19   49     -7.87      0.00
  -13   19   49     32.83      0.00
  -10   19   49     34.93      0.00
   -7   19   49     29.25      0.00
   -4   19   49      8.76      0.00
   -1   19   49    -12.86      0.00
  -18   20   49    -20.15      0.00
  -15   20   49    -15.77      0.00
  -12   20   49     27.34      0.00
   -9   20   49     -6.81      0.00
   -6   20   49    -15.18      0.00
   -3   20   49     22.34      0.00
  -20   21   49     -4.45      0.00
  -17   21   49     -9.37      0.00
  -14   21   49    -13.95      0.00
  -11   21   49    -32.20      0.00
   -8   21   49     -9.73      0.00
   -5   21   49     24.94      0.00
   -2   21   49     -3.15      0.00
  -19   22   49     16.52      0.00
  -16   22   49      9.49      0.00
  -13   22   49     26.29      0.00
  -10   22   49     -0.09      0.00
   -7   22   49      7.24      0.00
   -4   22   49    -10.73      0.00
   -1   22   49      2.01      0.00
  -21   23   49     -0.70      0.00
  -18   23   49    -12.50      0.00
  -15   23   49      6.06      0.00
  -12   23   49     28.77      0.00
   -9   23   49     -2.48      0.00
   -6   23   49     28.40      0.00
   -3   23   49    -23.18      0.00
  -23   24   49     19.74      0.00
  -20   24   49    -20.87      0.00
  -17   24   49      2.44      0.00
  -14   24   49    -12.78      0.00
  -11   24   49     25.44      0.00
   -8   24   49     19.05      0.00
   -5   24   49     20.33      0.00
   -2   24   49    -17.84      0.00
  -22   25   49    -36.25      0.00
  -19   25   49     28.09      0.00
  -16   25   49    -19.73      0.00
  -13   25   49      3.78      0.00
  -10   25   49      4.42      0.00
   -7   25   49     -0.26      0.00
   -4   25   49     17.40      0.00
   -1   25   49      9.17      0.00
  -24   26   49    -11.70      0.00
  -21   26   49     19.67      0.00
  -18   26   49      5.21      0.00
  -15   26   49     11.33      0.00
  -12   26   49     10.37      0.00
   -9   26   49     25.52      0.00
   -6   26   49     21.75      0.00
   -3   26   49     16.36      0.00
  -26   27   49    -18.80      0.00
  -23   27   49    -21.50      0.00
  -20   27   49      0.41      0.00
  -17   27   49      6.54      0.00
  -14   27   49     -4.79      0.00
  -11   27   49     -5.82      0.00
   -8   27   49     10.48      0.00
   -5   27   49     -7.62      0.00
   -2   27   49     -9.52      0.00
  -25   28   49    -15.60      0.00
  -22   28   49    -22.19      0.00
  -19   28   49     14.00      0.00
  -16   28   49    -19.97      0.00
  -13   28   49      9.67      0.00
  -10   28   49    -15.00      0.00
   -7   28   49     -2.78      0.00
   -4   28   49    -34.61      0.00
   -1   28   49     -1.65      0.00
  -27   29   49     -0.25      0.00
  -24   29   49    -36.85      0.00
  -21   29   49     -6.35      0.00
  -18   29   49    -21.39      0.00
  -15   29   49     -6.56      0.00
  -12   29   49     31.89      0.00
   -9   29   49     -9.61      0.00
   -6   29   49     22.97      0.00
   -3   29   49    -20.11      0.00
  -29   30   49     12.85      0.00
  -26   30   49    -22.84      0.00
  -23   30   49     -5.10      0.00
  -20   30   49     -1.16      0.00
  -17   30   49      8.58      0.00
  -14   30   49     -0.70      0.00
  -11   30   49     19.83      0.00
   -8   30   49      7.30      0.00
   -5   30   49     -8.96      0.00
   -2   30   49     -3.45      0.00
  -28   31   49    -22.02      0.00
  -25   31   49     -6.10      0.00
  -22   31   49    -16.74      0.00
  -19   31   49     -5.84      0.00
  -16   31   49      1.29      0.00
  -13   31   49     -6.68      0.00
  -10   31   49     15.76      0.00
   -7   31   49     -1.06      0.00
   -4   31   49      2.49      0.00
   -1   31   49     13.55      0.00
  -30   32   49      9.24      0.00
  -27   32   49    -19.43      0.00
  -24   32   49     -2.08      0.00
  -21   32   49    -39.94      0.00
  -18   32   49    -21.86      0.00
  -15   32   49     -7.38      0.00
  -12   32   49    -11.12      0.00
   -9   32   49     14.01      0.00
   -6   32   49     -4.13      0.00
   -3   32   49    -14.90      0.00
  -32   33   49     -9.10      0.00
  -29   33   49      6.04      0.00
  -26   33   49    -23.27      0.00
  -23   33   49    -31.00      0.00
  -20   33   49    -22.85      0.00
  -17   33   49    -10.74      0.00
  -14   33   49     -1.36      0.00
  -11   33   49    -15.31      0.00
   -8   33   49     -5.40      0.00
   -5   33   49      9.17      0.00
   -2   33   49     11.10      0.00
  -31   34   49    -13.08      0.00
  -28   34   49     -8.77      0.00
  -25   34   49     15.92      0.00
  -22   34   49    -23.71      0.00
  -19   34   49     29.21      0.00
  -16   34   49    -17.36      0.00
  -13   34   49    -13.04      0.00
  -10   34   49    -10.71      0.00
   -7   34   49     -0.66      0.00
   -4   34   49    -11.21      0.00
   -1   34   49     -3.26      0.00
  -33   35   49     -5.28      0.00
  -30   35   49     14.41      0.00
  -27   35   49     -4.37      0.00
  -24   35   49     -9.08      0.00
  -21   35   49     16.08      0.00
  -18   35   49     12.12      0.00
  -15   35   49      7.79      0.00
  -12   35   49     -7.73      0.00
   -9   35   49     12.06      0.00
   -6   35   49      4.40      0.00
   -3   35   49    -14.65      0.00
  -32   36   49      3.01      0.00
  -29   36   49     37.29      0.00
  -26   36   49    -22.55      0.00
  -23   36   49     11.21      0.00
  -20   36   49     -6.18      0.00
  -17   36   49    -15.34      0.00
  -14   36   49    -10.53      0.00
  -11   36   49      4.66      0.00
   -8   36   49     10.91      0.00
   -5   36   49      1.17      0.00
   -2   36   49    -15.57      0.00
  -34   37   49     -8.17      0.00
  -31   37   49     -8.30      0.00
  -28   37   49    -17.29      0.00
  -25   37   49    -33.81      0.00
  -22   37   49     20.75      0.00
  -19   37   49    -28.88      0.00
  -16   37   49      2.65      0.00
  -13   37   49     13.43      0.00
  -10   37   49     20.06      0.00
   -7   37   49      8.24      0.00
   -4   37   49    -22.30      0.00
  -30   38   49    -46.12      0.00
  -27   38   49    -29.02      0.00
  -24   38   49     20.43      0.00
  -21   38   49    -36.26      0.00
  -18   38   49    -17.88      0.00
  -15   38   49     18.33      0.00
  -12   38   49      4.17      0.00
   -9   38   49    -10.35      0.00
   -6   38   49    -14.98      0.00
  -26   39   49      1.31      0.00
  -23   39   49    -41.26      0.00
  -20   39   49     17.41      0.00
  -17   39   49     -8.19      0.00
  -14   39   49     -3.06      0.00
  -11   39   49     -1.01      0.00
   -8   39   49     -6.27      0.00
  -28   40   49    -25.72      0.00
  -25   40   49    -18.10      0.00
  -19   40   49     -2.15      0.00
  -16   40   49    -20.17      0.00
  -13   40   49     21.01      0.00
  -15   41   49      4.48      0.00
    0    1   50    -32.13      0.00
   -2    2   50    -26.78      0.00
   -1    3   50      1.16      0.00
   -3    4   50      4.24      0.00
    0    4   50     25.99      0.00
   -5    5   50     30.51      0.00
   -2    5   50     24.33      0.00
   -4    6   50    -53.10      0.00
   -1    6   50      5.98      0.00
   -6    7   50    -26.25      0.00
   -3    7   50     14.01      0.00
    0    7   50      3.75      0.00
   -8    8   50    -42.27      0.00
   -5    8   50     23.32      0.00
   -2    8   50     -9.62      0.00
   -7    9   50    -29.65      0.00
   -4    9   50    -52.87      0.00
   -1    9   50    -52.47      0.00
   -9   10   50    -26.61      0.00
   -6   10   50     17.72      0.00
   -3   10   50    -28.87      0.00
    0   10   50      0.88      0.00
  -11   11   50    -23.48      0.00
   -8   11   50     37.30      0.00
   -5   11   50     15.45      0.00
   -2   11   50      6.84      0.00
  -10   12   50     -6.76      0.00
   -7   12   50     25.88      0.00
   -4   12   50    -42.69      0.00
   -1   12   50     23.42      0.00
  -12   13   50      9.97      0.00
   -9   13   50     10.69      0.00
   -6   13   50      0.32      0.00
   -3   13   50      0.82      0.00
    0   13   50     50.72      0.00
  -14   14   50     15.19      0.00
  -11   14   50     31.51      0.00
   -8   14   50     32.30      0.00
   -5   14   50    -22.47      0.00
   -2   14   50     38.98      0.00
  -13   15   50     15.68      0.00
  -10   15   50     47.96      0.00
   -7   15   50    -33.65      0.00
   -4   15   50     14.78      0.00
   -1   15   50     16.76      0.00
  -15   16   50      9.19      0.00
  -12   16   50     -1.47      0.00
   -9   16   50      0.99      0.00
   -6   16   50     -0.42      0.00
   -3   16   50     -3.31      0.00
    0   16   50     16.29      0.00
  -17   17   50    -63.88      0.00
  -14   17   50      0.68      0.00
  -11   17   50     -2.61      0.00
   -8   17   50     -7.22      0.00
   -5   17   50     -1.20      0.00
   -2   17   50     10.59      0.00
  -16   18   50    -16.16      0.00
  -13   18   50     36.17      0.00
  -10   18   50    -11.02      0.00
   -7   18   50     14.29      0.00
   -4   18   50     -9.94      0.00
   -1   18   50     24.73      0.00
  -18   19   50    -16.89      0.00
  -15   19   50     -6.30      0.00
  -12   19   50    -35.18      0.00
   -9   19   50     -7.69      0.00
   -6   19   50     22.08      0.00
   -3   19   50     -9.73      0.00
    0   19   50     -1.00      0.00
  -20   20   50     11.55      0.00
  -17   20   50      8.70      0.00
  -14   20   50     38.69      0.00
  -11   20   50    -31.86      0.00
   -8   20   50     -0.48      0.00
   -5   20   50    -56.04      0.00
   -2   20   50     -4.27      0.00
  -19   21   50    -12.69      0.00
  -16   21   50     12.87      0.00
  -13   21   50     18.65      0.00
  -10   21   50      7.09      0.00
   -7   21   50     16.25      0.00
   -4   21   50      3.06      0.00
   -1   21   50     -8.95      0.00
  -21   22   50     -5.35      0.00
  -18   22   50     29.19      0.00
  -15   22   50     16.78      0.00
  -12   22   50     16.98      0.00
   -9   22   50     21.84      0.00
   -6   22   50     -1.42      0.00
   -3   22   50    -17.25      0.00
    0   22   50     15.74      0.00
  -23   23   50      2.68      0.00
  -20   23   50    -23.81      0.00
  -17   23   50     -1.43      0.00
  -14   23   50     14.48      0.00
  -11   23   50      5.71      0.00
   -8   23   50     -5.86      0.00
   -5   23   50      4.80      0.00
   -2   23   50     -4.45      0.00
  -22   24   50     19.52      0.00
  -19   24   50    -21.85      0.00
  -16   24   50     -0.34      0.00
  -13   24   50     11.38      0.00
  -10   24   50      4.85      0.00
   -7   24   50     16.51      0.00
   -4   24   50      5.70      0.00
   -1   24   50      5.86      0.00
  -24   25   50    -29.08      0.00
  -21   25   50     -4.92      0.00
  -18   25   50    -25.71      0.00
  -15   25   50     -0.43      0.00
  -12   25   50     21.20      0.00
   -9   25   50     -9.61      0.00
   -6   25   50     25.17      0.00
   -3   25   50      0.39      0.00
    0   25   50     19.28      0.00
  -26   26   50    -15.86      0.00
  -23   26   50     10.58      0.00
  -20   26   50     12.27      0.00
  -17   26   50     14.22      0.00
  -14   26   50      6.68      0.00
  -11   26   50    -24.43      0.00
   -8   26   50     -2.10      0.00
   -5   26   50    -15.70      0.00
   -2   26   50     19.88      0.00
  -25   27   50      1.56      0.00
  -22   27   50    -37.27      0.00
  -19   27   50     -6.18      0.00
  -16   27   50    -21.49      0.00
  -13   27   50     33.02      0.00
  -10   27   50      3.34      0.00
   -7   27   50    -13.28      0.00
   -4   27   50     -0.94      0.00
   -1   27   50     -0.08      0.00
  -27   28   50     25.01      0.00
  -24   28   50      1.06      0.00
  -21   28   50     28.53      0.00
  -18   28   50      6.18      0.00
  -15   28   50     -4.17      0.00
  -12   28   50     26.74      0.00
   -9   28   50     -4.29      0.00
   -6   28   50      6.59      0.00
   -3   28   50     25.19      0.00
    0   28   50     25.66      0.00
  -29   29   50     -7.68      0.00
  -26   29   50     11.54      0.00
  -23   29   50      0.11      0.00
  -20   29   50     -3.25      0.00
  -17   29   50     17.55      0.00
  -14   29   50    -18.29      0.00
  -11   29   50     -4.06      0.00
   -8   29   50     20.24      0.00
   -5   29   50     -0.48      0.00
   -2   29   50      2.63      0.00
  -28   30   50      4.91      0.00
  -25   30   50     21.22      0.00
  -22   30   50      2.28      0.00
  -19   30   50      4.15      0.00
  -16   30   50     36.55      0.00
  -13   30   50     -5.22      0.00
  -10   30   50     35.49      0.00
   -7   30   50    -18.94      0.00
   -4   30   50     -9.39      0.00
   -1   30   50     10.83      0.00
  -30   31   50     18.16      0.00
  -27   31   50      2.34      0.00
  -24   31   50    -11.72      0.00
  -21   31   50     -6.19      0.00
  -18   31   50    -34.46      0.00
  -15   31   50    -28.01      0.00
  -12   31   50     11.56      0.00
   -9   31   50     -6.51      0.00
   -6   31   50      3.24      0.00
   -3   31   50      5.96      0.00
    0   31   50    -11.41      0.00
  -32   32   50    -36.27      0.00
  -29   32   50    -18.70      0.00
  -26   32   50      8.24      0.00
  -23   32   50    -22.65      0.00
  -20   32   50      5.64      0.00
  -17   32   50    -11.24      0.00
  -14   32   50     22.35      0.00
  -11   32   50     -7.81      0.00
   -8   32   50    -15.89      0.00
   -5   32   50     -3.14      0.00
   -2   32   50    -11.66      0.00
  -31   33   50      7.61      0.00
  -28   33   50    -46.51      0.00
  -25   33   50    -15.39      0.00
  -22   33   50     -9.47      0.00
  -19   33   50    -13.82      0.00
  -16   33   50      9.70      0.00
  -13   33   50     -0.96      0.00
  -10   33   50      4.66      0.00
   -7   33   50      0.72      0.00
   -4   33   50    -11.75      0.00
   -1   33   50     -8.34      0.00
  -33   34   50     -1.38      0.00
  -30   34   50     -0.27      0.00
  -27   34   50    -11.07      0.00
  -24   34   50     25.82      0.00
  -21   34   50      7.46      0.00
  -18   34   50     -0.25      0.00
  -15   34   50     20.55      0.00
  -12   34   50      6.45      0.00
   -9   34   50    -13.02      0.00
   -6   34   50     -4.97      0.00
   -3   34   50     -2.52      0.00
    0   34   50    -35.08      0.00
  -32   35   50     -1.13      0.00
  -29   35   50     -1.74      0.00
  -26   35   50      0.43      0.00
  -23   35   50    -32.89      0.00
  -20   35   50     -8.46      0.00
  -17   35   50    -14.48      0.00
  -14   35   50      0.55      0.00
  -11   35   50     -8.77      0.00
   -8   35   50    -24.34      0.00
   -5   35   50     12.70      0.00
   -2   35   50    -31.28      0.00
  -34   36   50      7.02      0.00
  -31   36   50    -17.70      0.00
  -28   36   50     -9.98      0.00
  -25   36   50     13.68      0.00
  -22   36   50      5.74      0.00
  -19   36   50     12.13      0.00
  -16   36   50      5.43      0.00
  -13   36   50     10.72      0.00
  -10   36   50    -23.46      0.00
   -7   36   50     21.10      0.00
   -4   36   50     -1.09      0.00
  -27   37   50     -8.02      0.00
  -24   37   50    -13.08      0.00
  -21   37   50    -25.73      0.00
  -18   37   50    -13.53      0.00
  -15   37   50    -19.48      0.00
  -12   37   50     12.59      0.00
   -9   37   50      2.50      0.00
   -6   37   50    -18.41      0.00
   -3   37   50      0.07      0.00
  -32   38   50    -34.87      0.00
  -29   38   50    -14.31      0.00
  -26   38   50    -35.62      0.00
  -23   38   50    -11.95      0.00
  -20   38   50    -20.40      0.00
  -17   38   50      3.58      0.00
  -14   38   50     -8.46      0.00
  -11   38   50    -38.59      0.00
   -8   38   50    -21.80      0.00
  -28   39   50      1.14      0.00
  -25   39   50    -20.70      0.00
  -22   39   50    -19.40      0.00
  -19   39   50      1.08      0.00
  -16   39   50     -9.86      0.00
  -13   39   50     -8.36      0.00
  -27   40   50    -49.91      0.00
  -24   40   50    -15.92      0.00
  -21   40   50      8.16      0.00
  -18   40   50    -13.00      0.00
  -15   40   50     17.17      0.00
  -23   41   50     -0.29      0.00
  -17   41   50     -4.85      0.00
   -1    2   51     14.26      0.00
   -2    4   51     27.11      0.00
   -4    5   51     51.46      0.00
   -1    5   51     49.60      0.00
   -3    6   51     47.05      0.00
   -5    7   51    -19.21      0.00
   -2    7   51     42.47      0.00
   -7    8   51     13.37      0.00
   -4    8   51     10.67      0.00
   -1    8   51      1.30      0.00
   -6    9   51    -13.58      0.00
   -3    9   51     18.71      0.00
   -8   10   51    -26.16      0.00
   -5   10   51     -2.77      0.00
   -2   10   51     79.37      0.00
  -10   11   51     11.14      0.00
   -7   11   51     44.95      0.00
   -4   11   51      7.52      0.00
   -1   11   51     21.42      0.00
   -9   12   51      5.48      0.00
   -6   12   51    -10.36      0.00
   -3   12   51     22.15      0.00
  -11   13   51    -23.50      0.00
   -8   13   51     14.53      0.00
   -5   13   51     26.79      0.00
   -2   13   51     30.73      0.00
  -13   14   51     25.75      0.00
  -10   14   51     16.91      0.00
   -7   14   51     -5.11      0.00
   -4   14   51     15.01      0.00
   -1   14   51      2.43      0.00
  -12   15   51    -15.46      0.00
   -9   15   51     -5.75      0.00
   -6   15   51    -36.18      0.00
   -3   15   51    -33.97      0.00
  -14   16   51    -35.86      0.00
  -11   16   51      3.86      0.00
   -8   16   51    -10.62      0.00
   -5   16   51    -25.62      0.00
   -2   16   51     -5.72      0.00
  -16   17   51    -18.21      0.00
  -13   17   51      8.13      0.00
  -10   17   51     28.34      0.00
   -7   17   51     -5.32      0.00
   -4   17   51      0.09      0.00
   -1   17   51      9.91      0.00
  -15   18   51     10.58      0.00
  -12   18   51     12.18      0.00
   -9   18   51    -17.70      0.00
   -6   18   51    -27.36      0.00
   -3   18   51      3.56      0.00
  -17   19   51     -7.13      0.00
  -14   19   51      5.00      0.00
  -11   19   51     31.44      0.00
   -8   19   51     16.22      0.00
   -5   19   51     -1.36      0.00
   -2   19   51      6.67      0.00
  -19   20   51      6.51      0.00
  -16   20   51     -6.87      0.00
  -13   20   51     22.68      0.00
  -10   20   51     12.03      0.00
   -7   20   51     -8.40      0.00
   -4   20   51     29.73      0.00
   -1   20   51     39.26      0.00
  -18   21   51    -19.98      0.00
  -15   21   51      9.85      0.00
  -12   21   51    -10.98      0.00
   -9   21   51    -33.60      0.00
   -6   21   51      1.27      0.00
   -3   21   51     -0.23      0.00
  -20   22   51      7.99      0.00
  -17   22   51      5.87      0.00
  -14   22   51     10.26      0.00
  -11   22   51     -8.94      0.00
   -8   22   51     -4.39      0.00
   -5   22   51     17.02      0.00
   -2   22   51      9.55      0.00
  -22   23   51     -9.88      0.00
  -19   23   51     -8.49      0.00
  -16   23   51    -20.72      0.00
  -13   23   51     -3.25      0.00
  -10   23   51      8.27      0.00
   -7   23   51      1.00      0.00
   -4   23   51     20.66      0.00
   -1   23   51      6.58      0.00
  -21   24   51     -3.14      0.00
  -18   24   51      9.68      0.00
  -15   24   51     -1.54      0.00
  -12   24   51    -27.73      0.00
   -9   24   51     -1.47      0.00
   -6   24   51      9.88      0.00
   -3   24   51      9.42      0.00
  -23   25   51     -1.22      0.00
  -20   25   51    -11.76      0.00
  -17   25   51     -5.42      0.00
  -14   25   51      4.91      0.00
  -11   25   51     -4.88      0.00
   -8   25   51     22.12      0.00
   -5   25   51     16.91      0.00
   -2   25   51      8.17      0.00
  -25   26   51     36.55      0.00
  -22   26   51     17.35      0.00
  -19   26   51     15.67      0.00
  -16   26   51    -17.84      0.00
  -13   26   51     22.12      0.00
  -10   26   51     -9.25      0.00
   -7   26   51     19.69      0.00
   -4   26   51     10.54      0.00
   -1   26   51      5.88      0.00
  -24   27   51      0.81      0.00
  -21   27   51      5.47      0.00
  -18   27   51     -7.10      0.00
  -15   27   51     -0.66      0.00
  -12   27   51      2.91      0.00
   -9   27   51     -5.45      0.00
   -6   27   51     38.50      0.00
   -3   27   51    -13.74      0.00
  -26   28   51    -12.05      0.00
  -23   28   51     -6.28      0.00
  -20   28   51     -1.60      0.00
  -17   28   51      1.20      0.00
  -14   28   51    -12.68      0.00
  -11   28   51     -9.50      0.00
   -8   28   51    -37.69      0.00
   -5   28   51      3.69      0.00
   -2   28   51     -0.44      0.00
  -28   29   51     13.91      0.00
  -25   29   51      6.59      0.00
  -22   29   51    -10.54      0.00
  -19   29   51     -0.87      0.00
  -16   29   51    -23.55      0.00
  -13   29   51     15.81      0.00
  -10   29   51      2.05      0.00
   -7   29   51     -3.51      0.00
   -4   29   51     -1.63      0.00
   -1   29   51     -4.59      0.00
  -27   30   51      8.94      0.00
  -24   30   51    -26.11      0.00
  -21   30   51      1.09      0.00
  -18   30   51    -24.52      0.00
  -15   30   51     15.26      0.00
  -12   30   51      0.91      0.00
   -9   30   51      5.94      0.00
   -6   30   51      1.30      0.00
   -3   30   51    -22.62      0.00
  -29   31   51     -8.91      0.00
  -26   31   51    -36.64      0.00
  -23   31   51      6.80      0.00
  -20   31   51    -28.88      0.00
  -17   31   51      6.58      0.00
  -14   31   51      3.48      0.00
  -11   31   51     -0.89      0.00
   -8   31   51     -7.59      0.00
   -5   31   51     13.30      0.00
   -2   31   51      9.62      0.00
  -31   32   51     12.44      0.00
  -28   32   51      4.96      0.00
  -25   32   51     23.82      0.00
  -22   32   51    -33.95      0.00
  -19   32   51      9.44      0.00
  -16   32   51     -4.44      0.00
  -13   32   51     -6.09      0.00
  -10   32   51     -0.28      0.00
   -7   32   51      7.16      0.00
   -4   32   51    -12.71      0.00
   -1   32   51     13.46      0.00
  -30   33   51     15.34      0.00
  -27   33   51     20.36      0.00
  -24   33   51    -19.97      0.00
  -21   33   51     -8.99      0.00
  -18   33   51      4.23      0.00
  -15   33   51     -6.46      0.00
  -12   33   51      6.08      0.00
   -9   33   51    -10.19      0.00
   -6   33   51     -9.59      0.00
   -3   33   51     -4.66      0.00
  -32   34   51    -16.34      0.00
  -29   34   51     20.00      0.00
  -26   34   51     15.22      0.00
  -23   34   51     14.12      0.00
  -20   34   51      3.12      0.00
  -17   34   51    -17.26      0.00
  -14   34   51     -9.95      0.00
  -11   34   51     -3.18      0.00
   -8   34   51     -1.24      0.00
   -5   34   51    -13.75      0.00
   -2   34   51     -5.29      0.00
  -34   35   51     12.35      0.00
  -31   35   51     23.60      0.00
  -28   35   51     25.05      0.00
  -25   35   51     16.54      0.00
  -22   35   51     -0.91      0.00
  -19   35   51     -7.29      0.00
  -16   35   51      5.53      0.00
  -13   35   51     -1.07      0.00
  -10   35   51      6.64      0.00
   -7   35   51      7.42      0.00
   -4   35   51      1.62      0.00
   -1   35   51     16.34      0.00
  -33   36   51      5.56      0.00
  -30   36   51     -4.55      0.00
  -27   36   51    -22.17      0.00
  -24   36   51    -24.43      0.00
  -21   36   51    -21.39      0.00
  -18   36   51    -11.93      0.00
  -15   36   51     -2.51      0.00
  -12   36   51    -23.94      0.00
   -9   36   51     -8.18      0.00
   -6   36   51    -23.53      0.00
   -3   36   51    -11.29      0.00
  -32   37   51    -13.27      0.00
  -29   37   51      3.73      0.00
  -26   37   51     -3.76      0.00
  -23   37   51    -25.94      0.00
  -20   37   51     -5.46      0.00
  -17   37   51    -37.26      0.00
  -14   37   51     -5.03      0.00
  -11   37   51      7.54      0.00
   -8   37   51      0.52      0.00
   -5   37   51     23.02      0.00
  -31   38   51     10.14      0.00
  -28   38   51    -11.61      0.00
  -25   38   51    -21.63      0.00
  -22   38   51    -56.51      0.00
  -19   38   51    -16.31      0.00
  -16   38   51     10.30      0.00
  -13   38   51     19.79      0.00
  -10   38   51    -70.37      0.00
  -27   39   51    -33.74      0.00
  -24   39   51      7.62      0.00
  -21   39   51     -6.08      0.00
  -18   39   51     19.02      0.00
  -15   39   51      6.97      0.00
  -12   39   51     -0.73      0.00
  -26   40   51    -31.74      0.00
  -23   40   51    -37.34      0.00
  -20   40   51    -13.39      0.00
  -17   40   51     10.64      0.00
  -14   40   51      7.39      0.00
   -1    1   52    -72.69      0.00
    0    2   52    -53.06      0.00
   -2    3   52     -0.74      0.00
   -4    4   52     23.81      0.00
   -1    4   52     33.75      0.00
   -3    5   52     10.90      0.00
    0    5   52     -2.72      0.00
   -5    6   52    -16.80      0.00
   -2    6   52     51.37      0.00
   -7    7   52    -41.58      0.00
   -4    7   52     24.60      0.00
   -1    7   52    -14.49      0.00
   -6    8   52     -6.82      0.00
   -3    8   52     30.94      0.00
    0    8   52    -32.86      0.00
   -8    9   52      2.36      0.00
   -5    9   52      0.72      0.00
   -2    9   52     -3.83      0.00
  -10   10   52    -28.23      0.00
   -7   10   52     -4.41      0.00
   -4   10   52      4.09      0.00
   -1   10   52     10.83      0.00
   -9   11   52    -21.28      0.00
   -6   11   52     49.46      0.00
   -3   11   52    -24.81      0.00
    0   11   52      9.13      0.00
  -11   12   52    -24.62      0.00
   -8   12   52     10.30      0.00
   -5   12   52    -15.96      0.00
   -2   12   52     43.00      0.00
  -13   13   52    -35.18      0.00
  -10   13   52    -29.12      0.00
   -7   13   52     19.81      0.00
   -4   13   52      8.85      0.00
   -1   13   52     10.92      0.00
  -12   14   52     16.34      0.00
   -9   14   52     36.88      0.00
   -6   14   52     -4.51      0.00
   -3   14   52    -11.15      0.00
    0   14   52    -15.80      0.00
  -14   15   52     39.03      0.00
  -11   15   52     -0.05      0.00
   -8   15   52      8.98      0.00
   -5   15   52    -12.94      0.00
   -2   15   52     -3.41      0.00
  -16   16   52    -46.48      0.00
  -13   16   52    -18.34      0.00
  -10   16   52     -5.34      0.00
   -7   16   52      2.56      0.00
   -4   16   52     28.54      0.00
   -1   16   52      1.11      0.00
  -15   17   52     -2.18      0.00
  -12   17   52     12.80      0.00
   -9   17   52    -20.88      0.00
   -6   17   52     33.01      0.00
   -3   17   52    -11.99      0.00
    0   17   52      8.62      0.00
  -17   18   52     -9.56      0.00
  -14   18   52     19.84      0.00
  -11   18   52    -16.62      0.00
   -8   18   52      6.26      0.00
   -5   18   52     -7.36      0.00
   -2   18   52     43.61      0.00
  -19   19   52    -15.80      0.00
  -16   19   52    -41.95      0.00
  -13   19   52    -18.18      0.00
  -10   19   52     -0.87      0.00
   -7   19   52     19.95      0.00
   -4   19   52    -20.94      0.00
   -1   19   52      7.04      0.00
  -18   20   52     24.89      0.00
  -15   20   52     -8.82      0.00
  -12   20   52     -0.17      0.00
   -9   20   52     -9.64      0.00
   -6   20   52    -15.06      0.00
   -3   20   52      3.80      0.00
    0   20   52     14.22      0.00
  -20   21   52     26.33      0.00
  -17   21   52     18.02      0.00
  -14   21   52     11.83      0.00
  -11   21   52    -10.76      0.00
   -8   21   52      3.33      0.00
   -5   21   52    -15.64      0.00
   -2   21   52      2.06      0.00
  -22   22   52     26.49      0.00
  -19   22   52    -14.90      0.00
  -16   22   52     15.74      0.00
  -13   22   52    -13.14      0.00
  -10   22   52     22.38      0.00
   -7   22   52     -6.14      0.00
   -4   22   52     -2.01      0.00
   -1   22   52      6.25      0.00
  -21   23   52     -7.87      0.00
  -18   23   52    -10.38      0.00
  -15   23   52    -10.65      0.00
  -12   23   52     -5.77      0.00
   -9   23   52     -5.19      0.00
   -6   23   52     19.43      0.00
   -3   23   52    -12.23      0.00
    0   23   52    -22.71      0.00
  -23   24   52    -26.40      0.00
  -20   24   52      1.89      0.00
  -17   24   52     -1.13      0.00
  -14   24   52     -1.92      0.00
  -11   24   52    -23.75      0.00
   -8   24   52     -5.81      0.00
   -5   24   52     -1.39      0.00
   -2   24   52      6.61      0.00
  -25   25   52    -26.53      0.00
  -22   25   52    -18.36      0.00
  -19   25   52     -0.30      0.00
  -16   25   52      6.86      0.00
  -13   25   52      7.52      0.00
  -10   25   52    -15.72      0.00
   -7   25   52     11.96      0.00
   -4   25   52      6.58      0.00
   -1   25   52     12.15      0.00
  -24   26   52      3.54      0.00
  -21   26   52      7.44      0.00
  -18   26   52     -0.01      0.00
  -15   26   52      2.59      0.00
  -12   26   52      4.43      0.00
   -9   26   52    -14.22      0.00
   -6   26   52      8.18      0.00
   -3   26   52     -4.50      0.00
    0   26   52     -4.80      0.00
  -26   27   52    -23.77      0.00
  -23   27   52    -22.75      0.00
  -20   27   52    -14.28      0.00
  -17   27   52     -7.26      0.00
  -14   27   52    -17.30      0.00
  -11   27   52    -43.68      0.00
   -8   27   52     -6.64      0.00
   -5   27   52    -25.65      0.00
   -2   27   52      0.22      0.00
  -28   28   52    -10.14      0.00
  -25   28   52     27.96      0.00
  -22   28   52      7.39      0.00
  -19   28   52     -0.07      0.00
  -16   28   52      5.68      0.00
  -13   28   52    -15.49      0.00
  -10   28   52    -13.36      0.00
   -7   28   52      5.43      0.00
   -4   28   52      4.01      0.00
   -1   28   52     29.39      0.00
  -27   29   52    -10.64      0.00
  -24   29   52     -7.45      0.00
  -21   29   52     11.09      0.00
  -18   29   52    -18.68      0.00
  -15   29   52      3.76      0.00
  -12   29   52     24.61      0.00
   -9   29   52    -25.37      0.00
   -6   29   52     -6.66      0.00
   -3   29   52     -9.15      0.00
    0   29   52    -26.64      0.00
  -29   30   52     16.00      0.00
  -26   30   52     22.84      0.00
  -23   30   52      7.30      0.00
  -20   30   52     38.81      0.00
  -17   30   52     44.13      0.00
  -14   30   52    -15.99      0.00
  -11   30   52     -2.96      0.00
   -8   30   52      0.43      0.00
   -5   30   52    -23.98      0.00
   -2   30   52     11.18      0.00
  -31   31   52      6.46      0.00
  -28   31   52     16.51      0.00
  -25   31   52    -16.13      0.00
  -22   31   52      5.78      0.00
  -19   31   52     12.71      0.00
  -16   31   52      2.55      0.00
  -13   31   52    -29.16      0.00
  -10   31   52     -4.57      0.00
   -7   31   52     -8.54      0.00
   -4   31   52     12.13      0.00
   -1   31   52     35.99      0.00
  -30   32   52     20.76      0.00
  -27   32   52     26.64      0.00
  -24   32   52     20.99      0.00
  -21   32   52     25.72      0.00
  -18   32   52     -0.32      0.00
  -15   32   52     10.39      0.00
  -12   32   52     -1.70      0.00
   -9   32   52     -5.74      0.00
   -6   32   52    -11.25      0.00
   -3   32   52      1.07      0.00
    0   32   52     -5.31      0.00
  -32   33   52     16.44      0.00
  -29   33   52     17.46      0.00
  -26   33   52    -13.89      0.00
  -23   33   52     17.76      0.00
  -20   33   52     28.31      0.00
  -17   33   52    -24.29      0.00
  -14   33   52    -16.32      0.00
  -11   33   52     -9.35      0.00
   -8   33   52      8.35      0.00
   -5   33   52     -1.56      0.00
   -2   33   52     -6.09      0.00
  -31   34   52      4.76      0.00
  -28   34   52      1.37      0.00
  -25   34   52     -8.34      0.00
  -22   34   52     -1.99      0.00
  -19   34   52      4.83      0.00
  -16   34   52     -3.00      0.00
  -13   34   52      6.20      0.00
  -10   34   52    -24.20      0.00
   -7   34   52      8.55      0.00
   -4   34   52      4.71      0.00
   -1   34   52      8.54      0.00
  -33   35   52     15.07      0.00
  -30   35   52     23.40      0.00
  -27   35   52     15.98      0.00
  -24   35   52      0.61      0.00
  -21   35   52    -20.00      0.00
  -18   35   52    -40.51      0.00
  -15   35   52    -22.86      0.00
  -12   35   52      4.12      0.00
   -9   35   52      6.63      0.00
   -6   35   52     -3.07      0.00
   -3   35   52     -7.52      0.00
  -32   36   52     17.42      0.00
  -29   36   52     -3.18      0.00
  -26   36   52     -3.85      0.00
  -23   36   52      1.09      0.00
  -20   36   52    -30.43      0.00
  -17   36   52      9.67      0.00
  -14   36   52    -22.29      0.00
  -11   36   52    -23.13      0.00
   -8   36   52    -28.63      0.00
   -5   36   52     17.85      0.00
   -2   36   52      2.33      0.00
  -31   37   52      0.40      0.00
  -28   37   52      4.13      0.00
  -25   37   52     12.11      0.00
  -22   37   52     11.08      0.00
  -19   37   52    -16.32      0.00
  -16   37   52    -21.85      0.00
  -13   37   52     26.22      0.00
  -10   37   52     12.64      0.00
   -7   37   52     11.38      0.00
   -4   37   52    -20.91      0.00
  -30   38   52     22.34      0.00
  -27   38   52     19.41      0.00
  -24   38   52    -17.95      0.00
  -21   38   52     18.10      0.00
  -18   38   52      5.71      0.00
  -15   38   52     38.64      0.00
  -26   39   52      9.71      0.00
  -23   39   52    -10.83      0.00
  -20   39   52     29.05      0.00
  -17   39   52    -18.09      0.00
  -14   39   52     11.28      0.00
  -19   40   52     13.36      0.00
  -16   40   52    -26.33      0.00
  -21   41   52      8.56      0.00
   -1    3   53    -10.37      0.00
   -3    4   53     48.41      0.00
   -2    5   53     20.61      0.00
   -4    6   53     -6.77      0.00
   -1    6   53     21.52      0.00
   -6    7   53     27.07      0.00
   -3    7   53     32.83      0.00
   -5    8   53    -31.91      0.00
   -2    8   53     12.08      0.00
   -7    9   53    -49.53      0.00
   -4    9   53     -6.82      0.00
   -1    9   53     22.83      0.00
   -9   10   53      6.30      0.00
   -6   10   53     23.43      0.00
   -3   10   53     42.01      0.00
   -8   11   53      1.37      0.00
   -5   11   53    -17.25      0.00
   -2   11   53      2.55      0.00
  -10   12   53    -11.88      0.00
   -7   12   53     -7.85      0.00
   -4   12   53     24.67      0.00
   -1   12   53     15.50      0.00
  -12   13   53     -1.41      0.00
   -9   13   53     31.19      0.00
   -6   13   53      9.99      0.00
   -3   13   53     25.36      0.00
  -11   14   53     27.46      0.00
   -8   14   53     39.70      0.00
   -5   14   53      2.17      0.00
   -2   14   53     -3.82      0.00
  -13   15   53    -34.10      0.00
  -10   15   53    -19.62      0.00
   -7   15   53    -23.62      0.00
   -4   15   53      4.68      0.00
   -1   15   53     -0.05      0.00
  -15   16   53     10.79      0.00
  -12   16   53    -34.17      0.00
   -9   16   53    -27.70      0.00
   -6   16   53     -4.83      0.00
   -3   16   53      9.52      0.00
  -14   17   53     13.37      0.00
  -11   17   53     30.92      0.00
   -8   17   53     13.76      0.00
   -5   17   53     -7.10      0.00
   -2   17   53     -3.17      0.00
  -16   18   53    -11.56      0.00
  -13   18   53    -11.13      0.00
  -10   18   53     -6.60      0.00
   -7   18   53     -8.11      0.00
   -4   18   53      7.73      0.00
   -1   18   53     -1.22      0.00
  -18   19   53     -2.11      0.00
  -15   19   53     -4.07      0.00
  -12   19   53      0.81      0.00
   -9   19   53      2.26      0.00
   -6   19   53     -5.21      0.00
   -3   19   53    -10.09      0.00
  -17   20   53     16.46      0.00
  -14   20   53     16.55      0.00
  -11   20   53     25.30      0.00
   -8   20   53      1.37      0.00
   -5   20   53     -0.41      0.00
   -2   20   53     21.28      0.00
  -19   21   53      0.03      0.00
  -16   21   53    -33.01      0.00
  -13   21   53      7.12      0.00
  -10   21   53      6.73      0.00
   -7   21   53    -16.82      0.00
   -4   21   53      2.88      0.00
   -1   21   53    -16.97      0.00
  -21   22   53      7.79      0.00
  -18   22   53     -3.35      0.00
  -15   22   53    -25.15      0.00
  -12   22   53    -13.53      0.00
   -9   22   53     -1.31      0.00
   -6   22   53     -5.96      0.00
   -3   22   53    -10.19      0.00
  -20   23   53    -36.98      0.00
  -17   23   53     -5.01      0.00
  -14   23   53      4.98      0.00
  -11   23   53      1.22      0.00
   -8   23   53     -9.50      0.00
   -5   23   53    -20.26      0.00
   -2   23   53      7.88      0.00
  -22   24   53     22.39      0.00
  -19   24   53     -1.64      0.00
  -16   24   53      7.51      0.00
  -13   24   53    -13.67      0.00
  -10   24   53      9.55      0.00
   -7   24   53      0.84      0.00
   -4   24   53    -11.29      0.00
   -1   24   53     10.17      0.00
  -24   25   53    -20.91      0.00
  -21   25   53    -12.54      0.00
  -18   25   53      3.51      0.00
  -15   25   53    -16.46      0.00
  -12   25   53     22.55      0.00
   -9   25   53      9.34      0.00
   -6   25   53      1.86      0.00
   -3   25   53     -3.37      0.00
  -23   26   53    -12.01      0.00
  -20   26   53     -2.80      0.00
  -17   26   53     -8.69      0.00
  -14   26   53     -3.95      0.00
  -11   26   53    -22.81      0.00
   -8   26   53     -7.05      0.00
   -5   26   53     12.68      0.00
   -2   26   53      0.77      0.00
  -25   27   53     -7.89      0.00
  -22   27   53     11.23      0.00
  -19   27   53    -17.91      0.00
  -16   27   53    -13.32      0.00
  -13   27   53     30.52      0.00
  -10   27   53     -3.78      0.00
   -7   27   53    -28.00      0.00
   -4   27   53     -5.78      0.00
   -1   27   53      6.89      0.00
  -27   28   53      0.28      0.00
  -24   28   53    -24.49      0.00
  -21   28   53     21.46      0.00
  -18   28   53     -5.60      0.00
  -15   28   53     -3.16      0.00
  -12   28   53     -6.01      0.00
   -9   28   53    -13.31      0.00
   -6   28   53    -15.99      0.00
   -3   28   53     -0.12      0.00
  -26   29   53    -12.32      0.00
  -23   29   53      2.27      0.00
  -20   29   53      4.02      0.00
  -17   29   53     29.46      0.00
  -14   29   53     11.57      0.00
  -11   29   53      1.19      0.00
   -8   29   53     -6.21      0.00
   -5   29   53     -6.04      0.00
   -2   29   53     -2.04      0.00
  -28   30   53    -39.72      0.00
  -25   30   53     15.47      0.00
  -22   30   53     -6.14      0.00
  -19   30   53      6.10      0.00
  -16   30   53      4.03      0.00
  -13   30   53     -2.03      0.00
  -10   30   53     -2.14      0.00
   -7   30   53    -10.64      0.00
   -4   30   53     -1.25      0.00
   -1   30   53     25.24      0.00
  -30   31   53      8.10      0.00
  -27   31   53    -38.03      0.00
  -24   31   53     20.56      0.00
  -21   31   53     26.93      0.00
  -18   31   53    -18.23      0.00
  -15   31   53     -9.05      0.00
  -12   31   53     -7.89      0.00
   -9   31   53     21.01      0.00
   -6   31   53      2.01      0.00
   -3   31   53     18.13      0.00
  -29   32   53    -26.83      0.00
  -26   32   53    -46.13      0.00
  -23   32   53     -1.39      0.00
  -20   32   53    -18.97      0.00
  -17   32   53     15.64      0.00
  -14   32   53     15.42      0.00
  -11   32   53    -24.59      0.00
   -8   32   53    -13.93      0.00
   -5   32   53     12.43      0.00
   -2   32   53    -17.62      0.00
  -31   33   53     16.99      0.00
  -28   33   53     -0.75      0.00
  -25   33   53     21.79      0.00
  -22   33   53    -19.37      0.00
  -19   33   53      5.80      0.00
  -16   33   53    -23.49      0.00
  -13   33   53     -7.28      0.00
  -10   33   53      9.16      0.00
   -7   33   53     14.32      0.00
   -4   33   53      6.30      0.00
   -1   33   53     44.07      0.00
  -33   34   53     -3.65      0.00
  -30   34   53    -36.79      0.00
  -27   34   53    -11.08      0.00
  -24   34   53      7.56      0.00
  -21   34   53      7.02      0.00
  -18   34   53    -11.14      0.00
  -15   34   53     -3.02      0.00
  -12   34   53    -16.43      0.00
   -9   34   53      2.64      0.00
   -6   34   53     -0.75      0.00
   -3   34   53     13.05      0.00
  -32   35   53    -61.74      0.00
  -29   35   53     -4.38      0.00
  -26   35   53    -23.82      0.00
  -23   35   53     13.77      0.00
  -20   35   53      5.72      0.00
  -17   35   53     14.27      0.00
  -14   35   53     22.11      0.00
  -11   35   53     12.71      0.00
   -8   35   53      5.35      0.00
   -5   35   53      1.96      0.00
   -2   35   53     16.86      0.00
  -34   36   53     26.87      0.00
  -31   36   53    -13.43      0.00
  -28   36   53     -6.39      0.00
  -25   36   53      3.90      0.00
  -22   36   53     -3.21      0.00
  -19   36   53     -2.53      0.00
  -16   36   53      7.12      0.00
  -13   36   53      5.15      0.00
  -10   36   53     -5.28      0.00
   -7   36   53    -25.06      0.00
   -4   36   53     -5.27      0.00
  -30   37   53    -15.24      0.00
  -27   37   53    -10.52      0.00
  -24   37   53     43.76      0.00
  -21   37   53     20.30      0.00
  -18   37   53     29.41      0.00
  -15   37   53     10.12      0.00
  -12   37   53      9.36      0.00
   -9   37   53     28.99      0.00
   -6   37   53     19.49      0.00
  -26   38   53    -27.45      0.00
  -23   38   53      9.07      0.00
  -20   38   53      8.51      0.00
  -17   38   53     22.18      0.00
  -14   38   53      8.76      0.00
  -11   38   53    -17.84      0.00
   -8   38   53    -29.88      0.00
  -22   39   53      6.16      0.00
  -19   39   53      9.84      0.00
  -16   39   53     -5.35      0.00
  -13   39   53      2.98      0.00
  -21   40   53      4.64      0.00
  -18   40   53    -17.29      0.00
    0    0   54    -62.06      0.00
   -1    2   54    -46.54      0.00
   -3    3   54    -13.00      0.00
    0    3   54     -0.04      0.00
   -2    4   54     58.44      0.00
   -4    5   54    -10.64      0.00
   -1    5   54     -3.34      0.00
   -6    6   54     -3.75      0.00
   -3    6   54      8.46      0.00
    0    6   54    -20.74      0.00
   -5    7   54    -12.72      0.00
   -2    7   54     12.07      0.00
   -7    8   54      6.62      0.00
   -4    8   54     20.99      0.00
   -1    8   54    -34.64      0.00
   -9    9   54    -33.29      0.00
   -6    9   54     -9.10      0.00
   -3    9   54     16.73      0.00
    0    9   54      7.38      0.00
   -8   10   54      5.95      0.00
   -5   10   54     21.98      0.00
   -2   10   54     16.98      0.00
  -10   11   54      2.08      0.00
   -7   11   54     -4.46      0.00
   -4   11   54    -34.50      0.00
   -1   11   54    -20.99      0.00
  -12   12   54    -14.16      0.00
   -9   12   54    -24.85      0.00
   -6   12   54     19.25      0.00
   -3   12   54      8.91      0.00
    0   12   54     24.60      0.00
  -11   13   54      8.30      0.00
   -8   13   54     62.36      0.00
   -5   13   54     27.13      0.00
   -2   13   54    -21.69      0.00
  -13   14   54    -23.35      0.00
  -10   14   54      6.81      0.00
   -7   14   54    -40.48      0.00
   -4   14   54    -30.33      0.00
   -1   14   54    -33.69      0.00
  -15   15   54     39.56      0.00
  -12   15   54     -6.22      0.00
   -9   15   54    -28.17      0.00
   -6   15   54    -20.52      0.00
   -3   15   54    -29.42      0.00
    0   15   54    -29.73      0.00
  -14   16   54     -2.80      0.00
  -11   16   54    -12.23      0.00
   -8   16   54     23.02      0.00
   -5   16   54     27.52      0.00
   -2   16   54      8.80      0.00
  -16   17   54    -13.87      0.00
  -13   17   54     -8.43      0.00
  -10   17   54    -17.58      0.00
   -7   17   54     -6.78      0.00
   -4   17   54    -51.14      0.00
   -1   17   54    -13.99      0.00
  -18   18   54     -2.11      0.00
  -15   18   54     -6.79      0.00
  -12   18   54     10.70      0.00
   -9   18   54    -41.33      0.00
   -6   18   54      1.82      0.00
   -3   18   54    -10.42      0.00
    0   18   54     -5.63      0.00
  -17   19   54    -13.72      0.00
  -14   19   54      7.33      0.00
  -11   19   54     -2.81      0.00
   -8   19   54     22.03      0.00
   -5   19   54      1.04      0.00
   -2   19   54      1.71      0.00
  -19   20   54     30.15      0.00
  -16   20   54      9.06      0.00
  -13   20   54     -6.32      0.00
  -10   20   54      8.65      0.00
   -7   20   54     -9.07      0.00
   -4   20   54     12.25      0.00
   -1   20   54      7.64      0.00
  -21   21   54     -8.99      0.00
  -18   21   54      1.48      0.00
  -15   21   54    -14.57      0.00
  -12   21   54      8.33      0.00
   -9   21   54     -2.88      0.00
   -6   21   54    -12.05      0.00
   -3   21   54    -10.62      0.00
    0   21   54    -25.41      0.00
  -20   22   54     17.21      0.00
  -17   22   54     -1.55      0.00
  -14   22   54      1.00      0.00
  -11   22   54      7.84      0.00
   -8   22   54      7.36      0.00
   -5   22   54      7.32      0.00
   -2   22   54      9.05      0.00
  -22   23   54     37.11      0.00
  -19   23   54     12.79      0.00
  -16   23   54      1.60      0.00
  -13   23   54     -4.91      0.00
  -10   23   54     12.08      0.00
   -7   23   54     -8.32      0.00
   -4   23   54     -6.49      0.00
   -1   23   54     -0.24      0.00
  -24   24   54     -4.97      0.00
  -21   24   54    -24.65      0.00
  -18   24   54      5.99      0.00
  -15   24   54    -22.07      0.00
  -12   24   54     -8.67      0.00
   -9   24   54    -13.56      0.00
   -6   24   54     24.35      0.00
   -3   24   54      6.57      0.00
    0   24   54    -22.69      0.00
  -23   25   54      6.99      0.00
  -20   25   54      9.35      0.00
  -17   25   54      2.27      0.00
  -14   25   54     -0.75      0.00
  -11   25   54     11.58      0.00
   -8   25   54     23.42      0.00
   -5   25   54      0.53      0.00
   -2   25   54    -11.12      0.00
  -25   26   54      4.95      0.00
  -22   26   54     12.18      0.00
  -19   26   54     -6.29      0.00
  -16   26   54     -9.46      0.00
  -13   26   54     -1.69      0.00
  -10   26   54    -11.46      0.00
   -7   26   54     17.31      0.00
   -4   26   54      3.54      0.00
   -1   26   54     -6.60      0.00
  -27   27   54     -1.93      0.00
  -24   27   54     11.81      0.00
  -21   27   54    -12.63      0.00
  -18   27   54     12.62      0.00
  -15   27   54    -15.85      0.00
  -12   27   54     10.08      0.00
   -9   27   54    -30.22      0.00
   -6   27   54     -0.86      0.00
   -3   27   54    -17.71      0.00
    0   27   54    -35.27      0.00
  -26   28   54     49.99      0.00
  -23   28   54      1.23      0.00
  -20   28   54    -23.99      0.00
  -17   28   54      0.44      0.00
  -14   28   54      1.54      0.00
  -11   28   54      1.93      0.00
   -8   28   54     -8.42      0.00
   -5   28   54      8.18      0.00
   -2   28   54    -16.19      0.00
  -28   29   54      2.24      0.00
  -25   29   54      6.86      0.00
  -22   29   54     14.65      0.00
  -19   29   54     -2.61      0.00
  -16   29   54      0.73      0.00
  -13   29   54    -17.54      0.00
  -10   29   54     -2.07      0.00
   -7   29   54      1.33      0.00
   -4   29   54    -12.99      0.00
   -1   29   54      3.11      0.00
  -30   30   54    -14.38      0.00
  -27   30   54     -6.03      0.00
  -24   30   54     -1.27      0.00
  -21   30   54      1.66      0.00
  -18   30   54     -0.49      0.00
  -15   30   54     33.23      0.00
  -12   30   54    -10.25      0.00
   -9   30   54    -26.17      0.00
   -6   30   54     -1.97      0.00
   -3   30   54    -25.93      0.00
    0   30   54    -39.00      0.00
  -29   31   54    -23.76      0.00
  -26   31   54      1.93      0.00
  -23   31   54     -6.06      0.00
  -20   31   54    -34.49      0.00
  -17   31   54    -20.65      0.00
  -14   31   54     -7.49      0.00
  -11   31   54     -1.98      0.00
   -8   31   54     -2.11      0.00
   -5   31   54    -11.76      0.00
   -2   31   54     -4.02      0.00
  -31   32   54     41.79      0.00
  -28   32   54     22.30      0.00
  -25   32   54      3.26      0.00
  -22   32   54     -4.29      0.00
  -19   32   54     24.30      0.00
  -16   32   54    -13.51      0.00
  -13   32   54     -2.75      0.00
  -10   32   54     -3.11      0.00
   -7   32   54     13.02      0.00
   -4   32   54      2.66      0.00
   -1   32   54    -13.02      0.00
  -33   33   54    -46.74      0.00
  -30   33   54    -19.87      0.00
  -27   33   54    -24.52      0.00
  -24   33   54    -33.65      0.00
  -21   33   54     27.20      0.00
  -18   33   54     -3.44      0.00
  -15   33   54    -15.62      0.00
  -12   33   54      5.05      0.00
   -9   33   54      0.23      0.00
   -6   33   54     19.43      0.00
   -3   33   54      6.28      0.00
    0   33   54    -18.63      0.00
  -32   34   54     14.92      0.00
  -29   34   54     -6.03      0.00
  -26   34   54     -3.74      0.00
  -23   34   54    -21.84      0.00
  -20   34   54    -42.28      0.00
  -17   34   54      3.76      0.00
  -14   34   54      2.30      0.00
  -11   34   54      8.79      0.00
   -8   34   54    -35.48      0.00
   -5   34   54     -2.11      0.00
   -2   34   54     20.72      0.00
  -34   35   54     -8.44      0.00
  -31   35   54    -24.11      0.00
  -28   35   54    -16.72      0.00
  -25   35   54    -24.48      0.00
  -22   35   54    -18.24      0.00
  -19   35   54     -7.80      0.00
  -16   35   54      1.68      0.00
  -13   35   54    -15.06      0.00
  -10   35   54    -10.33      0.00
   -7   35   54    -31.90      0.00
   -4   35   54    -13.52      0.00
   -1   35   54     -4.42      0.00
  -33   36   54     21.82      0.00
  -30   36   54     19.62      0.00
  -27   36   54     -4.83      0.00
  -24   36   54     -2.30      0.00
  -21   36   54     20.14      0.00
  -18   36   54    -27.37      0.00
  -15   36   54     -3.88      0.00
  -12   36   54    -37.45      0.00
   -9   36   54     -2.18      0.00
   -6   36   54     -6.64      0.00
   -3   36   54     21.84      0.00
  -26   37   54     13.59      0.00
  -23   37   54      7.94      0.00
  -20   37   54      6.13      0.00
  -17   37   54    -22.93      0.00
  -14   37   54     18.50      0.00
  -11   37   54     -6.44      0.00
   -8   37   54      3.33      0.00
  -31   38   54    -28.02      0.00
  -22   38   54    -17.00      0.00
  -19   38   54     23.00      0.00
  -16   38   54    -13.96      0.00
  -13   38   54     16.43      0.00
  -27   39   54    -20.76      0.00
  -24   39   54      2.85      0.00
  -21   39   54    -23.63      0.00
  -18   39   54     -5.51      0.00
  -15   39   54    -13.51      0.00
  -20   40   54    -10.62      0.00
  -14   40   54     -0.73      0.00
   -2    3   55    -24.06      0.00
   -1    4   55      6.16      0.00
   -3    5   55      7.53      0.00
   -5    6   55     -3.69      0.00
   -2    6   55      0.13      0.00
   -4    7   55     14.07      0.00
   -1    7   55     -5.63      0.00
   -6    8   55    -27.73      0.00
   -3    8   55      2.63      0.00
   -8    9   55     14.09      0.00
   -5    9   55    -39.71      0.00
   -2    9   55     -0.96      0.00
   -7   10   55     -9.09      0.00
   -4   10   55     -9.30      0.00
   -1   10   55     -6.06      0.00
   -9   11   55     -0.50      0.00
   -6   11   55     -8.94      0.00
   -3   11   55    -28.48      0.00
  -11   12   55    -32.14      0.00
   -8   12   55     12.41      0.00
   -5   12   55     -3.04      0.00
   -2   12   55     67.41      0.00
  -10   13   55     23.26      0.00
   -7   13   55     -7.41      0.00
   -4   13   55     -5.23      0.00
   -1   13   55    -29.39      0.00
  -12   14   55     47.29      0.00
   -9   14   55      1.88      0.00
   -6   14   55     -6.01      0.00
   -3   14   55     14.94      0.00
  -14   15   55    -20.49      0.00
  -11   15   55    -21.95      0.00
   -8   15   55    -15.81      0.00
   -5   15   55     40.27      0.00
   -2   15   55     18.83      0.00
  -13   16   55      6.14      0.00
  -10   16   55      0.64      0.00
   -7   16   55     26.10      0.00
   -4   16   55      8.00      0.00
   -1   16   55    -19.01      0.00
  -15   17   55     23.67      0.00
  -12   17   55     28.25      0.00
   -9   17   55     14.63      0.00
   -6   17   55     14.21      0.00
   -3   17   55    -24.87      0.00
  -17   18   55      4.07      0.00
  -14   18   55     17.52      0.00
  -11   18   55      0.23      0.00
   -8   18   55     27.66      0.00
   -5   18   55     32.09      0.00
   -2   18   55     24.10      0.00
  -16   19   55     -9.08      0.00
  -13   19   55     22.25      0.00
  -10   19   55     17.92      0.00
   -7   19   55     35.07      0.00
   -4   19   55     19.26      0.00
   -1   19   55      4.35      0.00
  -18   20   55      3.42      0.00
  -15   20   55     -3.29      0.00
  -12   20   55     11.46      0.00
   -9   20   55      8.14      0.00
   -6   20   55      5.56      0.00
   -3   20   55      9.03      0.00
  -20   21   55     -2.52      0.00
  -17   21   55     -2.05      0.00
  -14   21   55      8.52      0.00
  -11   21   55      8.34      0.00
   -8   21   55    -17.39      0.00
   -5   21   55     -0.90      0.00
   -2   21   55    -21.14      0.00
  -19   22   55    -12.50      0.00
  -16   22   55    -11.62      0.00
  -13   22   55      9.66      0.00
  -10   22   55     -5.26      0.00
   -7   22   55     -6.84      0.00
   -4   22   55     -2.99      0.00
   -1   22   55     -6.32      0.00
  -21   23   55     17.01      0.00
  -18   23   55     16.92      0.00
  -15   23   55     -4.80      0.00
  -12   23   55      1.72      0.00
   -9   23   55    -14.07      0.00
   -6   23   55      5.92      0.00
   -3   23   55    -30.29      0.00
  -23   24   55      2.12      0.00
  -20   24   55     -9.92      0.00
  -17   24   55      9.43      0.00
  -14   24   55     -1.18      0.00
  -11   24   55      3.81      0.00
   -8   24   55      9.61      0.00
   -5   24   55     11.70      0.00
   -2   24   55     -5.00      0.00
  -22   25   55    -23.19      0.00
  -19   25   55     12.08      0.00
  -16   25   55     -7.50      0.00
  -13   25   55     19.09      0.00
  -10   25   55     -3.57      0.00
   -7   25   55      7.69      0.00
   -4   25   55      4.06      0.00
   -1   25   55      4.28      0.00
  -24   26   55     -6.01      0.00
  -21   26   55      0.16      0.00
  -18   26   55      6.78      0.00
  -15   26   55    -19.81      0.00
  -12   26   55      7.55      0.00
   -9   26   55     -1.01      0.00
   -6   26   55     -2.38      0.00
   -3   26   55    -16.21      0.00
  -26   27   55     -5.46      0.00
  -23   27   55    -22.00      0.00
  -20   27   55     18.72      0.00
  -17   27   55     -9.55      0.00
  -14   27   55    -21.45      0.00
  -11   27   55    -14.85      0.00
   -8   27   55     -6.18      0.00
   -5   27   55      1.25      0.00
   -2   27   55      6.41      0.00
  -25   28   55      0.13      0.00
  -22   28   55    -14.46      0.00
  -19   28   55      0.28      0.00
  -16   28   55     11.59      0.00
  -13   28   55    -15.41      0.00
  -10   28   55      4.68      0.00
   -7   28   55     -6.82      0.00
   -4   28   55    -16.11      0.00
   -1   28   55      2.76      0.00
  -27   29   55     -3.39      0.00
  -24   29   55     -1.11      0.00
  -21   29   55    -10.27      0.00
  -18   29   55      6.74      0.00
  -15   29   55     13.79      0.00
  -12   29   55     19.12      0.00
   -9   29   55      5.96      0.00
   -6   29   55    -29.64      0.00
   -3   29   55     -8.23      0.00
  -29   30   55     37.69      0.00
  -26   30   55    -24.89      0.00
  -23   30   55     18.80      0.00
  -20   30   55     -2.26      0.00
  -17   30   55    -26.21      0.00
  -14   30   55     -5.23      0.00
  -11   30   55     -6.02      0.00
   -8   30   55     13.76      0.00
   -5   30   55     -5.50      0.00
   -2   30   55     -2.09      0.00
  -28   31   55     37.49      0.00
  -25   31   55      7.46      0.00
  -22   31   55    -13.96      0.00
  -19   31   55    -11.29      0.00
  -16   31   55    -11.89      0.00
  -13   31   55      5.84      0.00
  -10   31   55      0.98      0.00
   -7   31   55     22.18      0.00
   -4   31   55    -17.54      0.00
   -1   31   55     19.86      0.00
  -30   32   55     32.02      0.00
  -27   32   55    -16.35      0.00
  -24   32   55      1.78      0.00
  -21   32   55    -44.99      0.00
  -18   32   55     -7.18      0.00
  -15   32   55      5.98      0.00
  -12   32   55    -13.68      0.00
   -9   32   55      1.65      0.00
   -6   32   55      3.86      0.00
   -3   32   55     16.50      0.00
  -32   33   55    -10.70      0.00
  -29   33   55      9.36      0.00
  -26   33   55     -1.06      0.00
  -23   33   55     13.89      0.00
  -20   33   55     -5.09      0.00
  -17   33   55    -19.69      0.00
  -14   33   55    -17.14      0.00
  -11   33   55    -22.90      0.00
   -8   33   55     -3.02      0.00
   -5   33   55      5.67      0.00
   -2   33   55    -21.02      0.00
  -31   34   55     -5.48      0.00
  -28   34   55      6.87      0.00
  -25   34   55    -10.39      0.00
  -22   34   55    -64.01      0.00
  -19   34   55    -43.72      0.00
  -16   34   55     22.68      0.00
  -13   34   55    -21.78      0.00
  -10   34   55      3.06      0.00
   -7   34   55    -11.75      0.00
   -4   34   55    -21.37      0.00
   -1   34   55     -6.33      0.00
  -33   35   55     28.31      0.00
  -30   35   55     53.60      0.00
  -27   35   55     33.57      0.00
  -24   35   55    -13.01      0.00
  -21   35   55     15.67      0.00
  -18   35   55     10.85      0.00
  -15   35   55      3.07      0.00
  -12   35   55    -39.18      0.00
   -9   35   55      9.86      0.00
   -6   35   55    -11.54      0.00
   -3   35   55      4.18      0.00
  -32   36   55    -14.71      0.00
  -29   36   55     27.38      0.00
  -26   36   55    -29.31      0.00
  -23   36   55     48.03      0.00
  -20   36   55     28.75      0.00
  -17   36   55     11.47      0.00
  -14   36   55    -18.05      0.00
  -11   36   55     -5.36      0.00
   -8   36   55     13.60      0.00
   -5   36   55    -11.08      0.00
  -31   37   55     49.56      0.00
  -25   37   55      7.10      0.00
  -22   37   55    -21.36      0.00
  -19   37   55     16.24      0.00
  -16   37   55     44.63      0.00
  -13   37   55     29.71      0.00
  -10   37   55     12.36      0.00
   -7   37   55     12.77      0.00
  -27   38   55     -6.67      0.00
  -24   38   55      4.26      0.00
  -21   38   55      5.68      0.00
  -18   38   55    -17.35      0.00
  -15   38   55      8.43      0.00
  -12   38   55    -12.02      0.00
  -26   39   55      2.92      0.00
  -23   39   55     26.81      0.00
  -20   39   55      3.36      0.00
  -17   39   55    -22.56      0.00
  -14   39   55    -25.37      0.00
  -19   40   55      8.71      0.00
    0    1   56    -12.06      0.00
   -2    2   56     39.23      0.00
   -1    3   56      9.87      0.00
   -3    4   56      2.07      0.00
    0    4   56     66.26      0.00
   -5    5   56    -20.60      0.00
   -2    5   56    -17.14      0.00
   -4    6   56     14.53      0.00
   -1    6   56     -0.92      0.00
   -6    7   56     -3.23      0.00
   -3    7   56     -5.73      0.00
    0    7   56     -0.95      0.00
   -8    8   56     -2.68      0.00
   -5    8   56    -14.28      0.00
   -2    8   56      1.91      0.00
   -7    9   56     10.79      0.00
   -4    9   56     -8.94      0.00
   -1    9   56      1.99      0.00
   -9   10   56     -0.29      0.00
   -6   10   56     45.80      0.00
   -3   10   56     -2.78      0.00
    0   10   56      5.83      0.00
  -11   11   56    -29.59      0.00
   -8   11   56    -18.31      0.00
   -5   11   56    -24.10      0.00
   -2   11   56    -22.51      0.00
  -10   12   56      4.49      0.00
   -7   12   56     11.88      0.00
   -4   12   56      9.12      0.00
   -1   12   56     45.71      0.00
  -12   13   56      7.57      0.00
   -9   13   56     59.16      0.00
   -6   13   56      6.59      0.00
   -3   13   56     11.64      0.00
    0   13   56     -7.36      0.00
  -14   14   56     -2.13      0.00
  -11   14   56    -28.32      0.00
   -8   14   56      1.78      0.00
   -5   14   56    -17.81      0.00
   -2   14   56     39.21      0.00
  -13   15   56    -12.18      0.00
  -10   15   56     -4.29      0.00
   -7   15   56     -2.46      0.00
   -4   15   56      4.25      0.00
   -1   15   56     33.40      0.00
  -15   16   56      7.77      0.00
  -12   16   56     31.61      0.00
   -9   16   56      0.05      0.00
   -6   16   56     29.41      0.00
   -3   16   56      3.60      0.00
    0   16   56     26.22      0.00
  -17   17   56    -27.68      0.00
  -14   17   56     -6.98      0.00
  -11   17   56      0.95      0.00
   -8   17   56     -8.33      0.00
   -5   17   56      9.08      0.00
   -2   17   56      8.19      0.00
  -16   18   56    -30.30      0.00
  -13   18   56    -36.26      0.00
  -10   18   56    -36.94      0.00
   -7   18   56     24.13      0.00
   -4   18   56     27.48      0.00
   -1   18   56     19.34      0.00
  -18   19   56     15.40      0.00
  -15   19   56     18.11      0.00
  -12   19   56     -0.27      0.00
   -9   19   56     -4.05      0.00
   -6   19   56      2.70      0.00
   -3   19   56      4.71      0.00
    0   19   56    -22.25      0.00
  -20   20   56    -41.15      0.00
  -17   20   56    -26.58      0.00
  -14   20   56     21.55      0.00
  -11   20   56    -10.81      0.00
   -8   20   56     32.01      0.00
   -5   20   56    -14.66      0.00
   -2   20   56     -5.68      0.00
  -19   21   56     -1.61      0.00
  -16   21   56      5.38      0.00
  -13   21   56     -9.42      0.00
  -10   21   56      6.93      0.00
   -7   21   56     15.65      0.00
   -4   21   56    -11.24      0.00
   -1   21   56    -20.03      0.00
  -21   22   56      3.42      0.00
  -18   22   56     17.71      0.00
  -15   22   56      9.25      0.00
  -12   22   56     -6.25      0.00
   -9   22   56      5.04      0.00
   -6   22   56      2.61      0.00
   -3   22   56     11.00      0.00
    0   22   56    -10.18      0.00
  -23   23   56    -25.60      0.00
  -20   23   56     -6.59      0.00
  -17   23   56    -13.57      0.00
  -14   23   56     21.75      0.00
  -11   23   56     10.40      0.00
   -8   23   56     -8.30      0.00
   -5   23   56     -8.00      0.00
   -2   23   56    -13.37      0.00
  -22   24   56     -6.74      0.00
  -19   24   56    -23.19      0.00
  -16   24   56    -27.09      0.00
  -13   24   56      0.82      0.00
  -10   24   56      0.20      0.00
   -7   24   56     22.92      0.00
   -4   24   56    -12.95      0.00
   -1   24   56      4.61      0.00
  -24   25   56    -16.41      0.00
  -21   25   56     -8.47      0.00
  -18   25   56      6.24      0.00
  -15   25   56    -27.24      0.00
  -12   25   56      3.73      0.00
   -9   25   56    -15.66      0.00
   -6   25   56      8.11      0.00
   -3   25   56     -0.53      0.00
    0   25   56    -29.63      0.00
  -26   26   56     -8.47      0.00
  -23   26   56      3.87      0.00
  -20   26   56     -3.78      0.00
  -17   26   56     -1.72      0.00
  -14   26   56    -37.41      0.00
  -11   26   56     -3.15      0.00
   -8   26   56    -28.67      0.00
   -5   26   56      6.64      0.00
   -2   26   56      1.67      0.00
  -25   27   56    -11.42      0.00
  -22   27   56     -6.61      0.00
  -19   27   56      4.37      0.00
  -16   27   56     -9.06      0.00
  -13   27   56     11.64      0.00
  -10   27   56      2.05      0.00
   -7   27   56      6.85      0.00
   -4   27   56      2.20      0.00
   -1   27   56     23.67      0.00
  -27   28   56    -20.36      0.00
  -24   28   56     -2.54      0.00
  -21   28   56      6.57      0.00
  -18   28   56     -4.23      0.00
  -15   28   56    -12.18      0.00
  -12   28   56     -9.99      0.00
   -9   28   56     -7.74      0.00
   -6   28   56      2.80      0.00
   -3   28   56     21.10      0.00
    0   28   56     -0.51      0.00
  -29   29   56    -33.63      0.00
  -26   29   56      8.30      0.00
  -23   29   56      2.10      0.00
  -20   29   56     10.71      0.00
  -17   29   56      9.13      0.00
  -14   29   56    -17.51      0.00
  -11   29   56    -11.40      0.00
   -8   29   56    -15.53      0.00
   -5   29   56      5.55      0.00
   -2   29   56     13.74      0.00
  -28   30   56    -19.16      0.00
  -25   30   56      9.11      0.00
  -22   30   56    -21.44      0.00
  -19   30   56    -15.13      0.00
  -16   30   56    -15.22      0.00
  -13   30   56    -12.41      0.00
  -10   30   56     -8.60      0.00
   -7   30   56      3.35      0.00
   -4   30   56     23.26      0.00
   -1   30   56     15.57      0.00
  -30   31   56    -13.59      0.00
  -27   31   56    -26.03      0.00
  -24   31   56      9.78      0.00
  -21   31   56     -2.57      0.00
  -18   31   56      0.57      0.00
  -15   31   56    -19.06      0.00
  -12   31   56      6.46      0.00
   -9   31   56     -4.71      0.00
   -6   31   56     20.33      0.00
   -3   31   56    -19.43      0.00
    0   31   56      1.21      0.00
  -32   32   56    -32.08      0.00
  -29   32   56    -37.02      0.00
  -26   32   56     -5.36      0.00
  -23   32   56     -4.60      0.00
  -20   32   56     -8.65      0.00
  -17   32   56     25.36      0.00
  -14   32   56    -30.45      0.00
  -11   32   56      1.08      0.00
   -8   32   56      0.83      0.00
   -5   32   56     30.68      0.00
   -2   32   56     14.45      0.00
  -31   33   56    -34.70      0.00
  -28   33   56    -20.77      0.00
  -25   33   56      4.20      0.00
  -22   33   56    -21.18      0.00
  -19   33   56     -4.94      0.00
  -16   33   56    -13.06      0.00
  -13   33   56     -7.08      0.00
  -10   33   56     17.97      0.00
   -7   33   56     10.96      0.00
   -4   33   56     16.87      0.00
   -1   33   56    -26.34      0.00
  -33   34   56    -21.84      0.00
  -30   34   56      2.59      0.00
  -27   34   56    -33.09      0.00
  -24   34   56      1.66      0.00
  -21   34   56     25.58      0.00
  -18   34   56    -26.67      0.00
  -15   34   56      4.04      0.00
  -12   34   56     -0.81      0.00
   -9   34   56      1.84      0.00
   -6   34   56      6.84      0.00
   -3   34   56      5.27      0.00
    0   34   56      7.53      0.00
  -32   35   56      6.58      0.00
  -29   35   56    -18.43      0.00
  -26   35   56      5.40      0.00
  -23   35   56     -5.72      0.00
  -20   35   56     29.82      0.00
  -17   35   56     24.55      0.00
  -14   35   56      6.06      0.00
  -11   35   56    -27.41      0.00
   -8   35   56      1.53      0.00
   -5   35   56     -2.34      0.00
   -2   35   56    -25.40      0.00
  -31   36   56      1.70      0.00
  -28   36   56     29.93      0.00
  -25   36   56     17.21      0.00
  -22   36   56     27.55      0.00
  -19   36   56      6.75      0.00
  -16   36   56    -18.65      0.00
  -13   36   56     -9.24      0.00
  -10   36   56      9.58      0.00
   -7   36   56     32.65      0.00
  -30   37   56      2.03      0.00
  -27   37   56    -16.03      0.00
  -24   37   56     19.35      0.00
  -21   37   56     -7.89      0.00
  -18   37   56     10.51      0.00
  -15   37   56    -12.88      0.00
  -12   37   56     25.21      0.00
  -26   38   56      3.41      0.00
  -23   38   56      1.40      0.00
  -20   38   56      4.45      0.00
  -17   38   56    -22.04      0.00
  -14   38   56    -14.00      0.00
  -19   39   56      7.69      0.00
  -16   39   56     -2.61      0.00
  -13   39   56    -27.23      0.00
  -18   40   56     32.98      0.00
   -1    2   57     -0.48      0.00
   -2    4   57     25.30      0.00
   -4    5   57     35.78      0.00
   -1    5   57     45.99      0.00
   -3    6   57     28.49      0.00
   -5    7   57    -12.01      0.00
   -2    7   57     17.28      0.00
   -7    8   57      3.37      0.00
   -4    8   57      5.92      0.00
   -1    8   57     21.36      0.00
   -6    9   57     27.77      0.00
   -3    9   57    -27.75      0.00
   -8   10   57     -1.66      0.00
   -5   10   57    -29.58      0.00
   -2   10   57     -9.21      0.00
  -10   11   57     27.95      0.00
   -7   11   57     12.03      0.00
   -4   11   57    -33.12      0.00
   -1   11   57     21.93      0.00
   -9   12   57     16.43      0.00
   -6   12   57     25.40      0.00
   -3   12   57     40.63      0.00
  -11   13   57    -14.63      0.00
   -8   13   57     25.14      0.00
   -5   13   57    -22.13      0.00
   -2   13   57     -2.75      0.00
  -13   14   57     22.17      0.00
  -10   14   57      2.92      0.00
   -7   14   57    -45.00      0.00
   -4   14   57     -4.56      0.00
   -1   14   57     -9.06      0.00
  -12   15   57     26.18      0.00
   -9   15   57     13.05      0.00
   -6   15   57     10.87      0.00
   -3   15   57     -0.96      0.00
  -14   16   57     -9.37      0.00
  -11   16   57     10.87      0.00
   -8   16   57     12.84      0.00
   -5   16   57     -1.90      0.00
   -2   16   57    -31.48      0.00
  -16   17   57      4.15      0.00
  -13   17   57     17.68      0.00
  -10   17   57    -27.79      0.00
   -7   17   57    -30.72      0.00
   -4   17   57    -40.20      0.00
   -1   17   57      2.73      0.00
  -15   18   57      3.64      0.00
  -12   18   57     35.83      0.00
   -9   18   57     33.95      0.00
   -6   18   57     12.18      0.00
   -3   18   57      3.69      0.00
  -17   19   57    -11.93      0.00
  -14   19   57     22.25      0.00
  -11   19   57     27.71      0.00
   -8   19   57     16.91      0.00
   -5   19   57     -7.04      0.00
   -2   19   57      2.03      0.00
  -19   20   57     -7.46      0.00
  -16   20   57     -9.61      0.00
  -13   20   57      3.18      0.00
  -10   20   57    -15.21      0.00
   -7   20   57      3.67      0.00
   -4   20   57     25.80      0.00
   -1   20   57      3.66      0.00
  -18   21   57     14.22      0.00
  -15   21   57     27.02      0.00
  -12   21   57     22.06      0.00
   -9   21   57      4.51      0.00
   -6   21   57    -12.09      0.00
   -3   21   57     -0.23      0.00
  -20   22   57      5.51      0.00
  -17   22   57      0.30      0.00
  -14   22   57      2.00      0.00
  -11   22   57     12.99      0.00
   -8   22   57    -10.05      0.00
   -5   22   57     18.98      0.00
   -2   22   57    -11.77      0.00
  -22   23   57     -8.46      0.00
  -19   23   57    -12.03      0.00
  -16   23   57      0.94      0.00
  -13   23   57     10.32      0.00
  -10   23   57    -13.12      0.00
   -7   23   57     13.30      0.00
   -4   23   57     -6.18      0.00
   -1   23   57    -19.09      0.00
  -21   24   57      0.62      0.00
  -18   24   57     -3.33      0.00
  -15   24   57      2.36      0.00
  -12   24   57     13.10      0.00
   -9   24   57     -4.61      0.00
   -6   24   57     10.78      0.00
   -3   24   57     -7.31      0.00
  -23   25   57      1.56      0.00
  -20   25   57     18.79      0.00
  -17   25   57     -0.18      0.00
  -14   25   57      6.23      0.00
  -11   25   57      2.67      0.00
   -8   25   57     18.51      0.00
   -5   25   57     25.86      0.00
   -2   25   57     -3.00      0.00
  -25   26   57      2.54      0.00
  -22   26   57    -28.88      0.00
  -19   26   57      7.19      0.00
  -16   26   57      1.19      0.00
  -13   26   57     15.03      0.00
  -10   26   57      1.98      0.00
   -7   26   57     10.12      0.00
   -4   26   57      1.88      0.00
   -1   26   57    -12.42      0.00
  -24   27   57     -6.48      0.00
  -21   27   57     18.46      0.00
  -18   27   57      9.02      0.00
  -15   27   57      8.58      0.00
  -12   27   57     -1.05      0.00
   -9   27   57     -3.53      0.00
   -6   27   57     -0.23      0.00
   -3   27   57    -11.00      0.00
  -26   28   57      8.91      0.00
  -23   28   57    -17.90      0.00
  -20   28   57     10.38      0.00
  -17   28   57     -8.74      0.00
  -14   28   57     10.37      0.00
  -11   28   57      6.04      0.00
   -8   28   57    -19.50      0.00
   -5   28   57     -1.68      0.00
   -2   28   57    -10.61      0.00
  -28   29   57     28.39      0.00
  -25   29   57     -8.38      0.00
  -22   29   57    -12.48      0.00
  -19   29   57      7.03      0.00
  -16   29   57    -17.40      0.00
  -13   29   57     10.34      0.00
  -10   29   57    -18.56      0.00
   -7   29   57      7.01      0.00
   -4   29   57    -32.14      0.00
   -1   29   57     -3.76      0.00
  -27   30   57      9.16      0.00
  -24   30   57     -3.79      0.00
  -21   30   57     10.69      0.00
  -18   30   57     15.47      0.00
  -15   30   57    -12.79      0.00
  -12   30   57     36.86      0.00
   -9   30   57      6.08      0.00
   -6   30   57      4.50      0.00
   -3   30   57     -9.22      0.00
  -29   31   57      6.87      0.00
  -26   31   57      3.09      0.00
  -23   31   57     17.79      0.00
  -20   31   57      9.12      0.00
  -17   31   57     10.34      0.00
  -14   31   57     11.55      0.00
  -11   31   57     -4.38      0.00
   -8   31   57     -5.93      0.00
   -5   31   57     10.15      0.00
   -2   31   57     10.24      0.00
  -31   32   57     11.14      0.00
  -28   32   57    -22.89      0.00
  -25   32   57      7.87      0.00
  -22   32   57     -8.70      0.00
  -19   32   57     -1.28      0.00
  -16   32   57     16.45      0.00
  -13   32   57     -0.33      0.00
  -10   32   57     12.84      0.00
   -7   32   57     -5.45      0.00
   -4   32   57     -4.69      0.00
   -1   32   57     14.99      0.00
  -30   33   57      9.98      0.00
  -27   33   57      6.28      0.00
  -24   33   57      0.59      0.00
  -21   33   57     -3.91      0.00
  -18   33   57     -9.70      0.00
  -15   33   57    -10.45      0.00
  -12   33   57     -3.50      0.00
   -9   33   57     13.24      0.00
   -6   33   57     -1.52      0.00
   -3   33   57    -15.35      0.00
  -32   34   57    -38.63      0.00
  -29   34   57      3.71      0.00
  -26   34   57      6.64      0.00
  -23   34   57     -1.89      0.00
  -20   34   57     24.25      0.00
  -17   34   57     -6.81      0.00
  -14   34   57      2.85      0.00
  -11   34   57    -10.61      0.00
   -8   34   57     -2.13      0.00
   -5   34   57     -2.26      0.00
   -2   34   57      5.83      0.00
  -31   35   57     -3.09      0.00
  -28   35   57      6.90      0.00
  -25   35   57     39.74      0.00
  -22   35   57      0.46      0.00
  -19   35   57     42.73      0.00
  -16   35   57     23.01      0.00
  -13   35   57    -23.07      0.00
  -10   35   57     -5.53      0.00
   -7   35   57     16.47      0.00
   -4   35   57     -9.52      0.00
   -1   35   57     -5.57      0.00
  -30   36   57     21.28      0.00
  -27   36   57    -26.99      0.00
  -24   36   57    -27.15      0.00
  -21   36   57     -3.99      0.00
  -18   36   57    -14.29      0.00
  -15   36   57     -2.18      0.00
  -12   36   57     -4.88      0.00
   -9   36   57     30.21      0.00
  -29   37   57    -11.24      0.00
  -26   37   57    -37.28      0.00
  -23   37   57     22.04      0.00
  -20   37   57    -16.59      0.00
  -17   37   57    -31.00      0.00
  -14   37   57      4.26      0.00
  -11   37   57     12.83      0.00
   -8   37   57    -25.53      0.00
  -22   38   57    -34.02      0.00
  -19   38   57     28.84      0.00
  -16   38   57      5.03      0.00
  -13   38   57      5.89      0.00
  -27   39   57    -47.26      0.00
  -21   39   57     -3.76      0.00
  -18   39   57    -12.60      0.00
   -1    1   58      3.44      0.00
    0    2   58     -0.23      0.00
   -2    3   58     19.57      0.00
   -4    4   58     29.99      0.00
   -1    4   58     49.51      0.00
   -3    5   58      1.69      0.00
    0    5   58    -10.93      0.00
   -5    6   58    -34.39      0.00
   -2    6   58     54.04      0.00
   -7    7   58    -24.32      0.00
   -4    7   58     -5.51      0.00
   -1    7   58      3.22      0.00
   -6    8   58      0.96      0.00
   -3    8   58      9.45      0.00
    0    8   58    -20.88      0.00
   -8    9   58     -1.95      0.00
   -5    9   58      4.97      0.00
   -2    9   58    -22.04      0.00
  -10   10   58      3.77      0.00
   -7   10   58      1.69      0.00
   -4   10   58    -27.18      0.00
   -1   10   58      8.15      0.00
   -9   11   58     -1.82      0.00
   -6   11   58     17.31      0.00
   -3   11   58      5.43      0.00
    0   11   58     44.11      0.00
  -11   12   58    -41.46      0.00
   -8   12   58     13.04      0.00
   -5   12   58    -11.48      0.00
   -2   12   58     19.20      0.00
  -13   13   58     -7.02      0.00
  -10   13   58     -2.58      0.00
   -7   13   58     11.92      0.00
   -4   13   58    -66.60      0.00
   -1   13   58     20.56      0.00
  -12   14   58     11.03      0.00
   -9   14   58     38.71      0.00
   -6   14   58      6.53      0.00
   -3   14   58     38.07      0.00
    0   14   58     35.84      0.00
  -14   15   58     21.99      0.00
  -11   15   58      6.86      0.00
   -8   15   58      2.16      0.00
   -5   15   58      9.32      0.00
   -2   15   58    -13.40      0.00
  -16   16   58    -13.83      0.00
  -13   16   58      3.26      0.00
  -10   16   58     37.27      0.00
   -7   16   58    -12.20      0.00
   -4   16   58    -11.38      0.00
   -1   16   58     -0.15      0.00
  -15   17   58      3.03      0.00
  -12   17   58     -4.90      0.00
   -9   17   58    -13.16      0.00
   -6   17   58     -5.75      0.00
   -3   17   58      3.45      0.00
    0   17   58     32.01      0.00
  -17   18   58    -18.60      0.00
  -14   18   58      2.94      0.00
  -11   18   58    -18.32      0.00
   -8   18   58     16.84      0.00
   -5   18   58     15.46      0.00
   -2   18   58      0.17      0.00
  -19   19   58     21.36      0.00
  -16   19   58    -16.55      0.00
  -13   19   58     23.59      0.00
  -10   19   58    -10.68      0.00
   -7   19   58      2.06      0.00
   -4   19   58    -38.99      0.00
   -1   19   58     -1.39      0.00
  -18   20   58    -10.59      0.00
  -15   20   58     16.07      0.00
  -12   20   58    -20.52      0.00
   -9   20   58    -16.67      0.00
   -6   20   58    -13.04      0.00
   -3   20   58      5.75      0.00
    0   20   58     -6.47      0.00
  -20   21   58     15.10      0.00
  -17   21   58     20.12      0.00
  -14   21   58     28.65      0.00
  -11   21   58    -13.37      0.00
   -8   21   58     31.13      0.00
   -5   21   58    -16.86      0.00
   -2   21   58     -7.62      0.00
  -22   22   58     -7.31      0.00
  -19   22   58      1.95      0.00
  -16   22   58      2.96      0.00
  -13   22   58      8.77      0.00
  -10   22   58    -12.43      0.00
   -7   22   58    -11.84      0.00
   -4   22   58    -14.69      0.00
   -1   22   58      2.83      0.00
  -21   23   58    -29.50      0.00
  -18   23   58      3.19      0.00
  -15   23   58    -10.46      0.00
  -12   23   58    -17.80      0.00
   -9   23   58    -15.15      0.00
   -6   23   58      3.73      0.00
   -3   23   58      2.81      0.00
    0   23   58    -14.53      0.00
  -23   24   58     -2.96      0.00
  -20   24   58    -17.40      0.00
  -17   24   58     14.41      0.00
  -14   24   58    -13.10      0.00
  -11   24   58    -10.52      0.00
   -8   24   58     -9.48      0.00
   -5   24   58      9.82      0.00
   -2   24   58    -10.58      0.00
  -25   25   58    -27.98      0.00
  -22   25   58     13.86      0.00
  -19   25   58    -16.25      0.00
  -16   25   58     -6.32      0.00
  -13   25   58      2.52      0.00
  -10   25   58    -22.11      0.00
   -7   25   58     23.03      0.00
   -4   25   58    -11.03      0.00
   -1   25   58      7.99      0.00
  -24   26   58    -21.57      0.00
  -21   26   58     -0.89      0.00
  -18   26   58    -15.40      0.00
  -15   26   58     -7.83      0.00
  -12   26   58     -0.87      0.00
   -9   26   58     -1.83      0.00
   -6   26   58    -10.52      0.00
   -3   26   58     -8.73      0.00
    0   26   58    -14.62      0.00
  -26   27   58     -1.93      0.00
  -23   27   58    -14.87      0.00
  -20   27   58      8.09      0.00
  -17   27   58    -10.40      0.00
  -14   27   58    -10.45      0.00
  -11   27   58     -4.53      0.00
   -8   27   58     -8.66      0.00
   -5   27   58      4.14      0.00
   -2   27   58     -7.94      0.00
  -28   28   58     13.91      0.00
  -25   28   58     26.48      0.00
  -22   28   58     -6.30      0.00
  -19   28   58    -29.04      0.00
  -16   28   58    -26.15      0.00
  -13   28   58     12.61      0.00
  -10   28   58      8.36      0.00
   -7   28   58     22.97      0.00
   -4   28   58      8.89      0.00
   -1   28   58      4.71      0.00
  -27   29   58     22.34      0.00
  -24   29   58     -1.63      0.00
  -21   29   58     33.05      0.00
  -18   29   58     27.82      0.00
  -15   29   58      7.59      0.00
  -12   29   58     -3.44      0.00
   -9   29   58      2.78      0.00
   -6   29   58    -15.36      0.00
   -3   29   58    -14.80      0.00
    0   29   58     -3.07      0.00
  -29   30   58     -7.15      0.00
  -26   30   58     10.17      0.00
  -23   30   58     -4.86      0.00
  -20   30   58    -18.17      0.00
  -17   30   58     26.59      0.00
  -14   30   58     -9.09      0.00
  -11   30   58     21.27      0.00
   -8   30   58    -11.16      0.00
   -5   30   58      3.33      0.00
   -2   30   58      9.36      0.00
  -31   31   58     41.42      0.00
  -28   31   58     29.06      0.00
  -25   31   58     -4.50      0.00
  -22   31   58     -8.26      0.00
  -19   31   58     -4.24      0.00
  -16   31   58     21.98      0.00
  -13   31   58     29.05      0.00
  -10   31   58      9.42      0.00
   -7   31   58     -7.27      0.00
   -4   31   58    -10.52      0.00
   -1   31   58      1.50      0.00
  -30   32   58     -2.61      0.00
  -27   32   58      9.56      0.00
  -24   32   58    -24.13      0.00
  -21   32   58     -2.55      0.00
  -18   32   58     -8.37      0.00
  -15   32   58    -18.17      0.00
  -12   32   58      4.13      0.00
   -9   32   58     15.66      0.00
   -6   32   58     11.59      0.00
   -3   32   58     13.58      0.00
    0   32   58    -13.43      0.00
  -32   33   58    -11.49      0.00
  -29   33   58      2.05      0.00
  -26   33   58    -14.07      0.00
  -23   33   58      0.25      0.00
  -20   33   58      6.38      0.00
  -17   33   58      4.17      0.00
  -14   33   58     12.73      0.00
  -11   33   58     11.28      0.00
   -8   33   58      7.32      0.00
   -5   33   58    -28.54      0.00
   -2   33   58     11.67      0.00
  -31   34   58     16.04      0.00
  -28   34   58     12.91      0.00
  -25   34   58     -7.56      0.00
  -22   34   58    -14.94      0.00
  -19   34   58    -28.65      0.00
  -16   34   58     26.51      0.00
  -13   34   58     24.89      0.00
  -10   34   58     17.83      0.00
   -7   34   58     17.94      0.00
   -4   34   58     12.29      0.00
   -1   34   58     11.82      0.00
  -30   35   58      2.72      0.00
  -27   35   58    -29.09      0.00
  -24   35   58     -7.40      0.00
  -21   35   58    -26.68      0.00
  -18   35   58    -24.85      0.00
  -15   35   58     -1.59      0.00
  -12   35   58     20.67      0.00
   -9   35   58    -23.54      0.00
   -6   35   58     11.53      0.00
   -3   35   58    -21.32      0.00
  -29   36   58     16.77      0.00
  -26   36   58     20.53      0.00
  -23   36   58    -20.19      0.00
  -20   36   58     -3.80      0.00
  -17   36   58    -34.88      0.00
  -14   36   58     15.46      0.00
  -11   36   58     16.49      0.00
   -8   36   58     22.45      0.00
  -25   37   58    -27.10      0.00
  -22   37   58      1.63      0.00
  -19   37   58      4.63      0.00
  -16   37   58     34.93      0.00
  -13   37   58     31.13      0.00
   -7   37   58    -10.57      0.00
  -24   38   58    -22.36      0.00
  -21   38   58    -24.33      0.00
  -18   38   58      8.26      0.00
  -15   38   58    -21.88      0.00
  -20   39   58     33.57      0.00
  -17   39   58     25.43      0.00
  -14   39   58     15.76      0.00
   -1    3   59     21.03      0.00
   -3    4   59     44.19      0.00
   -2    5   59     41.32      0.00
   -4    6   59     17.65      0.00
   -1    6   59     28.49      0.00
   -6    7   59      5.12      0.00
   -3    7   59     40.13      0.00
   -5    8   59    -14.12      0.00
   -2    8   59      2.67      0.00
   -7    9   59      9.74      0.00
   -4    9   59      4.04      0.00
   -1    9   59     26.03      0.00
   -9   10   59    -30.63      0.00
   -6   10   59      4.99      0.00
   -3   10   59     10.00      0.00
   -8   11   59      3.98      0.00
   -5   11   59    -29.47      0.00
   -2   11   59     17.07      0.00
  -10   12   59     15.41      0.00
   -7   12   59     25.26      0.00
   -4   12   59     15.71      0.00
   -1   12   59     -1.45      0.00
  -12   13   59     -3.36      0.00
   -9   13   59     23.29      0.00
   -6   13   59      0.35      0.00
   -3   13   59     15.01      0.00
  -11   14   59      5.76      0.00
   -8   14   59      7.70      0.00
   -5   14   59     15.55      0.00
   -2   14   59     10.37      0.00
  -13   15   59     -5.23      0.00
  -10   15   59      9.98      0.00
   -7   15   59     -7.05      0.00
   -4   15   59    -11.91      0.00
   -1   15   59      1.81      0.00
  -15   16   59    -26.22      0.00
  -12   16   59    -24.45      0.00
   -9   16   59    -10.62      0.00
   -6   16   59    -15.88      0.00
   -3   16   59    -21.04      0.00
  -14   17   59     -7.99      0.00
  -11   17   59     -7.58      0.00
   -8   17   59    -13.43      0.00
   -5   17   59     -1.87      0.00
   -2   17   59     12.52      0.00
  -16   18   59      9.91      0.00
  -13   18   59    -21.50      0.00
  -10   18   59      3.70      0.00
   -7   18   59      6.44      0.00
   -4   18   59     -6.74      0.00
   -1   18   59     -1.39      0.00
  -18   19   59     12.24      0.00
  -15   19   59      4.10      0.00
  -12   19   59     11.34      0.00
   -9   19   59     10.11      0.00
   -6   19   59    -24.51      0.00
   -3   19   59      1.38      0.00
  -17   20   59    -20.16      0.00
  -14   20   59    -19.91      0.00
  -11   20   59      7.66      0.00
   -8   20   59     -2.79      0.00
   -5   20   59     22.65      0.00
   -2   20   59      9.33      0.00
  -19   21   59     17.80      0.00
  -16   21   59     -4.00      0.00
  -13   21   59     -5.94      0.00
  -10   21   59      6.14      0.00
   -7   21   59     -3.10      0.00
   -4   21   59     13.61      0.00
   -1   21   59     10.56      0.00
  -21   22   59     16.88      0.00
  -18   22   59    -12.06      0.00
  -15   22   59      9.01      0.00
  -12   22   59     -0.30      0.00
   -9   22   59      1.57      0.00
   -6   22   59    -28.95      0.00
   -3   22   59    -19.67      0.00
  -20   23   59    -12.84      0.00
  -17   23   59     -1.36      0.00
  -14   23   59     -6.62      0.00
  -11   23   59    -12.36      0.00
   -8   23   59     10.42      0.00
   -5   23   59      7.29      0.00
   -2   23   59      5.77      0.00
  -22   24   59     -3.40      0.00
  -19   24   59     12.21      0.00
  -16   24   59     -1.87      0.00
  -13   24   59      1.61      0.00
  -10   24   59      3.52      0.00
   -7   24   59     12.65      0.00
   -4   24   59    -13.90      0.00
   -1   24   59      1.46      0.00
  -24   25   59    -18.77      0.00
  -21   25   59     -3.23      0.00
  -18   25   59     -6.64      0.00
  -15   25   59      4.01      0.00
  -12   25   59    -12.98      0.00
   -9   25   59    -13.72      0.00
   -6   25   59    -12.50      0.00
   -3   25   59     -4.23      0.00
  -23   26   59     -1.04      0.00
  -20   26   59    -13.20      0.00
  -17   26   59    -13.29      0.00
  -14   26   59     11.17      0.00
  -11   26   59     20.02      0.00
   -8   26   59      2.57      0.00
   -5   26   59     22.33      0.00
   -2   26   59      0.94      0.00
  -25   27   59      9.11      0.00
  -22   27   59      5.71      0.00
  -19   27   59     30.62      0.00
  -16   27   59    -27.16      0.00
  -13   27   59      2.70      0.00
  -10   27   59    -13.58      0.00
   -7   27   59    -12.91      0.00
   -4   27   59     17.68      0.00
   -1   27   59     12.45      0.00
  -27   28   59     -6.21      0.00
  -24   28   59      3.62      0.00
  -21   28   59      4.82      0.00
  -18   28   59     -1.80      0.00
  -15   28   59      3.01      0.00
  -12   28   59    -13.24      0.00
   -9   28   59    -29.94      0.00
   -6   28   59     -5.26      0.00
   -3   28   59    -10.02      0.00
  -26   29   59    -30.87      0.00
  -23   29   59     13.45      0.00
  -20   29   59    -18.87      0.00
  -17   29   59     -0.91      0.00
  -14   29   59      6.87      0.00
  -11   29   59      4.69      0.00
   -8   29   59    -14.77      0.00
   -5   29   59     -5.59      0.00
   -2   29   59     -3.62      0.00
  -28   30   59      3.90      0.00
  -25   30   59     -2.09      0.00
  -22   30   59     21.83      0.00
  -19   30   59    -28.05      0.00
  -16   30   59    -21.91      0.00
  -13   30   59      7.86      0.00
  -10   30   59     -2.86      0.00
   -7   30   59     -4.16      0.00
   -4   30   59     -8.44      0.00
   -1   30   59      3.38      0.00
  -30   31   59     14.60      0.00
  -27   31   59     -7.26      0.00
  -24   31   59      7.83      0.00
  -21   31   59      7.29      0.00
  -18   31   59     -6.85      0.00
  -15   31   59    -18.64      0.00
  -12   31   59    -24.74      0.00
   -9   31   59     -7.25      0.00
   -6   31   59    -16.18      0.00
   -3   31   59    -12.26      0.00
  -29   32   59    -25.63      0.00
  -26   32   59      8.59      0.00
  -23   32   59    -17.32      0.00
  -20   32   59      3.87      0.00
  -17   32   59    -12.38      0.00
  -14   32   59    -12.11      0.00
  -11   32   59      8.82      0.00
   -8   32   59    -22.28      0.00
   -5   32   59     12.75      0.00
   -2   32   59      8.21      0.00
  -31   33   59     -3.58      0.00
  -28   33   59     -6.25      0.00
  -25   33   59     10.72      0.00
  -22   33   59    -32.58      0.00
  -19   33   59     -5.30      0.00
  -16   33   59    -19.84      0.00
  -13   33   59     -6.03      0.00
  -10   33   59    -10.17      0.00
   -7   33   59      8.29      0.00
   -4   33   59     -0.98      0.00
   -1   33   59     -1.75      0.00
  -33   34   59    -21.64      0.00
  -30   34   59     -7.41      0.00
  -27   34   59     18.31      0.00
  -24   34   59     28.55      0.00
  -21   34   59     -1.27      0.00
  -18   34   59    -25.58      0.00
  -15   34   59      4.09      0.00
  -12   34   59    -13.63      0.00
   -9   34   59    -12.93      0.00
   -6   34   59    -13.42      0.00
   -3   34   59      1.59      0.00
  -29   35   59      6.31      0.00
  -26   35   59    -10.86      0.00
  -23   35   59     19.71      0.00
  -20   35   59     -2.80      0.00
  -17   35   59     -2.41      0.00
  -14   35   59      0.87      0.00
  -11   35   59      4.72      0.00
   -8   35   59     -8.02      0.00
   -5   35   59      6.54      0.00
  -28   36   59      3.31      0.00
  -25   36   59     15.17      0.00
  -22   36   59    -18.68      0.00
  -19   36   59      7.41      0.00
  -16   36   59    -19.06      0.00
  -13   36   59     10.96      0.00
  -10   36   59     -2.76      0.00
   -7   36   59    -29.46      0.00
  -30   37   59      8.74      0.00
  -27   37   59     -5.58      0.00
  -24   37   59      6.95      0.00
  -21   37   59    -10.29      0.00
  -18   37   59      8.45      0.00
  -15   37   59     -5.77      0.00
  -12   37   59     -2.61      0.00
  -20   38   59    -10.49      0.00
  -17   38   59     -5.15      0.00
    0    0   60   -121.94      0.00
   -1    2   60    -32.22      0.00
   -3    3   60      1.12      0.00
    0    3   60     34.66      0.00
   -2    4   60     28.62      0.00
   -4    5   60      5.23      0.00
   -1    5   60     26.95      0.00
   -6    6   60    -53.35      0.00
   -3    6   60     25.35      0.00
    0    6   60    -41.12      0.00
   -5    7   60     -4.83      0.00
   -2    7   60     13.02      0.00
   -7    8   60     11.37      0.00
   -4    8   60     41.83      0.00
   -1    8   60    -22.21      0.00
   -9    9   60    -18.93      0.00
   -6    9   60    -26.28      0.00
   -3    9   60     13.35      0.00
    0    9   60     11.34      0.00
   -8   10   60      1.71      0.00
   -5   10   60     18.37      0.00
   -2   10   60    -11.70      0.00
  -10   11   60     19.98      0.00
   -7   11   60     31.41      0.00
   -4   11   60     -5.09      0.00
   -1   11   60     23.22      0.00
  -12   12   60    -23.97      0.00
   -9   12   60      1.50      0.00
   -6   12   60     27.32      0.00
   -3   12   60     29.94      0.00
    0   12   60      8.26      0.00
  -11   13   60      0.92      0.00
   -8   13   60     11.82      0.00
   -5   13   60    -21.37      0.00
   -2   13   60    -12.65      0.00
  -13   14   60     12.12      0.00
  -10   14   60     48.49      0.00
   -7   14   60     17.30      0.00
   -4   14   60      0.69      0.00
   -1   14   60     13.53      0.00
  -15   15   60      6.03      0.00
  -12   15   60    -16.81      0.00
   -9   15   60     -6.52      0.00
   -6   15   60     -7.63      0.00
   -3   15   60    -17.82      0.00
    0   15   60    -22.08      0.00
  -14   16   60     -4.62      0.00
  -11   16   60      1.75      0.00
   -8   16   60    -18.77      0.00
   -5   16   60     -1.02      0.00
   -2   16   60     -1.06      0.00
  -16   17   60     -4.07      0.00
  -13   17   60     22.18      0.00
  -10   17   60      1.86      0.00
   -7   17   60     -0.08      0.00
   -4   17   60    -19.38      0.00
   -1   17   60     18.34      0.00
  -18   18   60    -17.75      0.00
  -15   18   60    -11.91      0.00
  -12   18   60      2.58      0.00
   -9   18   60      0.55      0.00
   -6   18   60      2.59      0.00
   -3   18   60    -14.15      0.00
    0   18   60    -16.59      0.00
  -17   19   60     -8.52      0.00
  -14   19   60     -4.94      0.00
  -11   19   60     -7.65      0.00
   -8   19   60     -7.31      0.00
   -5   19   60     -2.25      0.00
   -2   19   60     34.61      0.00
  -19   20   60     21.40      0.00
  -16   20   60     -1.13      0.00
  -13   20   60     16.19      0.00
  -10   20   60     -6.74      0.00
   -7   20   60      5.26      0.00
   -4   20   60      1.46      0.00
   -1   20   60      4.87      0.00
  -21   21   60     19.81      0.00
  -18   21   60     17.96      0.00
  -15   21   60      9.40      0.00
  -12   21   60     18.26      0.00
   -9   21   60     29.05      0.00
   -6   21   60     -6.39      0.00
   -3   21   60      8.78      0.00
    0   21   60      7.48      0.00
  -20   22   60      1.55      0.00
  -17   22   60     15.42      0.00
  -14   22   60    -13.11      0.00
  -11   22   60     13.92      0.00
   -8   22   60     -3.71      0.00
   -5   22   60     16.63      0.00
   -2   22   60      5.08      0.00
  -22   23   60     32.13      0.00
  -19   23   60    -29.34      0.00
  -16   23   60     11.84      0.00
  -13   23   60     -6.51      0.00
  -10   23   60    -25.73      0.00
   -7   23   60      6.44      0.00
   -4   23   60    -20.79      0.00
   -1   23   60     -1.88      0.00
  -24   24   60    -30.09      0.00
  -21   24   60     -4.37      0.00
  -18   24   60     -2.77      0.00
  -15   24   60      6.06      0.00
  -12   24   60     25.69      0.00
   -9   24   60     -6.31      0.00
   -6   24   60     -0.66      0.00
   -3   24   60     -5.28      0.00
    0   24   60      5.55      0.00
  -23   25   60    -34.85      0.00
  -20   25   60      1.46      0.00
  -17   25   60    -14.10      0.00
  -14   25   60      5.69      0.00
  -11   25   60      4.70      0.00
   -8   25   60      3.22      0.00
   -5   25   60     21.75      0.00
   -2   25   60     -2.54      0.00
  -25   26   60     11.51      0.00
  -22   26   60    -17.00      0.00
  -19   26   60      0.46      0.00
  -16   26   60     19.48      0.00
  -13   26   60      2.61      0.00
  -10   26   60     -5.30      0.00
   -7   26   60     11.54      0.00
   -4   26   60     -4.90      0.00
   -1   26   60     -7.07      0.00
  -27   27   60    -25.88      0.00
  -24   27   60    -12.17      0.00
  -21   27   60    -12.89      0.00
  -18   27   60      7.27      0.00
  -15   27   60      3.18      0.00
  -12   27   60      1.84      0.00
   -9   27   60    -21.25      0.00
   -6   27   60    -12.86      0.00
   -3   27   60     12.25      0.00
    0   27   60     17.07      0.00
  -26   28   60     -7.74      0.00
  -23   28   60    -25.72      0.00
  -20   28   60    -30.81      0.00
  -17   28   60    -23.10      0.00
  -14   28   60     10.98      0.00
  -11   28   60      0.38      0.00
   -8   28   60     -7.03      0.00
   -5   28   60     15.80      0.00
   -2   28   60      3.72      0.00
  -28   29   60    -15.95      0.00
  -25   29   60     23.20      0.00
  -22   29   60     -4.22      0.00
  -19   29   60      2.41      0.00
  -16   29   60     12.78      0.00
  -13   29   60      7.65      0.00
  -10   29   60    -25.99      0.00
   -7   29   60    -11.81      0.00
   -4   29   60    -32.07      0.00
   -1   29   60     -7.79      0.00
  -30   30   60    -20.70      0.00
  -27   30   60    -18.83      0.00
  -24   30   60    -15.31      0.00
  -21   30   60     15.74      0.00
  -18   30   60      1.11      0.00
  -15   30   60     -7.10      0.00
  -12   30   60      0.06      0.00
   -9   30   60    -27.63      0.00
   -6   30   60     -2.20      0.00
   -3   30   60      1.42      0.00
    0   30   60     -3.01      0.00
  -29   31   60     12.98      0.00
  -26   31   60    -28.01      0.00
  -23   31   60      3.34      0.00
  -20   31   60      8.39      0.00
  -17   31   60     31.30      0.00
  -14   31   60     -2.42      0.00
  -11   31   60    -29.41      0.00
   -8   31   60      0.12      0.00
   -5   31   60    -11.82      0.00
   -2   31   60     20.72      0.00
  -31   32   60      5.00      0.00
  -28   32   60      2.62      0.00
  -25   32   60    -19.35      0.00
  -22   32   60    -21.83      0.00
  -19   32   60    -25.47      0.00
  -16   32   60     26.77      0.00
  -13   32   60     -3.26      0.00
  -10   32   60    -12.02      0.00
   -7   32   60      7.67      0.00
   -4   32   60     -8.62      0.00
   -1   32   60     14.73      0.00
  -33   33   60     36.98      0.00
  -30   33   60    -39.26      0.00
  -27   33   60     -4.62      0.00
  -24   33   60      4.26      0.00
  -21   33   60     23.02      0.00
  -18   33   60     -3.54      0.00
  -15   33   60      1.29      0.00
  -12   33   60      1.20      0.00
   -9   33   60    -22.30      0.00
   -6   33   60     -4.16      0.00
   -3   33   60     -4.16      0.00
    0   33   60     -8.21      0.00
  -32   34   60    -11.54      0.00
  -29   34   60     11.30      0.00
  -26   34   60      1.42      0.00
  -23   34   60     20.58      0.00
  -20   34   60      5.30      0.00
  -17   34   60    -14.45      0.00
  -14   34   60      7.44      0.00
  -11   34   60     10.19      0.00
   -8   34   60      0.06      0.00
   -5   34   60     -7.71      0.00
   -2   34   60      1.97      0.00
  -28   35   60    -11.50      0.00
  -25   35   60    -52.96      0.00
  -22   35   60     -1.83      0.00
  -19   35   60      5.76      0.00
  -16   35   60      5.89      0.00
  -13   35   60      4.41      0.00
  -10   35   60    -49.20      0.00
   -7   35   60    -47.83      0.00
  -30   36   60     -3.23      0.00
  -24   36   60     -3.98      0.00
  -21   36   60     -8.34      0.00
  -18   36   60    -14.72      0.00
  -15   36   60    -16.18      0.00
  -12   36   60     -9.79      0.00
  -26   37   60     17.07      0.00
  -23   37   60     20.67      0.00
  -20   37   60     21.69      0.00
  -17   37   60     -0.90      0.00
  -14   37   60     18.51      0.00
  -19   38   60      9.81      0.00
  -16   38   60     12.09      0.00
  -18   39   60     14.29      0.00
   -2    3   61     -1.24      0.00
   -1    4   61    -13.44      0.00
   -3    5   61    -29.65      0.00
   -5    6   61      2.62      0.00
   -2    6   61     24.81      0.00
   -4    7   61    -11.06      0.00
   -1    7   61     14.77      0.00
   -6    8   61    -22.97      0.00
   -3    8   61     -7.75      0.00
   -8    9   61     -5.94      0.00
   -5    9   61     -3.17      0.00
   -2    9   61      9.62      0.00
   -7   10   61     11.09      0.00
   -4   10   61     21.15      0.00
   -1   10   61     13.74      0.00
   -9   11   61    -21.08      0.00
   -6   11   61     -3.29      0.00
   -3   11   61      7.70      0.00
  -11   12   61      7.38      0.00
   -8   12   61     -0.32      0.00
   -5   12   61     -4.81      0.00
   -2   12   61      9.30      0.00
  -10   13   61      7.70      0.00
   -7   13   61     21.66      0.00
   -4   13   61     21.71      0.00
   -1   13   61     23.72      0.00
  -12   14   61     -5.04      0.00
   -9   14   61     -3.64      0.00
   -6   14   61    -17.81      0.00
   -3   14   61      3.90      0.00
  -14   15   61     -4.02      0.00
  -11   15   61    -11.47      0.00
   -8   15   61    -23.43      0.00
   -5   15   61      7.49      0.00
   -2   15   61    -15.07      0.00
  -13   16   61    -14.44      0.00
  -10   16   61     -7.53      0.00
   -7   16   61      7.05      0.00
   -4   16   61    -12.49      0.00
   -1   16   61     -7.37      0.00
  -15   17   61     18.03      0.00
  -12   17   61     -4.81      0.00
   -9   17   61     -3.96      0.00
   -6   17   61     16.23      0.00
   -3   17   61     21.53      0.00
  -17   18   61    -11.53      0.00
  -14   18   61     -2.65      0.00
  -11   18   61     -3.97      0.00
   -8   18   61     -1.71      0.00
   -5   18   61     -7.53      0.00
   -2   18   61    -17.04      0.00
  -16   19   61    -10.76      0.00
  -13   19   61     -6.23      0.00
  -10   19   61     -2.10      0.00
   -7   19   61      3.07      0.00
   -4   19   61     16.02      0.00
   -1   19   61     19.56      0.00
  -18   20   61     25.54      0.00
  -15   20   61      1.62      0.00
  -12   20   61      5.05      0.00
   -9   20   61      5.82      0.00
   -6   20   61     -4.83      0.00
   -3   20   61     16.76      0.00
  -20   21   61     -1.42      0.00
  -17   21   61      1.75      0.00
  -14   21   61    -17.58      0.00
  -11   21   61    -30.06      0.00
   -8   21   61     -5.69      0.00
   -5   21   61    -12.80      0.00
   -2   21   61     -7.22      0.00
  -19   22   61      1.82      0.00
  -16   22   61    -22.26      0.00
  -13   22   61     -7.58      0.00
  -10   22   61    -24.06      0.00
   -7   22   61     -7.78      0.00
   -4   22   61    -21.27      0.00
   -1   22   61    -16.05      0.00
  -21   23   61      5.98      0.00
  -18   23   61     -0.74      0.00
  -15   23   61     -0.30      0.00
  -12   23   61     -5.76      0.00
   -9   23   61    -20.47      0.00
   -6   23   61     -7.35      0.00
   -3   23   61    -35.91      0.00
  -23   24   61     18.88      0.00
  -20   24   61    -36.42      0.00
  -17   24   61     23.17      0.00
  -14   24   61    -22.69      0.00
  -11   24   61     15.45      0.00
   -8   24   61    -14.52      0.00
   -5   24   61      2.69      0.00
   -2   24   61     11.13      0.00
  -22   25   61      2.64      0.00
  -19   25   61     14.23      0.00
  -16   25   61     -9.80      0.00
  -13   25   61     -9.13      0.00
  -10   25   61    -20.97      0.00
   -7   25   61      1.33      0.00
   -4   25   61      3.77      0.00
   -1   25   61      9.27      0.00
  -24   26   61    -16.70      0.00
  -21   26   61      2.40      0.00
  -18   26   61      6.44      0.00
  -15   26   61     -6.05      0.00
  -12   26   61    -25.57      0.00
   -9   26   61      7.07      0.00
   -6   26   61    -18.21      0.00
   -3   26   61     -8.74      0.00
  -26   27   61     19.08      0.00
  -23   27   61      2.52      0.00
  -20   27   61    -21.25      0.00
  -17   27   61      0.34      0.00
  -14   27   61      6.13      0.00
  -11   27   61     -3.49      0.00
   -8   27   61    -19.59      0.00
   -5   27   61      8.40      0.00
   -2   27   61     37.65      0.00
  -25   28   61      3.35      0.00
  -22   28   61     19.12      0.00
  -19   28   61    -13.45      0.00
  -16   28   61      4.33      0.00
  -13   28   61      1.19      0.00
  -10   28   61     -8.44      0.00
   -7   28   61     -3.95      0.00
   -4   28   61    -14.51      0.00
   -1   28   61    -10.60      0.00
  -27   29   61     -6.31      0.00
  -24   29   61    -21.62      0.00
  -21   29   61     31.70      0.00
  -18   29   61     11.17      0.00
  -15   29   61      3.45      0.00
  -12   29   61    -19.40      0.00
   -9   29   61      9.97      0.00
   -6   29   61     -6.74      0.00
   -3   29   61      0.83      0.00
  -29   30   61     23.61      0.00
  -26   30   61     26.65      0.00
  -23   30   61     -8.31      0.00
  -20   30   61     -7.96      0.00
  -17   30   61     28.04      0.00
  -14   30   61      3.68      0.00
  -11   30   61     -5.83      0.00
   -8   30   61     -8.79      0.00
   -5   30   61     20.93      0.00
   -2   30   61     39.83      0.00
  -28   31   61    -12.84      0.00
  -25   31   61     21.91      0.00
  -22   31   61    -50.98      0.00
  -19   31   61    -10.46      0.00
  -16   31   61     -2.55      0.00
  -13   31   61      5.06      0.00
  -10   31   61    -12.86      0.00
   -7   31   61     12.02      0.00
   -4   31   61      8.26      0.00
   -1   31   61    -28.61      0.00
  -30   32   61     48.75      0.00
  -27   32   61    -19.43      0.00
  -24   32   61     31.52      0.00
  -21   32   61     -7.35      0.00
  -18   32   61     -9.75      0.00
  -15   32   61    -15.55      0.00
  -12   32   61    -47.25      0.00
   -9   32   61     29.17      0.00
   -6   32   61    -10.40      0.00
   -3   32   61      0.66      0.00
  -32   33   61     51.36      0.00
  -29   33   61     14.12      0.00
  -26   33   61    -42.75      0.00
  -23   33   61    -11.51      0.00
  -20   33   61    -12.14      0.00
  -17   33   61     -5.81      0.00
  -14   33   61      1.41      0.00
  -11   33   61    -13.93      0.00
   -8   33   61      8.01      0.00
   -5   33   61     48.45      0.00
   -2   33   61     24.62      0.00
  -31   34   61    -22.82      0.00
  -28   34   61     19.26      0.00
  -25   34   61     -8.96      0.00
  -22   34   61    -22.24      0.00
  -19   34   61    -18.93      0.00
  -16   34   61     10.05      0.00
  -13   34   61    -27.33      0.00
  -10   34   61    -10.55      0.00
   -7   34   61    -14.31      0.00
   -4   34   61     -7.51      0.00
   -1   34   61     20.14      0.00
  -27   35   61    -13.29      0.00
  -24   35   61    -29.34      0.00
  -21   35   61    -23.38      0.00
  -18   35   61     -3.58      0.00
  -15   35   61     -9.06      0.00
  -12   35   61    -27.07      0.00
   -9   35   61     16.05      0.00
   -6   35   61      5.79      0.00
  -29   36   61      7.18      0.00
  -26   36   61    -27.55      0.00
  -23   36   61      6.74      0.00
  -20   36   61     -2.05      0.00
  -17   36   61     25.13      0.00
  -14   36   61    -16.86      0.00
  -25   37   61    -25.35      0.00
  -22   37   61    -42.67      0.00
  -19   37   61     -3.64      0.00
  -16   37   61     21.93      0.00
  -13   37   61     14.49      0.00
  -18   38   61    -23.52      0.00
  -17   39   61     -6.12      0.00
    0    1   62      1.45      0.00
   -2    2   62     -5.71      0.00
   -1    3   62     25.71      0.00
   -3    4   62     21.89      0.00
    0    4   62    -21.46      0.00
   -5    5   62     -1.68      0.00
   -2    5   62     23.36      0.00
   -4    6   62     -1.20      0.00
   -1    6   62     14.47      0.00
   -6    7   62     13.45      0.00
   -3    7   62     -0.49      0.00
    0    7   62    -30.61      0.00
   -8    8   62     -0.74      0.00
   -5    8   62      5.27      0.00
   -2    8   62     14.58      0.00
   -7    9   62     13.68      0.00
   -4    9   62     25.05      0.00
   -1    9   62     41.34      0.00
   -9   10   62      1.32      0.00
   -6   10   62      7.09      0.00
   -3   10   62    -10.62      0.00
    0   10   62     -6.77      0.00
  -11   11   62     17.66      0.00
   -8   11   62     -1.26      0.00
   -5   11   62     -8.11      0.00
   -2   11   62     17.69      0.00
  -10   12   62      3.12      0.00
   -7   12   62     12.97      0.00
   -4   12   62     21.48      0.00
   -1   12   62      7.27      0.00
  -12   13   62     -0.34      0.00
   -9   13   62     -4.46      0.00
   -6   13   62      1.39      0.00
   -3   13   62     -8.27      0.00
    0   13   62      3.66      0.00
  -14   14   62     17.72      0.00
  -11   14   62     18.40      0.00
   -8   14   62     -8.11      0.00
   -5   14   62     10.84      0.00
   -2   14   62     -6.59      0.00
  -13   15   62     -6.49      0.00
  -10   15   62      0.29      0.00
   -7   15   62    -18.39      0.00
   -4   15   62      2.71      0.00
   -1   15   62      5.39      0.00
  -15   16   62     31.40      0.00
  -12   16   62     10.28      0.00
   -9   16   62      7.80      0.00
   -6   16   62     22.78      0.00
   -3   16   62     -2.78      0.00
    0   16   62     25.48      0.00
  -17   17   62      0.85      0.00
  -14   17   62      4.40      0.00
  -11   17   62     -6.13      0.00
   -8   17   62      3.13      0.00
   -5   17   62     -4.70      0.00
   -2   17   62     22.63      0.00
  -16   18   62     -4.95      0.00
  -13   18   62      5.76      0.00
  -10   18   62     -6.68      0.00
   -7   18   62     -3.34      0.00
   -4   18   62     -5.20      0.00
   -1   18   62     -5.15      0.00
  -18   19   62     12.81      0.00
  -15   19   62      2.45      0.00
  -12   19   62      4.82      0.00
   -9   19   62     -4.93      0.00
   -6   19   62    -16.84      0.00
   -3   19   62     32.93      0.00
    0   19   62     19.98      0.00
  -20   20   62     26.50      0.00
  -17   20   62      3.48      0.00
  -14   20   62    -10.70      0.00
  -11   20   62    -11.25      0.00
   -8   20   62     31.87      0.00
   -5   20   62      8.14      0.00
   -2   20   62     -4.50      0.00
  -19   21   62     -8.65      0.00
  -16   21   62      5.18      0.00
  -13   21   62      6.91      0.00
  -10   21   62     -3.53      0.00
   -7   21   62     -7.21      0.00
   -4   21   62    -13.73      0.00
   -1   21   62    -12.06      0.00
  -21   22   62    -13.29      0.00
  -18   22   62    -14.48      0.00
  -15   22   62     -0.76      0.00
  -12   22   62     29.74      0.00
   -9   22   62     17.85      0.00
   -6   22   62      4.91      0.00
   -3   22   62     10.21      0.00
    0   22   62     -9.09      0.00
  -23   23   62     12.77      0.00
  -20   23   62     13.04      0.00
  -17   23   62    -12.01      0.00
  -14   23   62     -1.74      0.00
  -11   23   62     -0.85      0.00
   -8   23   62    -28.17      0.00
   -5   23   62      7.77      0.00
   -2   23   62     -1.49      0.00
  -22   24   62     11.00      0.00
  -19   24   62      7.56      0.00
  -16   24   62     -5.53      0.00
  -13   24   62    -20.49      0.00
  -10   24   62    -14.82      0.00
   -7   24   62     -9.71      0.00
   -4   24   62      1.46      0.00
   -1   24   62     -5.15      0.00
  -24   25   62     -3.24      0.00
  -21   25   62    -19.52      0.00
  -18   25   62     -1.60      0.00
  -15   25   62     -6.87      0.00
  -12   25   62      5.68      0.00
   -9   25   62      3.91      0.00
   -6   25   62      8.97      0.00
   -3   25   62      9.67      0.00
    0   25   62    -26.64      0.00
  -26   26   62     16.44      0.00
  -23   26   62     36.76      0.00
  -20   26   62      1.54      0.00
  -17   26   62     -5.58      0.00
  -14   26   62    -22.74      0.00
  -11   26   62     18.81      0.00
   -8   26   62     -5.11      0.00
   -5   26   62     -4.00      0.00
   -2   26   62      3.22      0.00
  -25   27   62    -14.45      0.00
  -22   27   62      9.99      0.00
  -19   27   62     18.94      0.00
  -16   27   62    -33.38      0.00
  -13   27   62     -0.70      0.00
  -10   27   62    -12.88      0.00
   -7   27   62     -0.52      0.00
   -4   27   62     -1.57      0.00
   -1   27   62    -23.96      0.00
  -27   28   62     13.84      0.00
  -24   28   62      3.09      0.00
  -21   28   62    -17.33      0.00
  -18   28   62     32.12      0.00
  -15   28   62    -18.45      0.00
  -12   28   62     10.54      0.00
   -9   28   62     -4.57      0.00
   -6   28   62     28.91      0.00
   -3   28   62     15.41      0.00
    0   28   62      6.14      0.00
  -29   29   62      4.12      0.00
  -26   29   62     30.78      0.00
  -23   29   62     23.18      0.00
  -20   29   62     -9.26      0.00
  -17   29   62     -4.92      0.00
  -14   29   62     -6.52      0.00
  -11   29   62     -6.31      0.00
   -8   29   62    -16.50      0.00
   -5   29   62    -19.61      0.00
   -2   29   62      1.65      0.00
  -28   30   62    -19.79      0.00
  -25   30   62     24.60      0.00
  -22   30   62     21.28      0.00
  -19   30   62    -28.54      0.00
  -16   30   62     -1.23      0.00
  -13   30   62     -2.64      0.00
  -10   30   62     -7.09      0.00
   -7   30   62     -3.56      0.00
   -4   30   62     -3.95      0.00
   -1   30   62    -13.73      0.00
  -30   31   62     -4.07      0.00
  -27   31   62     17.91      0.00
  -24   31   62     -4.01      0.00
  -21   31   62    -19.50      0.00
  -18   31   62     16.56      0.00
  -15   31   62      5.89      0.00
  -12   31   62     -8.99      0.00
   -9   31   62    -22.62      0.00
   -6   31   62     30.13      0.00
   -3   31   62    -22.65      0.00
    0   31   62    -26.80      0.00
  -29   32   62      9.59      0.00
  -26   32   62     17.50      0.00
  -23   32   62      7.99      0.00
  -20   32   62    -12.72      0.00
  -17   32   62     -9.16      0.00
  -14   32   62     -9.91      0.00
  -11   32   62     18.52      0.00
   -8   32   62      8.18      0.00
   -5   32   62      0.30      0.00
   -2   32   62      8.13      0.00
  -31   33   62     22.00      0.00
  -28   33   62    -25.61      0.00
  -25   33   62     15.62      0.00
  -22   33   62     15.09      0.00
  -19   33   62      4.52      0.00
  -16   33   62     -7.66      0.00
  -13   33   62    -13.50      0.00
  -10   33   62      2.96      0.00
   -7   33   62     13.00      0.00
   -4   33   62     11.02      0.00
   -1   33   62      9.72      0.00
  -30   34   62    -27.31      0.00
  -27   34   62    -10.19      0.00
  -24   34   62    -18.45      0.00
  -21   34   62     20.70      0.00
  -18   34   62     33.82      0.00
  -15   34   62      9.65      0.00
  -12   34   62      5.66      0.00
   -9   34   62      9.09      0.00
   -6   34   62      1.23      0.00
   -3   34   62    -18.77      0.00
  -26   35   62    -36.61      0.00
  -23   35   62    -26.35      0.00
  -20   35   62     -8.10      0.00
  -17   35   62    -17.33      0.00
  -14   35   62    -23.58      0.00
  -11   35   62     10.04      0.00
  -25   36   62     13.15      0.00
  -22   36   62      6.90      0.00
  -19   36   62    -12.00      0.00
  -16   36   62    -12.67      0.00
  -13   36   62     17.73      0.00
   -7   36   62     16.81      0.00
  -24   37   62     17.17      0.00
  -21   37   62     51.24      0.00
  -18   37   62     19.84      0.00
  -15   37   62     13.60      0.00
  -17   38   62      6.28      0.00
  -14   38   62      4.74      0.00
   -1    2   63     -0.21      0.00
   -2    4   63      2.67      0.00
   -4    5   63    -24.24      0.00
   -1    5   63      3.69      0.00
   -3    6   63     20.56      0.00
   -5    7   63     -0.15      0.00
   -2    7   63     -9.81      0.00
   -7    8   63      0.69      0.00
   -4    8   63    -13.62      0.00
   -1    8   63      4.58      0.00
   -6    9   63      0.83      0.00
   -3    9   63     -8.65      0.00
   -8   10   63     35.69      0.00
   -5   10   63     -1.03      0.00
   -2   10   63    -29.70      0.00
  -10   11   63    -38.59      0.00
   -7   11   63     24.34      0.00
   -4   11   63    -35.88      0.00
   -1   11   63     38.89      0.00
   -9   12   63     -0.05      0.00
   -6   12   63     -3.10      0.00
   -3   12   63      7.07      0.00
  -11   13   63     28.47      0.00
   -8   13   63      8.42      0.00
   -5   13   63    -13.37      0.00
   -2   13   63     12.75      0.00
  -13   14   63      0.88      0.00
  -10   14   63    -23.30      0.00
   -7   14   63    -26.62      0.00
   -4   14   63      2.61      0.00
   -1   14   63    -15.43      0.00
  -12   15   63    -22.33      0.00
   -9   15   63    -24.58      0.00
   -6   15   63     11.84      0.00
   -3   15   63     -2.61      0.00
  -14   16   63      6.04      0.00
  -11   16   63      6.77      0.00
   -8   16   63    -24.52      0.00
   -5   16   63      9.15      0.00
   -2   16   63    -31.05      0.00
  -16   17   63      0.02      0.00
  -13   17   63     31.16      0.00
  -10   17   63     -6.95      0.00
   -7   17   63     -1.51      0.00
   -4   17   63     -8.25      0.00
   -1   17   63      0.26      0.00
  -15   18   63    -22.39      0.00
  -12   18   63    -21.39      0.00
   -9   18   63     -8.05      0.00
   -6   18   63     -8.23      0.00
   -3   18   63    -11.76      0.00
  -17   19   63     15.43      0.00
  -14   19   63      4.44      0.00
  -11   19   63    -23.32      0.00
   -8   19   63     19.48      0.00
   -5   19   63      0.52      0.00
   -2   19   63     22.81      0.00
  -19   20   63    -17.56      0.00
  -16   20   63      5.63      0.00
  -13   20   63     27.27      0.00
  -10   20   63      9.99      0.00
   -7   20   63      1.37      0.00
   -4   20   63      2.43      0.00
   -1   20   63    -17.70      0.00
  -18   21   63    -10.11      0.00
  -15   21   63    -27.97      0.00
  -12   21   63      7.88      0.00
   -9   21   63      1.85      0.00
   -6   21   63     21.90      0.00
   -3   21   63    -11.57      0.00
  -20   22   63     25.23      0.00
  -17   22   63     31.21      0.00
  -14   22   63     -7.51      0.00
  -11   22   63     -4.90      0.00
   -8   22   63    -25.04      0.00
   -5   22   63      8.36      0.00
   -2   22   63    -11.29      0.00
  -22   23   63     -3.06      0.00
  -19   23   63    -13.05      0.00
  -16   23   63     -2.80      0.00
  -13   23   63     11.63      0.00
  -10   23   63     11.28      0.00
   -7   23   63    -10.38      0.00
   -4   23   63    -11.16      0.00
   -1   23   63    -16.75      0.00
  -21   24   63     -5.06      0.00
  -18   24   63     -7.72      0.00
  -15   24   63     -6.74      0.00
  -12   24   63     14.53      0.00
   -9   24   63     -4.75      0.00
   -6   24   63     26.15      0.00
   -3   24   63     -5.15      0.00
  -23   25   63     -8.44      0.00
  -20   25   63     -6.68      0.00
  -17   25   63    -17.22      0.00
  -14   25   63     -0.74      0.00
  -11   25   63      5.07      0.00
   -8   25   63      7.43      0.00
   -5   25   63     -0.36      0.00
   -2   25   63    -22.18      0.00
  -25   26   63      8.27      0.00
  -22   26   63    -21.69      0.00
  -19   26   63     25.32      0.00
  -16   26   63      9.73      0.00
  -13   26   63     -0.79      0.00
  -10   26   63    -16.75      0.00
   -7   26   63     -6.69      0.00
   -4   26   63    -13.06      0.00
   -1   26   63     -1.31      0.00
  -24   27   63    -11.61      0.00
  -21   27   63     -3.60      0.00
  -18   27   63    -30.04      0.00
  -15   27   63      3.30      0.00
  -12   27   63     -6.56      0.00
   -9   27   63      2.21      0.00
   -6   27   63    -11.33      0.00
   -3   27   63     -5.58      0.00
  -26   28   63     17.40      0.00
  -23   28   63     -9.66      0.00
  -20   28   63     -6.19      0.00
  -17   28   63    -16.54      0.00
  -14   28   63    -16.50      0.00
  -11   28   63     16.38      0.00
   -8   28   63    -22.16      0.00
   -5   28   63    -10.62      0.00
   -2   28   63     -8.51      0.00
  -28   29   63     17.78      0.00
  -25   29   63     -0.29      0.00
  -22   29   63    -33.66      0.00
  -19   29   63     28.15      0.00
  -16   29   63    -12.91      0.00
  -13   29   63      8.78      0.00
  -10   29   63    -28.07      0.00
   -7   29   63     -7.66      0.00
   -4   29   63    -18.47      0.00
   -1   29   63    -15.56      0.00
  -27   30   63      3.40      0.00
  -24   30   63     17.18      0.00
  -21   30   63    -29.50      0.00
  -18   30   63    -17.52      0.00
  -15   30   63      4.40      0.00
  -12   30   63      3.93      0.00
   -9   30   63      8.09      0.00
   -6   30   63    -15.91      0.00
   -3   30   63     -0.84      0.00
  -29   31   63     31.07      0.00
  -26   31   63    -15.55      0.00
  -23   31   63     22.30      0.00
  -20   31   63    -24.56      0.00
  -17   31   63    -17.57      0.00
  -14   31   63    -14.59      0.00
  -11   31   63     -7.41      0.00
   -8   31   63     25.13      0.00
   -5   31   63     -1.68      0.00
   -2   31   63     19.51      0.00
  -31   32   63     -9.15      0.00
  -28   32   63      3.17      0.00
  -25   32   63      1.95      0.00
  -22   32   63      6.38      0.00
  -19   32   63     42.33      0.00
  -16   32   63     -4.00      0.00
  -13   32   63     -6.04      0.00
  -10   32   63    -22.38      0.00
   -7   32   63    -24.15      0.00
   -4   32   63    -18.63      0.00
   -1   32   63      7.64      0.00
  -30   33   63    -13.16      0.00
  -27   33   63    -11.35      0.00
  -24   33   63    -23.48      0.00
  -21   33   63    -29.34      0.00
  -18   33   63    -20.00      0.00
  -15   33   63     20.99      0.00
  -12   33   63      3.28      0.00
   -9   33   63     34.11      0.00
   -6   33   63     16.50      0.00
   -3   33   63      7.92      0.00
  -32   34   63    -13.39      0.00
  -29   34   63     -9.57      0.00
  -26   34   63     15.46      0.00
  -23   34   63    -20.85      0.00
  -20   34   63     -7.54      0.00
  -17   34   63     11.04      0.00
  -14   34   63     -4.03      0.00
  -11   34   63     -5.18      0.00
   -8   34   63     -5.54      0.00
   -5   34   63     -4.14      0.00
  -28   35   63    -16.37      0.00
  -25   35   63     -1.29      0.00
  -22   35   63      3.27      0.00
  -19   35   63    -11.50      0.00
  -16   35   63     13.27      0.00
  -13   35   63    -25.70      0.00
  -10   35   63     12.27      0.00
   -7   35   63      7.38      0.00
  -24   36   63     35.42      0.00
  -21   36   63     15.47      0.00
  -18   36   63     25.71      0.00
  -15   36   63      8.35      0.00
  -12   36   63    -15.62      0.00
  -26   37   63    -50.21      0.00
  -23   37   63    -19.14      0.00
  -20   37   63     47.94      0.00
  -17   37   63     27.19      0.00
  -14   37   63     19.08      0.00
  -19   38   63    -24.53      0.00
  -16   38   63    -19.51      0.00
   -1    1   64    -10.27      0.00
    0    2   64    -29.15      0.00
   -2    3   64    -11.22      0.00
   -4    4   64    -51.34      0.00
   -1    4   64    -19.19      0.00
   -3    5   64     -3.78      0.00
    0    5   64     -4.74      0.00
   -5    6   64    -16.08      0.00
   -2    6   64     -7.08      0.00
   -7    7   64     -5.01      0.00
   -4    7   64    -26.59      0.00
   -1    7   64    -13.45      0.00
   -6    8   64      5.28      0.00
   -3    8   64     -9.11      0.00
    0    8   64     19.29      0.00
   -8    9   64     47.63      0.00
   -5    9   64     39.63      0.00
   -2    9   64      9.56      0.00
  -10   10   64      9.86      0.00
   -7   10   64     -2.21      0.00
   -4   10   64    -17.80      0.00
   -1   10   64     -3.09      0.00
   -9   11   64      4.56      0.00
   -6   11   64     -7.69      0.00
   -3   11   64    -18.12      0.00
    0   11   64     28.11      0.00
  -11   12   64      6.27      0.00
   -8   12   64     33.59      0.00
   -5   12   64      1.40      0.00
   -2   12   64     15.53      0.00
  -13   13   64    -17.15      0.00
  -10   13   64      6.87      0.00
   -7   13   64      9.81      0.00
   -4   13   64     -8.51      0.00
   -1   13   64      1.87      0.00
  -12   14   64    -21.44      0.00
   -9   14   64     -6.79      0.00
   -6   14   64     -2.90      0.00
   -3   14   64     -4.59      0.00
    0   14   64      5.68      0.00
  -14   15   64     31.05      0.00
  -11   15   64     17.92      0.00
   -8   15   64     38.30      0.00
   -5   15   64     -2.35      0.00
   -2   15   64      5.63      0.00
  -16   16   64    -15.00      0.00
  -13   16   64      1.63      0.00
  -10   16   64     35.17      0.00
   -7   16   64     18.96      0.00
   -4   16   64     23.91      0.00
   -1   16   64     -5.76      0.00
  -15   17   64     -6.56      0.00
  -12   17   64    -27.24      0.00
   -9   17   64    -28.09      0.00
   -6   17   64     10.24      0.00
   -3   17   64    -18.56      0.00
    0   17   64     -0.15      0.00
  -17   18   64      2.97      0.00
  -14   18   64     -3.35      0.00
  -11   18   64    -15.57      0.00
   -8   18   64     15.73      0.00
   -5   18   64     -3.89      0.00
   -2   18   64     -1.24      0.00
  -19   19   64      8.49      0.00
  -16   19   64    -37.37      0.00
  -13   19   64     14.40      0.00
  -10   19   64      7.37      0.00
   -7   19   64     28.96      0.00
   -4   19   64    -15.77      0.00
   -1   19   64    -22.47      0.00
  -18   20   64     11.87      0.00
  -15   20   64     10.08      0.00
  -12   20   64      3.24      0.00
   -9   20   64     11.39      0.00
   -6   20   64     13.48      0.00
   -3   20   64     -7.83      0.00
    0   20   64    -26.80      0.00
  -20   21   64    -13.98      0.00
  -17   21   64      0.43      0.00
  -14   21   64     30.76      0.00
  -11   21   64    -14.06      0.00
   -8   21   64     12.56      0.00
   -5   21   64    -10.50      0.00
   -2   21   64     -7.79      0.00
  -22   22   64     26.39      0.00
  -19   22   64     11.37      0.00
  -16   22   64     13.06      0.00
  -13   22   64      8.50      0.00
  -10   22   64     16.45      0.00
   -7   22   64     16.26      0.00
   -4   22   64      1.75      0.00
   -1   22   64      0.13      0.00
  -21   23   64    -11.99      0.00
  -18   23   64     14.68      0.00
  -15   23   64      9.03      0.00
  -12   23   64     -1.31      0.00
   -9   23   64      0.77      0.00
   -6   23   64     -8.53      0.00
   -3   23   64     19.02      0.00
    0   23   64      9.51      0.00
  -23   24   64    -21.01      0.00
  -20   24   64     -3.40      0.00
  -17   24   64     -3.40      0.00
  -14   24   64     -0.89      0.00
  -11   24   64      4.13      0.00
   -8   24   64      9.78      0.00
   -5   24   64      3.05      0.00
   -2   24   64      8.74      0.00
  -25   25   64    -34.45      0.00
  -22   25   64     19.82      0.00
  -19   25   64     14.29      0.00
  -16   25   64      0.15      0.00
  -13   25   64    -11.58      0.00
  -10   25   64    -12.72      0.00
   -7   25   64      6.52      0.00
   -4   25   64     -4.51      0.00
   -1   25   64    -24.12      0.00
  -24   26   64     -2.23      0.00
  -21   26   64     17.41      0.00
  -18   26   64      0.36      0.00
  -15   26   64    -28.79      0.00
  -12   26   64     17.72      0.00
   -9   26   64     14.65      0.00
   -6   26   64     23.84      0.00
   -3   26   64      1.52      0.00
    0   26   64      2.96      0.00
  -26   27   64    -20.03      0.00
  -23   27   64    -29.34      0.00
  -20   27   64      7.93      0.00
  -17   27   64    -21.31      0.00
  -14   27   64    -28.38      0.00
  -11   27   64     13.88      0.00
   -8   27   64     -4.49      0.00
   -5   27   64      2.91      0.00
   -2   27   64     -0.26      0.00
  -28   28   64    -23.88      0.00
  -25   28   64      3.81      0.00
  -22   28   64     -4.72      0.00
  -19   28   64      1.44      0.00
  -16   28   64      1.25      0.00
  -13   28   64     14.64      0.00
  -10   28   64      3.03      0.00
   -7   28   64      7.54      0.00
   -4   28   64     15.34      0.00
   -1   28   64    -16.39      0.00
  -27   29   64    -18.08      0.00
  -24   29   64     -9.57      0.00
  -21   29   64      6.26      0.00
  -18   29   64     -5.31      0.00
  -15   29   64    -23.51      0.00
  -12   29   64      7.35      0.00
   -9   29   64     15.33      0.00
   -6   29   64      8.46      0.00
   -3   29   64     21.01      0.00
    0   29   64      7.50      0.00
  -29   30   64     -2.05      0.00
  -26   30   64     22.14      0.00
  -23   30   64      7.89      0.00
  -20   30   64      2.02      0.00
  -17   30   64     19.19      0.00
  -14   30   64     -6.18      0.00
  -11   30   64     14.54      0.00
   -8   30   64    -17.81      0.00
   -5   30   64    -17.66      0.00
   -2   30   64    -12.87      0.00
  -31   31   64    -15.39      0.00
  -28   31   64    -26.55      0.00
  -25   31   64    -21.63      0.00
  -22   31   64    -20.50      0.00
  -19   31   64      4.01      0.00
  -16   31   64      7.62      0.00
  -13   31   64     -2.24      0.00
  -10   31   64      0.15      0.00
   -7   31   64     -5.52      0.00
   -4   31   64     17.35      0.00
   -1   31   64     -6.29      0.00
  -30   32   64     -1.68      0.00
  -27   32   64     28.26      0.00
  -24   32   64      6.81      0.00
  -21   32   64     -8.65      0.00
  -18   32   64      5.72      0.00
  -15   32   64     16.82      0.00
  -12   32   64     23.76      0.00
   -9   32   64      1.68      0.00
   -6   32   64     15.46      0.00
   -3   32   64     -0.94      0.00
  -32   33   64     -6.72      0.00
  -29   33   64     14.45      0.00
  -26   33   64    -49.74      0.00
  -23   33   64      1.95      0.00
  -20   33   64    -27.24      0.00
  -17   33   64     -2.44      0.00
  -14   33   64     -3.18      0.00
  -11   33   64     25.85      0.00
   -8   33   64     -2.10      0.00
   -5   33   64    -11.44      0.00
   -2   33   64     18.15      0.00
  -31   34   64      7.63      0.00
  -28   34   64      3.15      0.00
  -25   34   64     25.94      0.00
  -22   34   64    -11.58      0.00
  -19   34   64    -27.10      0.00
  -16   34   64    -18.12      0.00
  -13   34   64     16.73      0.00
  -10   34   64     25.93      0.00
   -7   34   64     -3.38      0.00
  -27   35   64     -4.86      0.00
  -24   35   64     10.00      0.00
  -21   35   64     39.90      0.00
  -18   35   64      6.15      0.00
  -15   35   64     -4.11      0.00
  -12   35   64     -6.97      0.00
   -6   35   64      5.87      0.00
  -26   36   64    -21.67      0.00
  -23   36   64    -26.47      0.00
  -20   36   64    -32.39      0.00
  -17   36   64      2.26      0.00
  -14   36   64     22.88      0.00
  -25   37   64      0.58      0.00
  -19   37   64      0.05      0.00
  -16   37   64    -10.71      0.00
   -1    3   65     13.52      0.00
   -3    4   65     33.57      0.00
   -2    5   65     55.29      0.00
   -4    6   65      3.50      0.00
   -1    6   65      8.68      0.00
   -6    7   65    -17.48      0.00
   -3    7   65     -8.22      0.00
   -5    8   65     24.05      0.00
   -2    8   65     12.95      0.00
   -7    9   65     11.36      0.00
   -4    9   65    -48.59      0.00
   -1    9   65    -12.95      0.00
   -9   10   65      6.48      0.00
   -6   10   65    -24.94      0.00
   -3   10   65    -46.59      0.00
   -8   11   65      8.71      0.00
   -5   11   65    -15.82      0.00
   -2   11   65     32.18      0.00
  -10   12   65      1.53      0.00
   -7   12   65     16.49      0.00
   -4   12   65     -4.81      0.00
   -1   12   65     -5.94      0.00
  -12   13   65     15.93      0.00
   -9   13   65     33.77      0.00
   -6   13   65    -23.99      0.00
   -3   13   65      8.43      0.00
  -11   14   65      5.34      0.00
   -8   14   65    -16.29      0.00
   -5   14   65     18.40      0.00
   -2   14   65     -1.48      0.00
  -13   15   65      0.80      0.00
  -10   15   65     10.16      0.00
   -7   15   65      8.71      0.00
   -4   15   65     18.10      0.00
   -1   15   65      3.33      0.00
  -15   16   65      4.00      0.00
  -12   16   65    -13.09      0.00
   -9   16   65    -12.23      0.00
   -6   16   65    -14.21      0.00
   -3   16   65    -23.46      0.00
  -14   17   65    -22.24      0.00
  -11   17   65    -24.07      0.00
   -8   17   65     -7.22      0.00
   -5   17   65    -16.13      0.00
   -2   17   65    -11.74      0.00
  -16   18   65     19.51      0.00
  -13   18   65      4.43      0.00
  -10   18   65      3.31      0.00
   -7   18   65      0.58      0.00
   -4   18   65    -16.26      0.00
   -1   18   65     -0.61      0.00
  -18   19   65    -14.28      0.00
  -15   19   65     -0.06      0.00
  -12   19   65     -9.27      0.00
   -9   19   65     -0.42      0.00
   -6   19   65      6.32      0.00
   -3   19   65      2.64      0.00
  -17   20   65     -9.07      0.00
  -14   20   65    -17.66      0.00
  -11   20   65    -13.14      0.00
   -8   20   65     -7.07      0.00
   -5   20   65     -3.37      0.00
   -2   20   65     -1.98      0.00
  -19   21   65     23.42      0.00
  -16   21   65     -7.31      0.00
  -13   21   65     -4.93      0.00
  -10   21   65      6.78      0.00
   -7   21   65    -29.21      0.00
   -4   21   65     20.05      0.00
   -1   21   65      2.02      0.00
  -21   22   65     -0.80      0.00
  -18   22   65    -22.92      0.00
  -15   22   65     -5.70      0.00
  -12   22   65     17.63      0.00
   -9   22   65    -12.48      0.00
   -6   22   65      0.76      0.00
   -3   22   65      5.11      0.00
  -20   23   65    -15.32      0.00
  -17   23   65    -15.75      0.00
  -14   23   65     -4.15      0.00
  -11   23   65     -3.06      0.00
   -8   23   65     -6.26      0.00
   -5   23   65    -23.50      0.00
   -2   23   65    -30.47      0.00
  -22   24   65    -30.92      0.00
  -19   24   65    -11.68      0.00
  -16   24   65     -8.84      0.00
  -13   24   65    -23.18      0.00
  -10   24   65     -2.27      0.00
   -7   24   65     18.60      0.00
   -4   24   65     18.29      0.00
   -1   24   65      3.62      0.00
  -24   25   65      1.50      0.00
  -21   25   65      7.92      0.00
  -18   25   65     -8.78      0.00
  -15   25   65     -2.25      0.00
  -12   25   65     -0.45      0.00
   -9   25   65    -20.68      0.00
   -6   25   65    -13.70      0.00
   -3   25   65     -5.66      0.00
  -23   26   65    -20.27      0.00
  -20   26   65     -4.83      0.00
  -17   26   65    -10.34      0.00
  -14   26   65      4.53      0.00
  -11   26   65    -13.75      0.00
   -8   26   65     -9.29      0.00
   -5   26   65      0.64      0.00
   -2   26   65     -4.01      0.00
  -25   27   65    -27.45      0.00
  -22   27   65    -43.83      0.00
  -19   27   65    -12.84      0.00
  -16   27   65     -6.44      0.00
  -13   27   65     14.16      0.00
  -10   27   65      9.23      0.00
   -7   27   65     -7.07      0.00
   -4   27   65     14.91      0.00
   -1   27   65     -1.24      0.00
  -27   28   65     22.23      0.00
  -24   28   65      6.01      0.00
  -21   28   65     37.84      0.00
  -18   28   65      3.88      0.00
  -15   28   65     -5.15      0.00
  -12   28   65      3.87      0.00
   -9   28   65    -25.07      0.00
   -6   28   65      9.60      0.00
   -3   28   65    -19.59      0.00
  -26   29   65    -25.06      0.00
  -23   29   65    -10.07      0.00
  -20   29   65     -6.65      0.00
  -17   29   65    -27.17      0.00
  -14   29   65     -7.57      0.00
  -11   29   65      4.90      0.00
   -8   29   65      3.66      0.00
   -5   29   65      2.05      0.00
   -2   29   65    -24.01      0.00
  -28   30   65    -13.74      0.00
  -25   30   65      1.03      0.00
  -22   30   65      5.76      0.00
  -19   30   65     18.82      0.00
  -16   30   65      3.75      0.00
  -13   30   65     20.52      0.00
  -10   30   65    -27.98      0.00
   -7   30   65      1.25      0.00
   -4   30   65    -14.68      0.00
   -1   30   65      8.28      0.00
  -30   31   65      7.19      0.00
  -27   31   65      2.54      0.00
  -24   31   65      8.14      0.00
  -21   31   65     14.03      0.00
  -18   31   65      9.95      0.00
  -15   31   65    -11.34      0.00
  -12   31   65     -3.08      0.00
   -9   31   65     -6.21      0.00
   -6   31   65    -10.55      0.00
   -3   31   65      2.06      0.00
  -29   32   65    -16.44      0.00
  -26   32   65     20.87      0.00
  -23   32   65     -9.58      0.00
  -20   32   65    -12.43      0.00
  -17   32   65    -30.64      0.00
  -14   32   65     -9.14      0.00
  -11   32   65     12.84      0.00
   -8   32   65    -22.44      0.00
   -5   32   65      0.42      0.00
   -2   32   65    -19.59      0.00
  -28   33   65      3.73      0.00
  -25   33   65      8.92      0.00
  -22   33   65     -4.77      0.00
  -19   33   65     22.63      0.00
  -16   33   65      9.96      0.00
  -13   33   65      1.66      0.00
  -10   33   65      5.70      0.00
   -7   33   65      1.60      0.00
   -4   33   65      1.47      0.00
  -30   34   65     -6.85      0.00
  -27   34   65      6.55      0.00
  -24   34   65     21.62      0.00
  -21   34   65     12.41      0.00
  -18   34   65    -10.81      0.00
  -15   34   65     10.33      0.00
  -12   34   65     -7.68      0.00
   -9   34   65    -24.48      0.00
   -6   34   65      0.12      0.00
   -3   34   65     -1.96      0.00
  -26   35   65      9.38      0.00
  -23   35   65    -23.78      0.00
  -20   35   65     -2.24      0.00
  -17   35   65      1.53      0.00
  -14   35   65     14.47      0.00
  -11   35   65      9.72      0.00
   -8   35   65      2.78      0.00
  -25   36   65     40.43      0.00
  -22   36   65     10.83      0.00
  -19   36   65      6.12      0.00
  -16   36   65      4.09      0.00
  -13   36   65      5.61      0.00
  -18   37   65      8.24      0.00
  -15   37   65     -5.48      0.00
    0    0   66    -58.75      0.00
   -1    2   66    -29.41      0.00
   -3    3   66     37.71      0.00
    0    3   66     27.90      0.00
   -2    4   66     33.22      0.00
   -4    5   66    -26.88      0.00
   -1    5   66     21.42      0.00
   -6    6   66    -33.01      0.00
   -3    6   66      7.30      0.00
    0    6   66    -49.14      0.00
   -5    7   66      3.32      0.00
   -2    7   66      1.37      0.00
   -7    8   66    -38.70      0.00
   -4    8   66     23.77      0.00
   -1    8   66    -29.27      0.00
   -9    9   66     40.08      0.00
   -6    9   66      0.47      0.00
   -3    9   66    -30.99      0.00
    0    9   66    -24.07      0.00
   -8   10   66    -21.70      0.00
   -5   10   66     -9.63      0.00
   -2   10   66     16.57      0.00
  -10   11   66     -3.91      0.00
   -7   11   66     17.28      0.00
   -4   11   66     -6.08      0.00
   -1   11   66     25.00      0.00
  -12   12   66    -41.25      0.00
   -9   12   66      5.98      0.00
   -6   12   66     12.65      0.00
   -3   12   66    -28.97      0.00
    0   12   66     27.75      0.00
  -11   13   66     10.22      0.00
   -8   13   66     14.40      0.00
   -5   13   66    -21.25      0.00
   -2   13   66     15.60      0.00
  -13   14   66     14.96      0.00
  -10   14   66      8.37      0.00
   -7   14   66    -22.60      0.00
   -4   14   66     16.45      0.00
   -1   14   66     23.10      0.00
  -15   15   66      6.76      0.00
  -12   15   66     -7.17      0.00
   -9   15   66      6.15      0.00
   -6   15   66      1.51      0.00
   -3   15   66     -7.98      0.00
    0   15   66     -2.02      0.00
  -14   16   66     15.38      0.00
  -11   16   66     13.00      0.00
   -8   16   66    -12.95      0.00
   -5   16   66     -9.61      0.00
   -2   16   66     -2.49      0.00
  -16   17   66    -10.60      0.00
  -13   17   66    -11.57      0.00
  -10   17   66    -10.92      0.00
   -7   17   66    -15.90      0.00
   -4   17   66    -12.29      0.00
   -1   17   66     -1.83      0.00
  -18   18   66      6.36      0.00
  -15   18   66      1.58      0.00
  -12   18   66      2.12      0.00
   -9   18   66     -3.10      0.00
   -6   18   66     25.13      0.00
   -3   18   66     -4.90      0.00
    0   18   66      9.08      0.00
  -17   19   66      0.15      0.00
  -14   19   66      9.04      0.00
  -11   19   66    -35.52      0.00
   -8   19   66    -14.34      0.00
   -5   19   66    -11.91      0.00
   -2   19   66     -8.33      0.00
  -19   20   66     -5.99      0.00
  -16   20   66     -9.43      0.00
  -13   20   66     12.62      0.00
  -10   20   66     -3.29      0.00
   -7   20   66     13.59      0.00
   -4   20   66     11.75      0.00
   -1   20   66     11.83      0.00
  -21   21   66     46.34      0.00
  -18   21   66      0.78      0.00
  -15   21   66     18.57      0.00
  -12   21   66      3.69      0.00
   -9   21   66    -10.59      0.00
   -6   21   66    -17.33      0.00
   -3   21   66      2.19      0.00
    0   21   66     12.18      0.00
  -20   22   66      4.99      0.00
  -17   22   66     10.35      0.00
  -14   22   66      7.98      0.00
  -11   22   66    -11.88      0.00
   -8   22   66     11.79      0.00
   -5   22   66      9.39      0.00
   -2   22   66     -6.92      0.00
  -22   23   66     27.89      0.00
  -19   23   66    -20.58      0.00
  -16   23   66     -1.88      0.00
  -13   23   66    -18.91      0.00
  -10   23   66    -41.44      0.00
   -7   23   66      5.21      0.00
   -4   23   66     10.69      0.00
   -1   23   66      2.10      0.00
  -24   24   66     38.13      0.00
  -21   24   66     33.84      0.00
  -18   24   66     12.44      0.00
  -15   24   66     -9.08      0.00
  -12   24   66      7.61      0.00
   -9   24   66    -20.90      0.00
   -6   24   66    -12.11      0.00
   -3   24   66      2.42      0.00
    0   24   66    -10.12      0.00
  -23   25   66    -34.87      0.00
  -20   25   66    -14.80      0.00
  -17   25   66      1.55      0.00
  -14   25   66     16.17      0.00
  -11   25   66    -10.80      0.00
   -8   25   66     -8.40      0.00
   -5   25   66     -2.78      0.00
   -2   25   66     -8.47      0.00
  -25   26   66     43.50      0.00
  -22   26   66      6.90      0.00
  -19   26   66    -17.61      0.00
  -16   26   66      3.18      0.00
  -13   26   66      3.98      0.00
  -10   26   66    -11.26      0.00
   -7   26   66      4.66      0.00
   -4   26   66    -11.88      0.00
   -1   26   66    -16.91      0.00
  -27   27   66      3.45      0.00
  -24   27   66      5.19      0.00
  -21   27   66     -6.33      0.00
  -18   27   66    -14.74      0.00
  -15   27   66     -1.94      0.00
  -12   27   66     -4.52      0.00
   -9   27   66      6.62      0.00
   -6   27   66     11.24      0.00
   -3   27   66      0.18      0.00
    0   27   66     -7.97      0.00
  -26   28   66     14.38      0.00
  -23   28   66     -0.90      0.00
  -20   28   66     13.70      0.00
  -17   28   66      9.88      0.00
  -14   28   66    -26.03      0.00
  -11   28   66    -19.97      0.00
   -8   28   66     -7.03      0.00
   -5   28   66     -9.42      0.00
   -2   28   66    -23.47      0.00
  -28   29   66     22.15      0.00
  -25   29   66     28.25      0.00
  -22   29   66     23.20      0.00
  -19   29   66     15.05      0.00
  -16   29   66      1.73      0.00
  -13   29   66    -14.81      0.00
  -10   29   66    -23.75      0.00
   -7   29   66     13.75      0.00
   -4   29   66      3.24      0.00
   -1   29   66    -13.81      0.00
  -30   30   66    -17.20      0.00
  -27   30   66     15.04      0.00
  -24   30   66     -7.78      0.00
  -21   30   66      5.69      0.00
  -18   30   66     12.48      0.00
  -15   30   66     23.37      0.00
  -12   30   66     -7.01      0.00
   -9   30   66     -6.86      0.00
   -6   30   66     -7.70      0.00
   -3   30   66    -10.59      0.00
    0   30   66     -7.87      0.00
  -29   31   66    -11.79      0.00
  -26   31   66    -24.46      0.00
  -23   31   66     22.63      0.00
  -20   31   66      5.58      0.00
  -17   31   66     18.11      0.00
  -14   31   66    -23.14      0.00
  -11   31   66    -19.18      0.00
   -8   31   66    -10.72      0.00
   -5   31   66     -8.02      0.00
   -2   31   66      8.93      0.00
  -31   32   66     34.09      0.00
  -28   32   66     29.16      0.00
  -25   32   66    -11.95      0.00
  -22   32   66     31.55      0.00
  -19   32   66     -8.48      0.00
  -16   32   66      8.68      0.00
  -13   32   66     20.71      0.00
  -10   32   66     12.71      0.00
   -7   32   66     18.73      0.00
   -4   32   66    -11.51      0.00
   -1   32   66    -29.62      0.00
  -30   33   66    -27.67      0.00
  -27   33   66      2.44      0.00
  -24   33   66    -21.68      0.00
  -21   33   66     23.58      0.00
  -18   33   66     -5.59      0.00
  -15   33   66     14.13      0.00
  -12   33   66      0.45      0.00
   -9   33   66     12.12      0.00
   -6   33   66      7.91      0.00
  -29   34   66     18.42      0.00
  -26   34   66     -6.12      0.00
  -23   34   66     24.16      0.00
  -20   34   66    -18.12      0.00
  -17   34   66     21.83      0.00
  -14   34   66     -4.39      0.00
  -11   34   66      5.94      0.00
   -8   34   66     -0.11      0.00
   -5   34   66    -22.94      0.00
  -28   35   66     -6.25      0.00
  -25   35   66     11.23      0.00
  -22   35   66      0.85      0.00
  -19   35   66     -0.49      0.00
  -16   35   66     -9.37      0.00
  -13   35   66     20.19      0.00
  -24   36   66    -11.91      0.00
  -21   36   66      1.45      0.00
  -18   36   66    -18.84      0.00
  -15   36   66     -7.96      0.00
  -12   36   66      7.12      0.00
  -20   37   66      1.51      0.00
  -14   37   66     -2.55      0.00
   -2    3   67     -1.22      0.00
   -1    4   67     -1.23      0.00
   -3    5   67     12.60      0.00
   -5    6   67    -22.63      0.00
   -2    6   67     23.06      0.00
   -4    7   67    -26.02      0.00
   -1    7   67      7.43      0.00
   -6    8   67     15.81      0.00
   -3    8   67     24.14      0.00
   -8    9   67    -14.27      0.00
   -5    9   67     -6.27      0.00
   -2    9   67      6.61      0.00
   -7   10   67     -9.73      0.00
   -4   10   67    -19.09      0.00
   -1   10   67     14.30      0.00
   -9   11   67     12.15      0.00
   -6   11   67     32.28      0.00
   -3   11   67     22.81      0.00
  -11   12   67      1.58      0.00
   -8   12   67     15.57      0.00
   -5   12   67     -1.88      0.00
   -2   12   67      1.28      0.00
  -10   13   67     20.99      0.00
   -7   13   67     10.68      0.00
   -4   13   67      1.36      0.00
   -1   13   67      8.48      0.00
  -12   14   67     -6.50      0.00
   -9   14   67     17.54      0.00
   -6   14   67      1.18      0.00
   -3   14   67     -7.27      0.00
  -14   15   67    -27.94      0.00
  -11   15   67      5.83      0.00
   -8   15   67      7.54      0.00
   -5   15   67    -14.00      0.00
   -2   15   67    -11.62      0.00
  -13   16   67    -11.20      0.00
  -10   16   67     13.99      0.00
   -7   16   67    -12.02      0.00
   -4   16   67    -28.77      0.00
   -1   16   67      9.13      0.00
  -15   17   67     31.00      0.00
  -12   17   67    -16.14      0.00
   -9   17   67      5.20      0.00
   -6   17   67     15.71      0.00
   -3   17   67    -20.22      0.00
  -17   18   67    -13.79      0.00
  -14   18   67      2.53      0.00
  -11   18   67     26.20      0.00
   -8   18   67     22.49      0.00
   -5   18   67      3.26      0.00
   -2   18   67     -2.50      0.00
  -16   19   67     -0.72      0.00
  -13   19   67      6.94      0.00
  -10   19   67     -0.70      0.00
   -7   19   67     -9.44      0.00
   -4   19   67     10.75      0.00
   -1   19   67     10.51      0.00
  -18   20   67     21.51      0.00
  -15   20   67     -1.33      0.00
  -12   20   67    -16.37      0.00
   -9   20   67     -1.32      0.00
   -6   20   67     -3.86      0.00
   -3   20   67    -15.74      0.00
  -20   21   67      3.00      0.00
  -17   21   67      0.88      0.00
  -14   21   67     -3.08      0.00
  -11   21   67     10.17      0.00
   -8   21   67     15.86      0.00
   -5   21   67      3.99      0.00
   -2   21   67    -13.01      0.00
  -19   22   67      1.72      0.00
  -16   22   67     -8.48      0.00
  -13   22   67    -14.06      0.00
  -10   22   67    -10.82      0.00
   -7   22   67    -21.21      0.00
   -4   22   67      3.27      0.00
   -1   22   67      6.38      0.00
  -21   23   67     -0.52      0.00
  -18   23   67     -2.81      0.00
  -15   23   67     15.25      0.00
  -12   23   67     -6.65      0.00
   -9   23   67      2.08      0.00
   -6   23   67     -8.81      0.00
   -3   23   67     -9.13      0.00
  -23   24   67     22.76      0.00
  -20   24   67    -28.35      0.00
  -17   24   67      7.92      0.00
  -14   24   67    -13.12      0.00
  -11   24   67     -2.62      0.00
   -8   24   67      6.50      0.00
   -5   24   67    -15.55      0.00
   -2   24   67    -12.57      0.00
  -22   25   67     10.09      0.00
  -19   25   67    -11.31      0.00
  -16   25   67      3.56      0.00
  -13   25   67      7.44      0.00
  -10   25   67    -21.56      0.00
   -7   25   67    -20.34      0.00
   -4   25   67      4.03      0.00
   -1   25   67     30.04      0.00
  -24   26   67    -15.77      0.00
  -21   26   67      1.25      0.00
  -18   26   67      0.11      0.00
  -15   26   67    -30.84      0.00
  -12   26   67     -3.35      0.00
   -9   26   67      5.46      0.00
   -6   26   67      2.30      0.00
   -3   26   67     19.92      0.00
  -26   27   67     34.88      0.00
  -23   27   67     25.66      0.00
  -20   27   67     15.37      0.00
  -17   27   67    -18.47      0.00
  -14   27   67    -13.87      0.00
  -11   27   67    -20.91      0.00
   -8   27   67     -2.94      0.00
   -5   27   67     -2.03      0.00
   -2   27   67     -4.37      0.00
  -25   28   67      4.46      0.00
  -22   28   67     -2.19      0.00
  -19   28   67     13.16      0.00
  -16   28   67      5.96      0.00
  -13   28   67    -18.72      0.00
  -10   28   67     12.20      0.00
   -7   28   67     14.81      0.00
   -4   28   67     20.85      0.00
   -1   28   67     23.04      0.00
  -27   29   67    -19.86      0.00
  -24   29   67     10.99      0.00
  -21   29   67     -9.49      0.00
  -18   29   67     -8.23      0.00
  -15   29   67     -9.00      0.00
  -12   29   67      1.28      0.00
   -9   29   67    -13.34      0.00
   -6   29   67     15.06      0.00
   -3   29   67      9.74      0.00
  -29   30   67     47.10      0.00
  -26   30   67     -1.39      0.00
  -23   30   67     22.01      0.00
  -20   30   67     -6.50      0.00
  -17   30   67      5.08      0.00
  -14   30   67    -14.74      0.00
  -11   30   67     -2.24      0.00
   -8   30   67     25.89      0.00
   -5   30   67     15.68      0.00
   -2   30   67     -7.12      0.00
  -28   31   67     10.69      0.00
  -25   31   67     30.77      0.00
  -22   31   67      0.52      0.00
  -19   31   67      6.56      0.00
  -16   31   67    -14.01      0.00
  -13   31   67    -35.56      0.00
  -10   31   67     10.07      0.00
   -7   31   67     15.53      0.00
   -4   31   67     29.27      0.00
   -1   31   67      6.98      0.00
  -30   32   67     14.02      0.00
  -27   32   67     22.05      0.00
  -24   32   67      4.36      0.00
  -21   32   67     -5.13      0.00
  -18   32   67    -10.05      0.00
  -15   32   67    -31.05      0.00
  -12   32   67    -18.43      0.00
   -9   32   67     13.00      0.00
   -6   32   67      1.29      0.00
   -3   32   67      1.27      0.00
  -29   33   67     30.95      0.00
  -26   33   67     12.70      0.00
  -23   33   67     -9.87      0.00
  -20   33   67     -1.56      0.00
  -17   33   67    -21.00      0.00
  -14   33   67      3.11      0.00
  -11   33   67     10.31      0.00
   -8   33   67      5.83      0.00
   -5   33   67     36.30      0.00
  -28   34   67     14.28      0.00
  -25   34   67      3.51      0.00
  -22   34   67     10.24      0.00
  -19   34   67    -13.79      0.00
  -16   34   67     -6.01      0.00
  -13   34   67    -28.46      0.00
  -10   34   67     -4.15      0.00
   -7   34   67      4.55      0.00
   -4   34   67      4.34      0.00
  -24   35   67     -0.87      0.00
  -21   35   67    -10.78      0.00
  -18   35   67    -17.80      0.00
  -15   35   67    -17.03      0.00
  -12   35   67    -10.45      0.00
  -20   36   67    -23.91      0.00
  -17   36   67      0.26      0.00
  -14   36   67     -1.46      0.00
    0    1   68    -36.16      0.00
   -2    2   68     -1.22      0.00
   -1    3   68     23.43      0.00
   -3    4   68     17.22      0.00
    0    4   68     31.75      0.00
   -5    5   68    -20.96      0.00
   -2    5   68    -20.23      0.00
   -4    6   68      9.56      0.00
   -1    6   68    -36.59      0.00
   -6    7   68    -33.16      0.00
   -3    7   68     29.75      0.00
    0    7   68    -16.74      0.00
   -8    8   68    -43.92      0.00
   -5    8   68    -33.43      0.00
   -2    8   68    -10.05      0.00
   -7    9   68    -12.27      0.00
   -4    9   68    -17.11      0.00
   -1    9   68     -3.71      0.00
   -9   10   68    -13.19      0.00
   -6   10   68      2.88      0.00
   -3   10   68     -6.29      0.00
    0   10   68     38.09      0.00
  -11   11   68     18.20      0.00
   -8   11   68     -1.56      0.00
   -5   11   68      7.11      0.00
   -2   11   68      2.08      0.00
  -10   12   68     -6.85      0.00
   -7   12   68    -11.32      0.00
   -4   12   68      5.66      0.00
   -1   12   68    -16.59      0.00
  -12   13   68     -8.67      0.00
   -9   13   68    -19.18      0.00
   -6   13   68     -9.97      0.00
   -3   13   68     11.14      0.00
    0   13   68     -2.04      0.00
  -14   14   68     20.95      0.00
  -11   14   68     19.94      0.00
   -8   14   68    -11.08      0.00
   -5   14   68      8.28      0.00
   -2   14   68      5.65      0.00
  -13   15   68    -10.23      0.00
  -10   15   68      2.77      0.00
   -7   15   68     -9.82      0.00
   -4   15   68    -30.87      0.00
   -1   15   68     -4.75      0.00
  -15   16   68     27.72      0.00
  -12   16   68      3.65      0.00
   -9   16   68      6.80      0.00
   -6   16   68     26.57      0.00
   -3   16   68     13.21      0.00
    0   16   68     17.15      0.00
  -17   17   68     27.23      0.00
  -14   17   68      1.91      0.00
  -11   17   68      4.62      0.00
   -8   17   68      9.31      0.00
   -5   17   68     -9.49      0.00
   -2   17   68      4.77      0.00
  -16   18   68     -2.85      0.00
  -13   18   68      3.96      0.00
  -10   18   68     15.67      0.00
   -7   18   68      6.81      0.00
   -4   18   68     -0.08      0.00
   -1   18   68     23.96      0.00
  -18   19   68     -3.41      0.00
  -15   19   68      5.02      0.00
  -12   19   68    -13.83      0.00
   -9   19   68    -21.06      0.00
   -6   19   68    -17.04      0.00
   -3   19   68     13.93      0.00
    0   19   68    -29.85      0.00
  -20   20   68     -1.22      0.00
  -17   20   68     -3.49      0.00
  -14   20   68     -5.65      0.00
  -11   20   68     -8.03      0.00
   -8   20   68     20.01      0.00
   -5   20   68     13.97      0.00
   -2   20   68     11.60      0.00
  -19   21   68     11.55      0.00
  -16   21   68     -4.66      0.00
  -13   21   68     14.14      0.00
  -10   21   68     15.48      0.00
   -7   21   68     -4.40      0.00
   -4   21   68     14.71      0.00
   -1   21   68     21.19      0.00
  -21   22   68     13.37      0.00
  -18   22   68    -16.38      0.00
  -15   22   68     -1.06      0.00
  -12   22   68     13.81      0.00
   -9   22   68      8.17      0.00
   -6   22   68     -7.41      0.00
   -3   22   68    -12.35      0.00
    0   22   68    -16.02      0.00
  -23   23   68     24.68      0.00
  -20   23   68    -14.39      0.00
  -17   23   68     -8.21      0.00
  -14   23   68     -4.42      0.00
  -11   23   68    -17.48      0.00
   -8   23   68    -17.77      0.00
   -5   23   68     15.83      0.00
   -2   23   68      1.47      0.00
  -22   24   68      4.41      0.00
  -19   24   68     -5.94      0.00
  -16   24   68     11.70      0.00
  -13   24   68     28.14      0.00
  -10   24   68     -4.93      0.00
   -7   24   68     -5.93      0.00
   -4   24   68     -7.12      0.00
   -1   24   68     13.70      0.00
  -24   25   68     -1.03      0.00
  -21   25   68      0.33      0.00
  -18   25   68    -18.47      0.00
  -15   25   68     11.74      0.00
  -12   25   68     11.24      0.00
   -9   25   68     -2.83      0.00
   -6   25   68    -19.76      0.00
   -3   25   68     -2.62      0.00
    0   25   68    -12.92      0.00
  -26   26   68    -22.88      0.00
  -23   26   68      5.84      0.00
  -20   26   68    -13.27      0.00
  -17   26   68     12.13      0.00
  -14   26   68      9.32      0.00
  -11   26   68     24.07      0.00
   -8   26   68    -10.02      0.00
   -5   26   68     24.76      0.00
   -2   26   68      4.54      0.00
  -25   27   68     16.81      0.00
  -22   27   68    -24.37      0.00
  -19   27   68      0.12      0.00
  -16   27   68      7.02      0.00
  -13   27   68     18.36      0.00
  -10   27   68    -11.09      0.00
   -7   27   68     19.24      0.00
   -4   27   68      4.37      0.00
   -1   27   68      2.56      0.00
  -27   28   68      9.52      0.00
  -24   28   68      0.44      0.00
  -21   28   68    -15.75      0.00
  -18   28   68     12.14      0.00
  -15   28   68      4.39      0.00
  -12   28   68     -5.86      0.00
   -9   28   68     -3.94      0.00
   -6   28   68    -25.07      0.00
   -3   28   68      4.08      0.00
    0   28   68      2.60      0.00
  -29   29   68     -1.87      0.00
  -26   29   68      3.84      0.00
  -23   29   68     -0.23      0.00
  -20   29   68     -7.01      0.00
  -17   29   68      1.13      0.00
  -14   29   68     18.73      0.00
  -11   29   68      7.31      0.00
   -8   29   68      5.00      0.00
   -5   29   68     26.77      0.00
   -2   29   68     37.20      0.00
  -28   30   68     20.41      0.00
  -25   30   68     58.22      0.00
  -22   30   68     31.10      0.00
  -19   30   68     -9.60      0.00
  -16   30   68      9.12      0.00
  -13   30   68      6.12      0.00
  -10   30   68    -39.89      0.00
   -7   30   68     -9.95      0.00
   -4   30   68    -18.85      0.00
   -1   30   68     16.15      0.00
  -30   31   68     13.22      0.00
  -27   31   68      6.11      0.00
  -24   31   68      6.63      0.00
  -21   31   68    -17.07      0.00
  -18   31   68    -11.15      0.00
  -15   31   68      8.19      0.00
  -12   31   68    -12.00      0.00
   -9   31   68     -4.31      0.00
   -6   31   68     -7.25      0.00
   -3   31   68     -0.24      0.00
    0   31   68     28.72      0.00
  -29   32   68      6.02      0.00
  -26   32   68    -24.01      0.00
  -23   32   68     -8.00      0.00
  -20   32   68    -14.09      0.00
  -17   32   68     17.06      0.00
  -14   32   68      5.96      0.00
  -11   32   68      0.93      0.00
   -8   32   68     -4.24      0.00
   -5   32   68      9.64      0.00
   -2   32   68     24.79      0.00
  -28   33   68     17.40      0.00
  -25   33   68     22.06      0.00
  -22   33   68     38.04      0.00
  -19   33   68      3.02      0.00
  -16   33   68      6.86      0.00
  -13   33   68    -15.12      0.00
  -10   33   68    -22.54      0.00
   -7   33   68      3.20      0.00
   -4   33   68      0.73      0.00
  -27   34   68    -11.59      0.00
  -24   34   68    -15.49      0.00
  -21   34   68    -27.79      0.00
  -18   34   68      5.90      0.00
  -15   34   68    -17.80      0.00
  -12   34   68     -6.76      0.00
   -9   34   68    -10.08      0.00
  -23   35   68      5.26      0.00
  -20   35   68    -14.85      0.00
  -17   35   68     -5.29      0.00
  -14   35   68     -1.13      0.00
  -11   35   68      9.59      0.00
  -19   36   68     -2.82      0.00
  -16   36   68     -9.98      0.00
  -13   36   68     -7.35      0.00
   -1    2   69      7.44      0.00
   -2    4   69    -37.36      0.00
   -4    5   69    -10.23      0.00
   -1    5   69     23.61      0.00
   -3    6   69     -4.87      0.00
   -5    7   69    -15.25      0.00
   -2    7   69      6.06      0.00
   -7    8   69     -5.00      0.00
   -4    8   69     -6.88      0.00
   -1    8   69      8.25      0.00
   -6    9   69     18.10      0.00
   -3    9   69      0.99      0.00
   -8   10   69      5.85      0.00
   -5   10   69     30.71      0.00
   -2   10   69     11.76      0.00
  -10   11   69    -10.53      0.00
   -7   11   69     17.40      0.00
   -4   11   69     -7.44      0.00
   -1   11   69      8.75      0.00
   -9   12   69    -13.87      0.00
   -6   12   69     -3.05      0.00
   -3   12   69      2.54      0.00
  -11   13   69     -0.31      0.00
   -8   13   69      8.16      0.00
   -5   13   69      2.32      0.00
   -2   13   69     29.31      0.00
  -13   14   69    -12.34      0.00
  -10   14   69     -4.70      0.00
   -7   14   69    -13.58      0.00
   -4   14   69     -0.20      0.00
   -1   14   69    -21.95      0.00
  -12   15   69    -24.12      0.00
   -9   15   69    -20.23      0.00
   -6   15   69      4.31      0.00
   -3   15   69      4.65      0.00
  -14   16   69     -0.76      0.00
  -11   16   69    -15.36      0.00
   -8   16   69    -13.65      0.00
   -5   16   69     17.22      0.00
   -2   16   69      7.72      0.00
  -16   17   69      1.53      0.00
  -13   17   69     -6.78      0.00
  -10   17   69     -6.01      0.00
   -7   17   69      5.41      0.00
   -4   17   69     -9.90      0.00
   -1   17   69     -9.30      0.00
  -15   18   69     -7.09      0.00
  -12   18   69      1.72      0.00
   -9   18   69     -9.21      0.00
   -6   18   69     -4.10      0.00
   -3   18   69      4.16      0.00
  -17   19   69      3.26      0.00
  -14   19   69    -15.61      0.00
  -11   19   69    -18.31      0.00
   -8   19   69      4.94      0.00
   -5   19   69      3.47      0.00
   -2   19   69     -1.38      0.00
  -19   20   69     14.06      0.00
  -16   20   69     -9.78      0.00
  -13   20   69    -19.63      0.00
  -10   20   69      2.97      0.00
   -7   20   69     -7.69      0.00
   -4   20   69    -11.71      0.00
   -1   20   69     -2.23      0.00
  -18   21   69     28.34      0.00
  -15   21   69     13.49      0.00
  -12   21   69     -0.90      0.00
   -9   21   69     17.58      0.00
   -6   21   69     11.92      0.00
   -3   21   69      6.04      0.00
  -20   22   69     -3.32      0.00
  -17   22   69     -8.75      0.00
  -14   22   69    -37.00      0.00
  -11   22   69    -20.50      0.00
   -8   22   69     -5.78      0.00
   -5   22   69     -2.70      0.00
   -2   22   69    -25.20      0.00
  -22   23   69     32.08      0.00
  -19   23   69     11.91      0.00
  -16   23   69     10.88      0.00
  -13   23   69     21.56      0.00
  -10   23   69     16.77      0.00
   -7   23   69     -4.29      0.00
   -4   23   69     -1.51      0.00
   -1   23   69     10.51      0.00
  -21   24   69      4.74      0.00
  -18   24   69     -0.33      0.00
  -15   24   69      8.23      0.00
  -12   24   69     27.46      0.00
   -9   24   69     -5.75      0.00
   -6   24   69     16.77      0.00
   -3   24   69    -10.31      0.00
  -23   25   69    -10.32      0.00
  -20   25   69      8.42      0.00
  -17   25   69     23.99      0.00
  -14   25   69     -8.86      0.00
  -11   25   69     14.50      0.00
   -8   25   69      4.29      0.00
   -5   25   69      7.39      0.00
   -2   25   69     12.81      0.00
  -25   26   69     15.63      0.00
  -22   26   69      5.95      0.00
  -19   26   69      9.22      0.00
  -16   26   69      1.00      0.00
  -13   26   69      4.70      0.00
  -10   26   69     18.30      0.00
   -7   26   69      7.80      0.00
   -4   26   69    -13.00      0.00
   -1   26   69     19.02      0.00
  -24   27   69     21.83      0.00
  -21   27   69     -6.28      0.00
  -18   27   69     -4.86      0.00
  -15   27   69     35.17      0.00
  -12   27   69     -5.81      0.00
   -9   27   69     -4.37      0.00
   -6   27   69    -16.32      0.00
   -3   27   69    -11.91      0.00
  -26   28   69      4.15      0.00
  -23   28   69     -2.22      0.00
  -20   28   69     -2.71      0.00
  -17   28   69     11.42      0.00
  -14   28   69     13.03      0.00
  -11   28   69     41.23      0.00
   -8   28   69     15.77      0.00
   -5   28   69    -10.89      0.00
   -2   28   69      2.02      0.00
  -28   29   69      2.86      0.00
  -25   29   69     16.33      0.00
  -22   29   69     -0.28      0.00
  -19   29   69      6.02      0.00
  -16   29   69     -2.23      0.00
  -13   29   69     22.33      0.00
  -10   29   69     20.90      0.00
   -7   29   69      6.12      0.00
   -4   29   69     11.32      0.00
   -1   29   69     -3.25      0.00
  -27   30   69    -25.62      0.00
  -24   30   69     -7.40      0.00
  -21   30   69     -8.41      0.00
  -18   30   69     23.08      0.00
  -15   30   69     29.05      0.00
  -12   30   69      5.19      0.00
   -9   30   69      1.80      0.00
   -6   30   69     -2.46      0.00
   -3   30   69      1.38      0.00
  -29   31   69     27.85      0.00
  -26   31   69     16.70      0.00
  -23   31   69    -14.79      0.00
  -20   31   69    -16.41      0.00
  -17   31   69     25.32      0.00
  -14   31   69      5.89      0.00
  -11   31   69      2.74      0.00
   -8   31   69     16.03      0.00
   -5   31   69    -20.74      0.00
   -2   31   69     14.84      0.00
  -28   32   69    -36.65      0.00
  -25   32   69     -1.33      0.00
  -22   32   69    -20.29      0.00
  -19   32   69     29.07      0.00
  -16   32   69     18.55      0.00
  -13   32   69      4.60      0.00
  -10   32   69     24.28      0.00
   -7   32   69    -15.24      0.00
   -4   32   69     -6.62      0.00
  -27   33   69     -6.69      0.00
  -24   33   69      9.07      0.00
  -21   33   69      1.62      0.00
  -18   33   69     -8.84      0.00
  -15   33   69     31.09      0.00
  -12   33   69     -4.68      0.00
   -9   33   69     25.83      0.00
   -6   33   69    -20.10      0.00
  -26   34   69      1.63      0.00
  -23   34   69    -11.32      0.00
  -20   34   69     -0.93      0.00
  -17   34   69      6.40      0.00
  -14   34   69      3.16      0.00
  -11   34   69      4.93      0.00
   -5   34   69      1.20      0.00
  -25   35   69    -23.93      0.00
  -22   35   69     -4.18      0.00
  -19   35   69     23.67      0.00
  -16   35   69     46.45      0.00
  -13   35   69      3.29      0.00
  -21   36   69    -16.45      0.00
  -12   36   69    -26.28      0.00
   -1    1   70    -28.81      0.00
    0    2   70    -10.71      0.00
   -2    3   70    -37.10      0.00
   -4    4   70    -13.72      0.00
   -1    4   70    -48.28      0.00
   -3    5   70    -15.49      0.00
    0    5   70    -19.60      0.00
   -5    6   70    -17.72      0.00
   -2    6   70     -2.69      0.00
   -7    7   70      7.52      0.00
   -4    7   70    -18.97      0.00
   -1    7   70    -21.75      0.00
   -6    8   70      9.15      0.00
   -3    8   70     11.34      0.00
    0    8   70     37.16      0.00
   -8    9   70     26.08      0.00
   -5    9   70      4.58      0.00
   -2    9   70      0.89      0.00
  -10   10   70     32.22      0.00
   -7   10   70     14.92      0.00
   -4   10   70    -17.33      0.00
   -1   10   70     -4.03      0.00
   -9   11   70     10.34      0.00
   -6   11   70      3.56      0.00
   -3   11   70     -8.67      0.00
    0   11   70    -36.89      0.00
  -11   12   70     20.39      0.00
   -8   12   70    -16.11      0.00
   -5   12   70    -13.48      0.00
   -2   12   70     -8.29      0.00
  -13   13   70     11.74      0.00
  -10   13   70      6.41      0.00
   -7   13   70     11.65      0.00
   -4   13   70    -14.20      0.00
   -1   13   70    -11.99      0.00
  -12   14   70     -5.42      0.00
   -9   14   70      7.17      0.00
   -6   14   70     10.76      0.00
   -3   14   70    -14.01      0.00
    0   14   70      2.38      0.00
  -14   15   70     20.48      0.00
  -11   15   70     -0.54      0.00
   -8   15   70    -17.27      0.00
   -5   15   70     -9.41      0.00
   -2   15   70    -30.95      0.00
  -16   16   70     35.90      0.00
  -13   16   70     11.97      0.00
  -10   16   70     11.87      0.00
   -7   16   70     10.43      0.00
   -4   16   70     15.52      0.00
   -1   16   70     17.57      0.00
  -15   17   70      6.40      0.00
  -12   17   70    -11.21      0.00
   -9   17   70      7.97      0.00
   -6   17   70     -7.06      0.00
   -3   17   70     -5.24      0.00
    0   17   70    -25.81      0.00
  -17   18   70    -15.97      0.00
  -14   18   70    -12.27      0.00
  -11   18   70     -2.52      0.00
   -8   18   70      6.34      0.00
   -5   18   70     -8.47      0.00
   -2   18   70      0.35      0.00
  -19   19   70     44.36      0.00
  -16   19   70     -8.30      0.00
  -13   19   70     -3.93      0.00
  -10   19   70    -18.60      0.00
   -7   19   70     -3.33      0.00
   -4   19   70    -13.78      0.00
   -1   19   70     -2.15      0.00
  -18   20   70    -15.42      0.00
  -15   20   70     -0.57      0.00
  -12   20   70     20.74      0.00
   -9   20   70     21.61      0.00
   -6   20   70    -19.59      0.00
   -3   20   70      2.21      0.00
    0   20   70    -20.28      0.00
  -20   21   70    -25.17      0.00
  -17   21   70     -5.15      0.00
  -14   21   70     27.19      0.00
  -11   21   70     -2.35      0.00
   -8   21   70     22.01      0.00
   -5   21   70     17.02      0.00
   -2   21   70    -25.59      0.00
  -22   22   70     -0.80      0.00
  -19   22   70     22.00      0.00
  -16   22   70     -1.77      0.00
  -13   22   70     19.61      0.00
  -10   22   70     13.47      0.00
   -7   22   70     -6.06      0.00
   -4   22   70    -22.14      0.00
   -1   22   70     -4.12      0.00
  -21   23   70    -10.18      0.00
  -18   23   70    -11.43      0.00
  -15   23   70     16.11      0.00
  -12   23   70     20.27      0.00
   -9   23   70    -12.48      0.00
   -6   23   70    -37.86      0.00
   -3   23   70     25.99      0.00
    0   23   70    -17.46      0.00
  -23   24   70     -8.91      0.00
  -20   24   70     -1.61      0.00
  -17   24   70     41.22      0.00
  -14   24   70     19.89      0.00
  -11   24   70      5.11      0.00
   -8   24   70     -0.99      0.00
   -5   24   70     13.45      0.00
   -2   24   70     24.25      0.00
  -25   25   70    -22.11      0.00
  -22   25   70      1.06      0.00
  -19   25   70     -2.07      0.00
  -16   25   70     -5.06      0.00
  -13   25   70    -24.42      0.00
  -10   25   70     -1.95      0.00
   -7   25   70     -8.13      0.00
   -4   25   70    -15.32      0.00
   -1   25   70      5.95      0.00
  -24   26   70    -29.56      0.00
  -21   26   70     33.80      0.00
  -18   26   70      1.19      0.00
  -15   26   70    -18.65      0.00
  -12   26   70     35.80      0.00
   -9   26   70     -4.77      0.00
   -6   26   70    -17.23      0.00
   -3   26   70     -1.73      0.00
    0   26   70    -38.51      0.00
  -26   27   70    -11.77      0.00
  -23   27   70      0.49      0.00
  -20   27   70     -5.32      0.00
  -17   27   70      4.18      0.00
  -14   27   70    -10.77      0.00
  -11   27   70      7.39      0.00
   -8   27   70      3.73      0.00
   -5   27   70     28.05      0.00
   -2   27   70     12.97      0.00
  -28   28   70    -67.57      0.00
  -25   28   70     -3.80      0.00
  -22   28   70    -16.16      0.00
  -19   28   70      6.67      0.00
  -16   28   70    -14.40      0.00
  -13   28   70    -17.19      0.00
  -10   28   70    -17.94      0.00
   -7   28   70     34.71      0.00
   -4   28   70     23.54      0.00
   -1   28   70     14.91      0.00
  -27   29   70     27.45      0.00
  -24   29   70      0.82      0.00
  -21   29   70     11.83      0.00
  -18   29   70     -9.18      0.00
  -15   29   70     -7.03      0.00
  -12   29   70     23.47      0.00
   -9   29   70     -9.94      0.00
   -6   29   70    -22.31      0.00
   -3   29   70     35.14      0.00
    0   29   70      0.90      0.00
  -29   30   70      5.94      0.00
  -26   30   70     28.43      0.00
  -23   30   70      6.73      0.00
  -20   30   70    -16.22      0.00
  -17   30   70    -17.42      0.00
  -14   30   70     -2.35      0.00
  -11   30   70    -12.30      0.00
   -8   30   70    -27.01      0.00
   -5   30   70     15.73      0.00
   -2   30   70    -14.35      0.00
  -28   31   70    -21.96      0.00
  -25   31   70     16.98      0.00
  -22   31   70      3.19      0.00
  -19   31   70     -3.43      0.00
  -16   31   70    -11.59      0.00
  -13   31   70    -15.92      0.00
  -10   31   70      1.44      0.00
   -7   31   70    -13.99      0.00
   -4   31   70      9.30      0.00
  -27   32   70     19.59      0.00
  -24   32   70     17.21      0.00
  -21   32   70    -27.75      0.00
  -18   32   70    -22.56      0.00
  -15   32   70    -24.18      0.00
  -12   32   70     -5.40      0.00
   -9   32   70    -18.43      0.00
   -6   32   70     15.06      0.00
   -3   32   70     16.20      0.00
  -26   33   70     11.89      0.00
  -23   33   70     46.92      0.00
  -20   33   70     -2.36      0.00
  -17   33   70     17.92      0.00
  -14   33   70     -5.17      0.00
  -11   33   70      6.56      0.00
   -8   33   70    -11.20      0.00
   -5   33   70    -26.20      0.00
  -25   34   70     -0.42      0.00
  -22   34   70    -10.58      0.00
  -19   34   70    -41.26      0.00
  -16   34   70    -25.88      0.00
  -13   34   70    -16.47      0.00
  -10   34   70     -4.09      0.00
   -7   34   70     -6.79      0.00
  -24   35   70     24.71      0.00
  -21   35   70     -9.32      0.00
  -18   35   70    -22.22      0.00
  -15   35   70    -11.83      0.00
  -12   35   70     25.54      0.00
   -1    3   71     24.65      0.00
   -3    4   71     -1.09      0.00
   -2    5   71     25.41      0.00
   -4    6   71     11.96      0.00
   -1    6   71     13.61      0.00
   -6    7   71    -14.19      0.00
   -3    7   71    -22.54      0.00
   -5    8   71    -10.68      0.00
   -2    8   71    -11.37      0.00
   -7    9   71     12.54      0.00
   -4    9   71    -10.51      0.00
   -1    9   71     -5.75      0.00
   -9   10   71    -19.41      0.00
   -6   10   71    -23.28      0.00
   -3   10   71    -18.34      0.00
   -8   11   71      4.86      0.00
   -5   11   71    -26.35      0.00
   -2   11   71      7.13      0.00
  -10   12   71     23.83      0.00
   -7   12   71     11.10      0.00
   -4   12   71     -3.42      0.00
   -1   12   71     20.07      0.00
  -12   13   71     12.31      0.00
   -9   13   71     -6.51      0.00
   -6   13   71    -13.73      0.00
   -3   13   71     22.35      0.00
  -11   14   71     -6.20      0.00
   -8   14   71     -3.07      0.00
   -5   14   71     16.04      0.00
   -2   14   71    -16.74      0.00
  -13   15   71     -5.47      0.00
  -10   15   71     -9.65      0.00
   -7   15   71    -10.59      0.00
   -4   15   71     17.32      0.00
   -1   15   71      6.75      0.00
  -15   16   71      0.88      0.00
  -12   16   71     -4.07      0.00
   -9   16   71    -11.48      0.00
   -6   16   71     33.66      0.00
   -3   16   71    -16.00      0.00
  -14   17   71     -9.78      0.00
  -11   17   71     -6.13      0.00
   -8   17   71      0.15      0.00
   -5   17   71     11.66      0.00
   -2   17   71     -3.82      0.00
  -16   18   71      7.26      0.00
  -13   18   71    -14.10      0.00
  -10   18   71     -9.91      0.00
   -7   18   71    -32.04      0.00
   -4   18   71    -22.29      0.00
   -1   18   71      7.23      0.00
  -18   19   71      6.53      0.00
  -15   19   71     11.99      0.00
  -12   19   71    -12.66      0.00
   -9   19   71      5.54      0.00
   -6   19   71     -1.93      0.00
   -3   19   71      6.57      0.00
  -17   20   71    -19.05      0.00
  -14   20   71    -10.79      0.00
  -11   20   71     -3.87      0.00
   -8   20   71     -4.40      0.00
   -5   20   71      3.57      0.00
   -2   20   71     -7.87      0.00
  -19   21   71     -6.56      0.00
  -16   21   71     -3.65      0.00
  -13   21   71     21.34      0.00
  -10   21   71      7.28      0.00
   -7   21   71     -9.80      0.00
   -4   21   71     17.34      0.00
   -1   21   71      8.15      0.00
  -21   22   71     -6.46      0.00
  -18   22   71      1.60      0.00
  -15   22   71    -26.70      0.00
  -12   22   71     -2.42      0.00
   -9   22   71     -6.73      0.00
   -6   22   71    -18.17      0.00
   -3   22   71      6.42      0.00
  -20   23   71     -1.78      0.00
  -17   23   71    -11.99      0.00
  -14   23   71      3.66      0.00
  -11   23   71     23.67      0.00
   -8   23   71    -15.94      0.00
   -5   23   71     22.15      0.00
   -2   23   71     13.59      0.00
  -22   24   71    -16.54      0.00
  -19   24   71     -9.12      0.00
  -16   24   71     -1.92      0.00
  -13   24   71     16.11      0.00
  -10   24   71      1.88      0.00
   -7   24   71     14.89      0.00
   -4   24   71     -1.47      0.00
   -1   24   71    -37.15      0.00
  -24   25   71     10.56      0.00
  -21   25   71     -0.67      0.00
  -18   25   71      4.27      0.00
  -15   25   71      4.62      0.00
  -12   25   71    -22.85      0.00
   -9   25   71      4.49      0.00
   -6   25   71     -0.96      0.00
   -3   25   71    -10.29      0.00
  -23   26   71    -25.94      0.00
  -20   26   71     14.21      0.00
  -17   26   71     12.94      0.00
  -14   26   71     -7.66      0.00
  -11   26   71    -10.02      0.00
   -8   26   71      6.39      0.00
   -5   26   71     17.62      0.00
   -2   26   71      9.07      0.00
  -25   27   71    -12.52      0.00
  -22   27   71     -3.11      0.00
  -19   27   71      6.27      0.00
  -16   27   71     11.82      0.00
  -13   27   71     27.72      0.00
  -10   27   71    -24.42      0.00
   -7   27   71     -6.41      0.00
   -4   27   71      2.06      0.00
   -1   27   71    -10.84      0.00
  -27   28   71      5.73      0.00
  -24   28   71     -6.12      0.00
  -21   28   71    -13.27      0.00
  -18   28   71    -16.38      0.00
  -15   28   71     -5.00      0.00
  -12   28   71     14.36      0.00
   -9   28   71     -2.67      0.00
   -6   28   71     -3.02      0.00
   -3   28   71    -13.81      0.00
  -26   29   71     17.49      0.00
  -23   29   71      5.95      0.00
  -20   29   71     20.40      0.00
  -17   29   71      7.59      0.00
  -14   29   71     -7.64      0.00
  -11   29   71     19.25      0.00
   -8   29   71    -10.12      0.00
   -5   29   71     -4.22      0.00
   -2   29   71      2.00      0.00
  -28   30   71    -21.84      0.00
  -25   30   71    -19.43      0.00
  -22   30   71      6.98      0.00
  -19   30   71     13.11      0.00
  -16   30   71     -8.24      0.00
  -13   30   71    -22.66      0.00
  -10   30   71    -45.57      0.00
   -7   30   71     10.32      0.00
   -4   30   71    -15.80      0.00
   -1   30   71     -7.50      0.00
  -27   31   71     22.75      0.00
  -24   31   71      2.07      0.00
  -21   31   71      4.40      0.00
  -18   31   71     -7.02      0.00
  -15   31   71     20.98      0.00
  -12   31   71    -23.29      0.00
   -9   31   71      9.46      0.00
   -6   31   71    -14.66      0.00
   -3   31   71      3.31      0.00
  -26   32   71     19.35      0.00
  -23   32   71      7.85      0.00
  -20   32   71     16.99      0.00
  -17   32   71     -8.41      0.00
  -14   32   71      0.29      0.00
  -11   32   71    -31.32      0.00
   -8   32   71    -18.23      0.00
   -5   32   71      8.46      0.00
  -25   33   71    -17.94      0.00
  -22   33   71    -41.46      0.00
  -19   33   71     17.77      0.00
  -16   33   71     -1.56      0.00
  -13   33   71      6.27      0.00
  -10   33   71      1.32      0.00
   -7   33   71      3.07      0.00
  -27   34   71      2.93      0.00
  -24   34   71     -5.51      0.00
  -21   34   71     -8.47      0.00
  -18   34   71    -16.34      0.00
  -15   34   71      0.53      0.00
  -12   34   71      2.60      0.00
   -9   34   71     -2.25      0.00
  -20   35   71    -15.51      0.00
  -11   35   71      8.12      0.00
    0    0   72    -62.53      0.00
   -1    2   72      2.87      0.00
   -3    3   72    -31.56      0.00
    0    3   72    -16.62      0.00
   -2    4   72     40.88      0.00
   -4    5   72     -4.16      0.00
   -1    5   72     19.06      0.00
   -6    6   72    -14.14      0.00
   -3    6   72     -0.46      0.00
    0    6   72    -30.98      0.00
   -5    7   72    -12.09      0.00
   -2    7   72     -3.61      0.00
   -7    8   72     -6.63      0.00
   -4    8   72     14.13      0.00
   -1    8   72      0.93      0.00
   -9    9   72    -18.87      0.00
   -6    9   72      0.61      0.00
   -3    9   72    -13.15      0.00
    0    9   72     22.54      0.00
   -8   10   72    -26.53      0.00
   -5   10   72    -13.21      0.00
   -2   10   72    -15.11      0.00
  -10   11   72    -20.05      0.00
   -7   11   72     -2.19      0.00
   -4   11   72    -14.51      0.00
   -1   11   72     -0.08      0.00
  -12   12   72    -19.63      0.00
   -9   12   72      5.23      0.00
   -6   12   72     14.34      0.00
   -3   12   72     -4.07      0.00
    0   12   72     26.98      0.00
  -11   13   72    -32.53      0.00
   -8   13   72    -29.43      0.00
   -5   13   72    -12.71      0.00
   -2   13   72      8.12      0.00
  -13   14   72     -2.72      0.00
  -10   14   72    -10.52      0.00
   -7   14   72     10.49      0.00
   -4   14   72     10.14      0.00
   -1   14   72      1.17      0.00
  -15   15   72     18.45      0.00
  -12   15   72      9.44      0.00
   -9   15   72      7.96      0.00
   -6   15   72     -2.51      0.00
   -3   15   72     15.32      0.00
    0   15   72    -21.41      0.00
  -14   16   72     15.55      0.00
  -11   16   72    -19.37      0.00
   -8   16   72     -4.95      0.00
   -5   16   72     25.67      0.00
   -2   16   72     -5.82      0.00
  -16   17   72      9.99      0.00
  -13   17   72    -15.96      0.00
  -10   17   72    -19.25      0.00
   -7   17   72     18.16      0.00
   -4   17   72    -15.03      0.00
   -1   17   72     -7.22      0.00
  -18   18   72     12.06      0.00
  -15   18   72     -7.52      0.00
  -12   18   72    -18.84      0.00
   -9   18   72    -23.86      0.00
   -6   18   72     21.54      0.00
   -3   18   72    -14.22      0.00
    0   18   72     -7.29      0.00
  -17   19   72     -1.61      0.00
  -14   19   72     24.49      0.00
  -11   19   72     -4.44      0.00
   -8   19   72      7.81      0.00
   -5   19   72     15.39      0.00
   -2   19   72    -24.85      0.00
  -19   20   72     30.32      0.00
  -16   20   72    -24.53      0.00
  -13   20   72      3.15      0.00
  -10   20   72     20.45      0.00
   -7   20   72     21.97      0.00
   -4   20   72     10.79      0.00
   -1   20   72    -11.29      0.00
  -21   21   72     19.76      0.00
  -18   21   72     -3.14      0.00
  -15   21   72     -5.94      0.00
  -12   21   72     -7.90      0.00
   -9   21   72    -12.00      0.00
   -6   21   72    -21.40      0.00
   -3   21   72     16.25      0.00
    0   21   72      2.81      0.00
  -20   22   72     -4.26      0.00
  -17   22   72     13.92      0.00
  -14   22   72      4.46      0.00
  -11   22   72    -22.66      0.00
   -8   22   72     -5.27      0.00
   -5   22   72     12.36      0.00
   -2   22   72     23.52      0.00
  -22   23   72     38.80      0.00
  -19   23   72     -4.44      0.00
  -16   23   72     -6.68      0.00
  -13   23   72    -18.94      0.00
  -10   23   72     -7.56      0.00
   -7   23   72      4.58      0.00
   -4   23   72    -15.86      0.00
   -1   23   72     12.24      0.00
  -24   24   72     -1.91      0.00
  -21   24   72     32.69      0.00
  -18   24   72     -9.32      0.00
  -15   24   72    -16.33      0.00
  -12   24   72    -19.89      0.00
   -9   24   72      0.22      0.00
   -6   24   72     -4.49      0.00
   -3   24   72     24.61      0.00
    0   24   72     30.32      0.00
  -23   25   72     -6.88      0.00
  -20   25   72     -8.27      0.00
  -17   25   72    -14.28      0.00
  -14   25   72     -3.03      0.00
  -11   25   72    -20.77      0.00
   -8   25   72     12.28      0.00
   -5   25   72     22.70      0.00
   -2   25   72    -14.83      0.00
  -25   26   72     28.76      0.00
  -22   26   72     -1.22      0.00
  -19   26   72     -2.28      0.00
  -16   26   72     -9.01      0.00
  -13   26   72    -11.76      0.00
  -10   26   72      2.38      0.00
   -7   26   72     -7.43      0.00
   -4   26   72     11.26      0.00
   -1   26   72    -19.57      0.00
  -27   27   72     26.51      0.00
  -24   27   72    -10.04      0.00
  -21   27   72     -8.39      0.00
  -18   27   72    -40.19      0.00
  -15   27   72    -25.29      0.00
  -12   27   72     16.96      0.00
   -9   27   72     21.47      0.00
   -6   27   72      9.96      0.00
   -3   27   72     -2.72      0.00
    0   27   72      6.20      0.00
  -26   28   72     16.39      0.00
  -23   28   72     13.81      0.00
  -20   28   72     -2.04      0.00
  -17   28   72    -11.41      0.00
  -14   28   72    -32.63      0.00
  -11   28   72    -10.06      0.00
   -8   28   72     31.63      0.00
   -5   28   72     -0.37      0.00
   -2   28   72     13.04      0.00
  -28   29   72    -11.14      0.00
  -25   29   72     11.47      0.00
  -22   29   72    -14.73      0.00
  -19   29   72     12.17      0.00
  -16   29   72     14.06      0.00
  -13   29   72    -13.63      0.00
  -10   29   72      7.00      0.00
   -7   29   72     -2.98      0.00
   -4   29   72      4.15      0.00
   -1   29   72    -21.84      0.00
  -27   30   72     -6.01      0.00
  -24   30   72     -4.79      0.00
  -21   30   72     11.01      0.00
  -18   30   72      5.22      0.00
  -15   30   72    -33.39      0.00
  -12   30   72    -13.19      0.00
   -9   30   72      4.64      0.00
   -6   30   72      1.77      0.00
   -3   30   72     22.93      0.00
  -26   31   72    -30.04      0.00
  -23   31   72     17.55      0.00
  -20   31   72     -1.81      0.00
  -17   31   72      1.15      0.00
  -14   31   72     27.71      0.00
  -11   31   72     23.25      0.00
   -8   31   72     -3.75      0.00
   -5   31   72     -1.41      0.00
  -25   32   72    -60.94      0.00
  -22   32   72    -18.62      0.00
  -19   32   72    -21.89      0.00
  -16   32   72     44.29      0.00
  -13   32   72      2.97      0.00
  -10   32   72     -8.64      0.00
   -7   32   72     10.69      0.00
   -4   32   72     17.21      0.00
  -27   33   72     12.12      0.00
  -24   33   72     14.13      0.00
  -21   33   72     -2.71      0.00
  -18   33   72    -11.01      0.00
  -15   33   72     13.16      0.00
  -12   33   72     22.03      0.00
   -9   33   72      3.86      0.00
   -6   33   72      5.03      0.00
  -26   34   72    -18.32      0.00
  -23   34   72     22.87      0.00
  -20   34   72    -15.24      0.00
  -17   34   72      9.06      0.00
  -14   34   72     15.28      0.00
  -11   34   72     36.47      0.00
   -2    3   73     -7.01      0.00
   -1    4   73     38.57      0.00
   -3    5   73     21.10      0.00
   -5    6   73    -24.83      0.00
   -2    6   73     -9.94      0.00
   -4    7   73     -9.05      0.00
   -1    7   73     10.90      0.00
   -6    8   73     -7.75      0.00
   -3    8   73      0.06      0.00
   -8    9   73      3.16      0.00
   -5    9   73    -34.55      0.00
   -2    9   73    -16.08      0.00
   -7   10   73      3.62      0.00
   -4   10   73    -13.13      0.00
   -1   10   73     17.87      0.00
   -9   11   73      5.71      0.00
   -6   11   73     -4.32      0.00
   -3   11   73      1.05      0.00
  -11   12   73      2.10      0.00
   -8   12   73     26.01      0.00
   -5   12   73      2.25      0.00
   -2   12   73     -0.32      0.00
  -10   13   73     14.27      0.00
   -7   13   73     -1.37      0.00
   -4   13   73      0.36      0.00
   -1   13   73      5.77      0.00
  -12   14   73     -7.10      0.00
   -9   14   73     20.87      0.00
   -6   14   73      3.80      0.00
   -3   14   73    -19.41      0.00
  -14   15   73     -8.06      0.00
  -11   15   73     -2.25      0.00
   -8   15   73      4.58      0.00
   -5   15   73      2.21      0.00
   -2   15   73    -11.19      0.00
  -13   16   73    -36.06      0.00
  -10   16   73      1.21      0.00
   -7   16   73     -7.82      0.00
   -4   16   73    -19.13      0.00
   -1   16   73     -3.10      0.00
  -15   17   73     17.08      0.00
  -12   17   73    -15.02      0.00
   -9   17   73     13.63      0.00
   -6   17   73      5.19      0.00
   -3   17   73     -9.61      0.00
  -17   18   73     12.29      0.00
  -14   18   73     21.24      0.00
  -11   18   73     12.56      0.00
   -8   18   73     20.38      0.00
   -5   18   73     17.96      0.00
   -2   18   73    -13.28      0.00
  -16   19   73      1.44      0.00
  -13   19   73      0.53      0.00
  -10   19   73     -2.00      0.00
   -7   19   73     32.61      0.00
   -4   19   73      3.92      0.00
   -1   19   73     -4.27      0.00
  -18   20   73     -8.16      0.00
  -15   20   73     -1.57      0.00
  -12   20   73     -0.56      0.00
   -9   20   73     -1.12      0.00
   -6   20   73     14.56      0.00
   -3   20   73      2.49      0.00
  -20   21   73     29.25      0.00
  -17   21   73    -25.26      0.00
  -14   21   73     -6.50      0.00
  -11   21   73      1.83      0.00
   -8   21   73    -10.41      0.00
   -5   21   73      9.49      0.00
   -2   21   73     13.55      0.00
  -19   22   73    -12.43      0.00
  -16   22   73      3.05      0.00
  -13   22   73      6.51      0.00
  -10   22   73     16.49      0.00
   -7   22   73     -1.03      0.00
   -4   22   73     -5.53      0.00
   -1   22   73    -17.70      0.00
  -21   23   73    -18.42      0.00
  -18   23   73     -4.74      0.00
  -15   23   73      5.22      0.00
  -12   23   73     37.86      0.00
   -9   23   73     33.85      0.00
   -6   23   73      8.76      0.00
   -3   23   73    -11.27      0.00
  -23   24   73     -3.59      0.00
  -20   24   73    -13.82      0.00
  -17   24   73     -2.61      0.00
  -14   24   73     -1.42      0.00
  -11   24   73      8.68      0.00
   -8   24   73    -15.11      0.00
   -5   24   73      9.24      0.00
   -2   24   73     10.04      0.00
  -22   25   73     21.40      0.00
  -19   25   73    -25.96      0.00
  -16   25   73      2.97      0.00
  -13   25   73     15.43      0.00
  -10   25   73     -1.12      0.00
   -7   25   73      5.82      0.00
   -4   25   73    -12.63      0.00
   -1   25   73      3.83      0.00
  -24   26   73      7.66      0.00
  -21   26   73      1.41      0.00
  -18   26   73     -5.23      0.00
  -15   26   73    -16.13      0.00
  -12   26   73      2.59      0.00
   -9   26   73     22.72      0.00
   -6   26   73     -8.32      0.00
   -3   26   73    -15.79      0.00
  -26   27   73      3.96      0.00
  -23   27   73    -33.91      0.00
  -20   27   73      2.77      0.00
  -17   27   73    -16.84      0.00
  -14   27   73    -18.70      0.00
  -11   27   73     27.85      0.00
   -8   27   73    -12.85      0.00
   -5   27   73     -1.74      0.00
   -2   27   73     -1.19      0.00
  -25   28   73    -21.76      0.00
  -22   28   73    -35.45      0.00
  -19   28   73    -17.41      0.00
  -16   28   73    -23.89      0.00
  -13   28   73     -7.87      0.00
  -10   28   73     21.16      0.00
   -7   28   73      9.22      0.00
   -4   28   73     -0.90      0.00
   -1   28   73    -20.45      0.00
  -27   29   73    -14.63      0.00
  -24   29   73     -2.93      0.00
  -21   29   73     12.08      0.00
  -18   29   73    -25.71      0.00
  -15   29   73     18.66      0.00
  -12   29   73     -9.41      0.00
   -9   29   73      7.20      0.00
   -6   29   73     -6.34      0.00
   -3   29   73    -40.13      0.00
  -26   30   73    -33.65      0.00
  -23   30   73    -23.15      0.00
  -20   30   73     25.82      0.00
  -17   30   73    -11.04      0.00
  -14   30   73    -20.32      0.00
  -11   30   73     -6.12      0.00
   -8   30   73     14.21      0.00
   -5   30   73     -4.23      0.00
   -2   30   73     10.83      0.00
  -25   31   73      9.91      0.00
  -22   31   73    -45.15      0.00
  -19   31   73    -25.14      0.00
  -16   31   73    -45.85      0.00
  -13   31   73     20.48      0.00
  -10   31   73    -15.89      0.00
   -7   31   73      2.52      0.00
   -4   31   73     23.75      0.00
  -27   32   73     33.01      0.00
  -24   32   73     22.18      0.00
  -21   32   73      0.09      0.00
  -18   32   73     11.31      0.00
  -15   32   73      8.34      0.00
  -12   32   73     13.40      0.00
   -9   32   73    -21.40      0.00
   -6   32   73    -19.33      0.00
  -26   33   73    -16.74      0.00
  -23   33   73     12.19      0.00
  -20   33   73      3.45      0.00
  -17   33   73    -17.22      0.00
  -14   33   73    -27.02      0.00
  -11   33   73     30.22      0.00
  -22   34   73      2.58      0.00
  -19   34   73    -28.71      0.00
  -13   34   73     -9.81      0.00
  -10   34   73     -1.35      0.00
    0    1   74    -44.57      0.00
   -2    2   74     15.19      0.00
   -1    3   74     10.89      0.00
   -3    4   74      8.58      0.00
    0    4   74      5.48      0.00
   -5    5   74     12.08      0.00
   -2    5   74     27.74      0.00
   -4    6   74     -8.84      0.00
   -1    6   74    -38.10      0.00
   -6    7   74    -34.55      0.00
   -3    7   74     -5.03      0.00
    0    7   74     -0.83      0.00
   -8    8   74      7.19      0.00
   -5    8   74     29.20      0.00
   -2    8   74     -0.43      0.00
   -7    9   74    -23.71      0.00
   -4    9   74    -25.57      0.00
   -1    9   74     12.39      0.00
   -9   10   74     17.91      0.00
   -6   10   74     16.83      0.00
   -3   10   74    -17.31      0.00
    0   10   74     27.93      0.00
  -11   11   74      1.87      0.00
   -8   11   74     10.98      0.00
   -5   11   74     10.60      0.00
   -2   11   74     27.99      0.00
  -10   12   74      7.15      0.00
   -7   12   74     12.46      0.00
   -4   12   74      0.21      0.00
   -1   12   74     11.65      0.00
  -12   13   74      3.43      0.00
   -9   13   74     -1.11      0.00
   -6   13   74     10.03      0.00
   -3   13   74     12.44      0.00
    0   13   74     30.44      0.00
  -14   14   74     18.07      0.00
  -11   14   74     10.47      0.00
   -8   14   74    -12.24      0.00
   -5   14   74      6.23      0.00
   -2   14   74     11.99      0.00
  -13   15   74      0.32      0.00
  -10   15   74      6.90      0.00
   -7   15   74     -7.45      0.00
   -4   15   74     -8.63      0.00
   -1   15   74     15.60      0.00
  -15   16   74      1.47      0.00
  -12   16   74    -10.36      0.00
   -9   16   74      7.39      0.00
   -6   16   74     19.60      0.00
   -3   16   74    -11.02      0.00
    0   16   74     -2.15      0.00
  -17   17   74     17.67      0.00
  -14   17   74     23.16      0.00
  -11   17   74      9.30      0.00
   -8   17   74     28.80      0.00
   -5   17   74     19.62      0.00
   -2   17   74     11.89      0.00
  -16   18   74     -4.68      0.00
  -13   18   74      0.55      0.00
  -10   18   74      8.86      0.00
   -7   18   74      0.27      0.00
   -4   18   74      8.97      0.00
   -1   18   74     -6.69      0.00
  -18   19   74    -30.08      0.00
  -15   19   74    -23.72      0.00
  -12   19   74    -11.15      0.00
   -9   19   74      1.77      0.00
   -6   19   74     -7.07      0.00
   -3   19   74     31.54      0.00
    0   19   74     23.41      0.00
  -20   20   74    -20.42      0.00
  -17   20   74     14.64      0.00
  -14   20   74      3.87      0.00
  -11   20   74    -15.28      0.00
   -8   20   74     21.92      0.00
   -5   20   74     -2.45      0.00
   -2   20   74      9.32      0.00
  -19   21   74    -25.51      0.00
  -16   21   74     -4.39      0.00
  -13   21   74     18.98      0.00
  -10   21   74      4.05      0.00
   -7   21   74      5.25      0.00
   -4   21   74     -0.90      0.00
   -1   21   74     -0.35      0.00
  -21   22   74     14.74      0.00
  -18   22   74    -34.24      0.00
  -15   22   74     18.19      0.00
  -12   22   74     -8.43      0.00
   -9   22   74    -18.06      0.00
   -6   22   74     23.61      0.00
   -3   22   74     15.27      0.00
    0   22   74     18.56      0.00
  -23   23   74    -38.26      0.00
  -20   23   74     -4.51      0.00
  -17   23   74     -6.29      0.00
  -14   23   74     12.58      0.00
  -11   23   74    -11.12      0.00
   -8   23   74      1.92      0.00
   -5   23   74     10.01      0.00
   -2   23   74     -3.01      0.00
  -22   24   74     26.53      0.00
  -19   24   74      6.26      0.00
  -16   24   74    -15.91      0.00
  -13   24   74      9.10      0.00
  -10   24   74    -23.05      0.00
   -7   24   74     -2.65      0.00
   -4   24   74     25.79      0.00
   -1   24   74     -9.94      0.00
  -24   25   74     -6.81      0.00
  -21   25   74     -2.72      0.00
  -18   25   74     -2.32      0.00
  -15   25   74      9.64      0.00
  -12   25   74     17.82      0.00
   -9   25   74     -5.05      0.00
   -6   25   74    -13.34      0.00
   -3   25   74    -12.01      0.00
    0   25   74    -16.26      0.00
  -26   26   74     32.69      0.00
  -23   26   74    -32.69      0.00
  -20   26   74    -58.12      0.00
  -17   26   74     24.80      0.00
  -14   26   74     20.92      0.00
  -11   26   74      3.55      0.00
   -8   26   74     16.74      0.00
   -5   26   74    -10.06      0.00
   -2   26   74      5.95      0.00
  -25   27   74     -5.09      0.00
  -22   27   74     -7.65      0.00
  -19   27   74    -23.92      0.00
  -16   27   74     25.36      0.00
  -13   27   74    -27.06      0.00
  -10   27   74     -6.22      0.00
   -7   27   74      5.58      0.00
   -4   27   74    -23.50      0.00
   -1   27   74    -31.02      0.00
  -27   28   74    -11.70      0.00
  -24   28   74     36.21      0.00
  -21   28   74     42.54      0.00
  -18   28   74      9.57      0.00
  -15   28   74      0.48      0.00
  -12   28   74     -8.83      0.00
   -9   28   74     -3.32      0.00
   -6   28   74     13.61      0.00
   -3   28   74    -14.83      0.00
    0   28   74      7.12      0.00
  -26   29   74     -2.67      0.00
  -23   29   74     -8.51      0.00
  -20   29   74    -13.00      0.00
  -17   29   74     -6.41      0.00
  -14   29   74     -5.05      0.00
  -11   29   74    -27.13      0.00
   -8   29   74     15.20      0.00
   -5   29   74    -26.95      0.00
   -2   29   74    -11.90      0.00
  -25   30   74     37.67      0.00
  -22   30   74     42.04      0.00
  -19   30   74      4.26      0.00
  -16   30   74     20.22      0.00
  -13   30   74    -13.95      0.00
  -10   30   74    -15.63      0.00
   -7   30   74    -29.97      0.00
   -4   30   74     12.66      0.00
  -27   31   74      9.57      0.00
  -24   31   74     11.54      0.00
  -21   31   74     18.29      0.00
  -18   31   74    -24.24      0.00
  -15   31   74      2.90      0.00
  -12   31   74     17.96      0.00
   -9   31   74      7.83      0.00
   -6   31   74     -2.72      0.00
  -26   32   74    -22.15      0.00
  -23   32   74     18.34      0.00
  -20   32   74      6.24      0.00
  -17   32   74     19.88      0.00
  -14   32   74      3.84      0.00
  -11   32   74    -17.65      0.00
   -8   32   74     -2.90      0.00
   -5   32   74    -11.51      0.00
  -25   33   74     -3.63      0.00
  -22   33   74     31.84      0.00
  -19   33   74     -4.22      0.00
  -16   33   74     26.97      0.00
  -13   33   74      3.14      0.00
   -7   33   74      8.65      0.00
  -21   34   74    -28.67      0.00
  -12   34   74      1.40      0.00
   -1    2   75    -34.82      0.00
   -2    4   75     21.44      0.00
   -4    5   75    -37.06      0.00
   -1    5   75     -5.51      0.00
   -3    6   75      9.69      0.00
   -5    7   75     -7.52      0.00
   -2    7   75     28.54      0.00
   -7    8   75     19.24      0.00
   -4    8   75     -1.27      0.00
   -1    8   75     -8.55      0.00
   -6    9   75     -8.06      0.00
   -3    9   75     -5.49      0.00
   -8   10   75    -18.50      0.00
   -5   10   75      8.18      0.00
   -2   10   75     16.34      0.00
  -10   11   75      5.17      0.00
   -7   11   75     22.79      0.00
   -4   11   75     -7.13      0.00
   -1   11   75     12.53      0.00
   -9   12   75     -3.29      0.00
   -6   12   75     15.82      0.00
   -3   12   75     -4.15      0.00
  -11   13   75      2.96      0.00
   -8   13   75      1.95      0.00
   -5   13   75    -16.06      0.00
   -2   13   75     13.90      0.00
  -13   14   75    -20.35      0.00
  -10   14   75      1.80      0.00
   -7   14   75     -8.82      0.00
   -4   14   75     -0.03      0.00
   -1   14   75      5.31      0.00
  -12   15   75    -28.29      0.00
   -9   15   75      0.57      0.00
   -6   15   75    -10.45      0.00
   -3   15   75     -5.70      0.00
  -14   16   75      7.21      0.00
  -11   16   75      1.90      0.00
   -8   16   75     -5.82      0.00
   -5   16   75      7.24      0.00
   -2   16   75      7.87      0.00
  -16   17   75      2.00      0.00
  -13   17   75      6.37      0.00
  -10   17   75     15.31      0.00
   -7   17   75      1.30      0.00
   -4   17   75    -14.37      0.00
   -1   17   75     16.57      0.00
  -15   18   75      2.46      0.00
  -12   18   75     -3.79      0.00
   -9   18   75     -8.81      0.00
   -6   18   75      4.09      0.00
   -3   18   75      9.07      0.00
  -17   19   75    -13.93      0.00
  -14   19   75      2.43      0.00
  -11   19   75     -2.57      0.00
   -8   19   75     -5.33      0.00
   -5   19   75      0.40      0.00
   -2   19   75    -25.94      0.00
  -19   20   75     15.40      0.00
  -16   20   75     15.74      0.00
  -13   20   75     -6.81      0.00
  -10   20   75      9.68      0.00
   -7   20   75     -2.49      0.00
   -4   20   75     -4.05      0.00
   -1   20   75     -8.20      0.00
  -18   21   75     11.29      0.00
  -15   21   75    -12.84      0.00
  -12   21   75    -18.25      0.00
   -9   21   75    -16.69      0.00
   -6   21   75    -15.73      0.00
   -3   21   75    -21.20      0.00
  -20   22   75     -1.07      0.00
  -17   22   75      5.06      0.00
  -14   22   75     11.13      0.00
  -11   22   75    -17.88      0.00
   -8   22   75     -3.22      0.00
   -5   22   75     27.56      0.00
   -2   22   75     10.66      0.00
  -22   23   75     15.79      0.00
  -19   23   75      9.39      0.00
  -16   23   75     21.92      0.00
  -13   23   75    -21.70      0.00
  -10   23   75     -0.63      0.00
   -7   23   75    -20.44      0.00
   -4   23   75      7.82      0.00
   -1   23   75     -2.79      0.00
  -21   24   75     13.82      0.00
  -18   24   75     15.02      0.00
  -15   24   75     21.17      0.00
  -12   24   75     30.62      0.00
   -9   24   75     -7.48      0.00
   -6   24   75      0.13      0.00
   -3   24   75      7.97      0.00
  -23   25   75     19.14      0.00
  -20   25   75    -20.91      0.00
  -17   25   75      0.25      0.00
  -14   25   75     -1.73      0.00
  -11   25   75    -23.96      0.00
   -8   25   75    -13.62      0.00
   -5   25   75     -5.13      0.00
   -2   25   75     21.87      0.00
  -25   26   75     10.05      0.00
  -22   26   75     41.55      0.00
  -19   26   75     40.95      0.00
  -16   26   75     30.09      0.00
  -13   26   75      9.98      0.00
  -10   26   75    -10.51      0.00
   -7   26   75     10.02      0.00
   -4   26   75     24.39      0.00
   -1   26   75     22.07      0.00
  -24   27   75    -26.93      0.00
  -21   27   75    -14.15      0.00
  -18   27   75     21.52      0.00
  -15   27   75    -14.88      0.00
  -12   27   75    -17.56      0.00
   -9   27   75     32.33      0.00
   -6   27   75      5.81      0.00
   -3   27   75      9.28      0.00
  -26   28   75     26.84      0.00
  -23   28   75     25.11      0.00
  -20   28   75     14.77      0.00
  -17   28   75      2.68      0.00
  -14   28   75      0.54      0.00
  -11   28   75     12.28      0.00
   -8   28   75     11.75      0.00
   -5   28   75     -4.56      0.00
   -2   28   75      4.12      0.00
  -25   29   75     -2.83      0.00
  -22   29   75    -22.00      0.00
  -19   29   75      5.87      0.00
  -16   29   75      6.81      0.00
  -13   29   75     21.17      0.00
  -10   29   75     16.42      0.00
   -7   29   75     24.23      0.00
   -4   29   75     32.26      0.00
   -1   29   75     26.13      0.00
  -27   30   75    -54.01      0.00
  -24   30   75      8.63      0.00
  -21   30   75      3.71      0.00
  -18   30   75     28.92      0.00
  -15   30   75     -8.25      0.00
  -12   30   75     16.37      0.00
   -9   30   75     32.26      0.00
   -6   30   75     41.37      0.00
   -3   30   75      3.70      0.00
  -26   31   75    -11.57      0.00
  -23   31   75      3.51      0.00
  -20   31   75      8.42      0.00
  -17   31   75     27.97      0.00
  -14   31   75    -29.62      0.00
  -11   31   75     17.38      0.00
   -8   31   75     37.74      0.00
   -5   31   75      0.01      0.00
  -25   32   75      4.35      0.00
  -22   32   75    -16.56      0.00
  -19   32   75    -13.65      0.00
  -16   32   75     10.73      0.00
  -13   32   75      2.35      0.00
  -10   32   75     34.22      0.00
   -7   32   75    -14.83      0.00
  -24   33   75    -18.40      0.00
  -21   33   75      0.19      0.00
  -18   33   75    -16.91      0.00
  -12   33   75     12.01      0.00
   -9   33   75     20.84      0.00
   -1    1   76     20.25      0.00
    0    2   76     11.25      0.00
   -2    3   76     14.13      0.00
   -4    4   76     29.77      0.00
   -1    4   76     12.27      0.00
   -3    5   76      1.50      0.00
    0    5   76    -16.75      0.00
   -5    6   76    -15.68      0.00
   -2    6   76     21.55      0.00
   -7    7   76     10.48      0.00
   -4    7   76     28.86      0.00
   -1    7   76      2.12      0.00
   -6    8   76    -17.14      0.00
   -3    8   76    -11.90      0.00
    0    8   76      8.21      0.00
   -8    9   76     -3.88      0.00
   -5    9   76     -9.32      0.00
   -2    9   76     11.98      0.00
  -10   10   76     -1.20      0.00
   -7   10   76     20.33      0.00
   -4   10   76     15.09      0.00
   -1   10   76     -3.59      0.00
   -9   11   76     -2.22      0.00
   -6   11   76     13.28      0.00
   -3   11   76    -23.91      0.00
    0   11   76    -26.11      0.00
  -11   12   76      1.44      0.00
   -8   12   76    -10.15      0.00
   -5   12   76      6.47      0.00
   -2   12   76    -14.36      0.00
  -13   13   76    -31.78      0.00
  -10   13   76     -9.83      0.00
   -7   13   76      5.97      0.00
   -4   13   76      7.71      0.00
   -1   13   76     -6.41      0.00
  -12   14   76    -16.12      0.00
   -9   14   76     -9.17      0.00
   -6   14   76     -5.92      0.00
   -3   14   76    -19.94      0.00
    0   14   76    -10.10      0.00
  -14   15   76     17.60      0.00
  -11   15   76      0.12      0.00
   -8   15   76      5.56      0.00
   -5   15   76     -7.03      0.00
   -2   15   76      5.67      0.00
  -16   16   76      6.76      0.00
  -13   16   76    -12.05      0.00
  -10   16   76      7.58      0.00
   -7   16   76      5.38      0.00
   -4   16   76    -14.93      0.00
   -1   16   76     -3.41      0.00
  -15   17   76      6.14      0.00
  -12   17   76     -8.58      0.00
   -9   17   76      7.98      0.00
   -6   17   76     -2.57      0.00
   -3   17   76      3.64      0.00
    0   17   76     26.81      0.00
  -17   18   76      4.81      0.00
  -14   18   76     -6.61      0.00
  -11   18   76     -1.39      0.00
   -8   18   76      2.25      0.00
   -5   18   76    -17.35      0.00
   -2   18   76     24.70      0.00
  -19   19   76      2.00      0.00
  -16   19   76      5.55      0.00
  -13   19   76     -6.93      0.00
  -10   19   76    -22.64      0.00
   -7   19   76      4.54      0.00
   -4   19   76    -13.65      0.00
   -1   19   76    -13.27      0.00
  -18   20   76      5.90      0.00
  -15   20   76      6.26      0.00
  -12   20   76     -0.83      0.00
   -9   20   76     -3.10      0.00
   -6   20   76     -7.00      0.00
   -3   20   76      7.56      0.00
    0   20   76      7.04      0.00
  -20   21   76     21.94      0.00
  -17   21   76      3.03      0.00
  -14   21   76     16.33      0.00
  -11   21   76     -4.75      0.00
   -8   21   76     -0.51      0.00
   -5   21   76      0.78      0.00
   -2   21   76     -1.24      0.00
  -22   22   76      8.31      0.00
  -19   22   76     23.23      0.00
  -16   22   76      0.63      0.00
  -13   22   76     19.65      0.00
  -10   22   76      5.60      0.00
   -7   22   76     -5.76      0.00
   -4   22   76     12.81      0.00
   -1   22   76    -29.72      0.00
  -21   23   76     -8.09      0.00
  -18   23   76     -2.75      0.00
  -15   23   76     -2.63      0.00
  -12   23   76     -1.35      0.00
   -9   23   76     -1.06      0.00
   -6   23   76     -9.78      0.00
   -3   23   76    -22.49      0.00
    0   23   76     17.43      0.00
  -23   24   76     27.82      0.00
  -20   24   76     20.69      0.00
  -17   24   76     10.07      0.00
  -14   24   76     13.54      0.00
  -11   24   76     -9.12      0.00
   -8   24   76    -22.80      0.00
   -5   24   76    -29.62      0.00
   -2   24   76    -13.43      0.00
  -25   25   76    -84.57      0.00
  -22   25   76    -12.47      0.00
  -19   25   76     -9.99      0.00
  -16   25   76     46.99      0.00
  -13   25   76      6.39      0.00
  -10   25   76     10.81      0.00
   -7   25   76    -11.78      0.00
   -4   25   76     12.99      0.00
   -1   25   76     -8.88      0.00
  -24   26   76     21.34      0.00
  -21   26   76      8.63      0.00
  -18   26   76     -2.36      0.00
  -15   26   76     14.86      0.00
  -12   26   76     -0.44      0.00
   -9   26   76     -1.90      0.00
   -6   26   76      9.26      0.00
   -3   26   76    -16.06      0.00
    0   26   76    -21.79      0.00
  -26   27   76    -20.66      0.00
  -23   27   76    -26.95      0.00
  -20   27   76    -35.57      0.00
  -17   27   76    -35.97      0.00
  -14   27   76     15.74      0.00
  -11   27   76    -13.10      0.00
   -8   27   76    -11.37      0.00
   -5   27   76     -6.63      0.00
   -2   27   76      8.25      0.00
  -25   28   76      1.33      0.00
  -22   28   76    -21.09      0.00
  -19   28   76      8.04      0.00
  -16   28   76    -10.66      0.00
  -13   28   76     26.79      0.00
  -10   28   76     -9.67      0.00
   -7   28   76     -4.92      0.00
   -4   28   76     19.75      0.00
   -1   28   76      6.71      0.00
  -24   29   76    -18.74      0.00
  -21   29   76     -6.80      0.00
  -18   29   76      9.77      0.00
  -15   29   76      1.77      0.00
  -12   29   76    -10.73      0.00
   -9   29   76      0.62      0.00
   -6   29   76      3.51      0.00
   -3   29   76     41.22      0.00
  -26   30   76     28.29      0.00
  -23   30   76     -3.41      0.00
  -20   30   76    -42.42      0.00
  -17   30   76    -10.99      0.00
  -14   30   76      5.57      0.00
  -11   30   76    -33.78      0.00
   -8   30   76     -7.71      0.00
   -5   30   76      6.47      0.00
  -25   31   76      8.79      0.00
  -22   31   76    -22.81      0.00
  -19   31   76    -33.29      0.00
  -16   31   76     -0.02      0.00
  -13   31   76      6.57      0.00
  -10   31   76     -5.59      0.00
   -7   31   76    -17.49      0.00
  -24   32   76     13.74      0.00
  -18   32   76     -9.06      0.00
  -15   32   76     -1.00      0.00
  -12   32   76      0.47      0.00
   -9   32   76    -30.67      0.00
   -6   32   76     16.46      0.00
  -23   33   76      3.89      0.00
  -20   33   76    -22.64      0.00
  -11   33   76     -5.83      0.00
   -1    3   77      1.78      0.00
   -3    4   77      5.11      0.00
   -2    5   77     19.02      0.00
   -4    6   77     -0.92      0.00
   -1    6   77      3.23      0.00
   -6    7   77     -7.37      0.00
   -3    7   77      0.59      0.00
   -5    8   77    -17.74      0.00
   -2    8   77     -1.88      0.00
   -7    9   77    -13.74      0.00
   -4    9   77     -1.07      0.00
   -1    9   77     10.71      0.00
   -9   10   77     -1.12      0.00
   -6   10   77     13.93      0.00
   -3   10   77     -5.78      0.00
   -8   11   77    -19.39      0.00
   -5   11   77    -12.35      0.00
   -2   11   77     -2.68      0.00
  -10   12   77     -5.65      0.00
   -7   12   77    -25.99      0.00
   -4   12   77     -4.28      0.00
   -1   12   77     -0.21      0.00
  -12   13   77      9.56      0.00
   -9   13   77     11.57      0.00
   -6   13   77     14.91      0.00
   -3   13   77     13.89      0.00
  -11   14   77     -0.95      0.00
   -8   14   77    -15.34      0.00
   -5   14   77     -5.98      0.00
   -2   14   77    -11.13      0.00
  -13   15   77    -15.56      0.00
  -10   15   77     -9.41      0.00
   -7   15   77     -6.70      0.00
   -4   15   77      7.82      0.00
   -1   15   77     12.45      0.00
  -15   16   77      6.70      0.00
  -12   16   77    -10.15      0.00
   -9   16   77      0.56      0.00
   -6   16   77     43.31      0.00
   -3   16   77      8.73      0.00
  -14   17   77     -5.29      0.00
  -11   17   77     -0.32      0.00
   -8   17   77     -8.32      0.00
   -5   17   77    -17.72      0.00
   -2   17   77     12.26      0.00
  -16   18   77     -1.51      0.00
  -13   18   77      0.71      0.00
  -10   18   77     28.56      0.00
   -7   18   77      5.67      0.00
   -4   18   77     11.54      0.00
   -1   18   77      2.26      0.00
  -18   19   77    -15.61      0.00
  -15   19   77    -16.74      0.00
  -12   19   77     -1.02      0.00
   -9   19   77     -3.50      0.00
   -6   19   77    -27.26      0.00
   -3   19   77      0.59      0.00
  -17   20   77     21.88      0.00
  -14   20   77     23.12      0.00
  -11   20   77     30.51      0.00
   -8   20   77     20.81      0.00
   -5   20   77     12.55      0.00
   -2   20   77     -6.13      0.00
  -19   21   77    -34.00      0.00
  -16   21   77    -31.01      0.00
  -13   21   77    -16.07      0.00
  -10   21   77     10.57      0.00
   -7   21   77     -1.75      0.00
   -4   21   77      4.43      0.00
   -1   21   77     24.85      0.00
  -21   22   77     22.20      0.00
  -18   22   77    -26.45      0.00
  -15   22   77    -24.46      0.00
  -12   22   77      8.42      0.00
   -9   22   77     47.46      0.00
   -6   22   77     18.26      0.00
   -3   22   77     17.44      0.00
  -20   23   77    -12.48      0.00
  -17   23   77    -19.63      0.00
  -14   23   77     -4.71      0.00
  -11   23   77      6.89      0.00
   -8   23   77     -0.11      0.00
   -5   23   77     -3.63      0.00
   -2   23   77    -17.43      0.00
  -22   24   77    -34.05      0.00
  -19   24   77     17.83      0.00
  -16   24   77     -0.15      0.00
  -13   24   77     -4.51      0.00
  -10   24   77     33.02      0.00
   -7   24   77     32.66      0.00
   -4   24   77     27.39      0.00
   -1   24   77     16.62      0.00
  -24   25   77    -25.32      0.00
  -21   25   77     -1.12      0.00
  -18   25   77    -28.00      0.00
  -15   25   77    -17.97      0.00
  -12   25   77    -10.03      0.00
   -9   25   77     -5.58      0.00
   -6   25   77     45.86      0.00
   -3   25   77     -9.22      0.00
  -23   26   77     15.15      0.00
  -20   26   77     10.86      0.00
  -17   26   77    -12.90      0.00
  -14   26   77     -0.83      0.00
  -11   26   77     11.19      0.00
   -8   26   77     25.13      0.00
   -5   26   77      2.04      0.00
   -2   26   77     11.74      0.00
  -25   27   77     15.79      0.00
  -22   27   77    -20.34      0.00
  -19   27   77    -30.71      0.00
  -16   27   77      0.43      0.00
  -13   27   77    -37.98      0.00
  -10   27   77     17.44      0.00
   -7   27   77     -7.05      0.00
   -4   27   77     -2.92      0.00
   -1   27   77     11.32      0.00
  -24   28   77     10.80      0.00
  -21   28   77      0.76      0.00
  -18   28   77      4.48      0.00
  -15   28   77      6.51      0.00
  -12   28   77     30.23      0.00
   -9   28   77     21.48      0.00
   -6   28   77     27.83      0.00
   -3   28   77      4.45      0.00
  -26   29   77     -7.91      0.00
  -23   29   77      0.58      0.00
  -20   29   77     15.64      0.00
  -17   29   77    -34.93      0.00
  -14   29   77     19.74      0.00
  -11   29   77     11.64      0.00
   -8   29   77     16.53      0.00
   -5   29   77     -9.64      0.00
  -25   30   77     46.26      0.00
  -22   30   77     27.65      0.00
  -19   30   77    -21.75      0.00
  -16   30   77      0.40      0.00
  -13   30   77     -3.20      0.00
  -10   30   77      6.16      0.00
   -7   30   77     18.65      0.00
   -4   30   77      9.85      0.00
  -24   31   77    -19.31      0.00
  -21   31   77     -6.72      0.00
  -18   31   77      2.47      0.00
  -15   31   77      5.05      0.00
  -12   31   77    -12.07      0.00
   -9   31   77     12.33      0.00
   -6   31   77      7.97      0.00
  -23   32   77     11.31      0.00
  -20   32   77     27.73      0.00
  -17   32   77      5.69      0.00
  -14   32   77     11.52      0.00
  -11   32   77     -0.15      0.00
   -8   32   77     19.61      0.00
  -22   33   77    -16.22      0.00
    0    0   78     16.22      0.00
   -1    2   78     -7.65      0.00
   -3    3   78     26.02      0.00
    0    3   78     30.49      0.00
   -2    4   78      9.85      0.00
   -4    5   78      1.11      0.00
   -1    5   78     30.67      0.00
   -6    6   78     14.98      0.00
   -3    6   78     33.44      0.00
    0    6   78     24.44      0.00
   -5    7   78     16.65      0.00
   -2    7   78     20.44      0.00
   -7    8   78     14.48      0.00
   -4    8   78     19.86      0.00
   -1    8   78     22.15      0.00
   -9    9   78     -7.32      0.00
   -6    9   78     17.54      0.00
   -3    9   78      9.31      0.00
    0    9   78      4.21      0.00
   -8   10   78    -13.71      0.00
   -5   10   78     12.17      0.00
   -2   10   78     -4.06      0.00
  -10   11   78    -13.51      0.00
   -7   11   78      3.65      0.00
   -4   11   78    -22.91      0.00
   -1   11   78    -19.23      0.00
  -12   12   78    -20.65      0.00
   -9   12   78    -25.90      0.00
   -6   12   78     14.78      0.00
   -3   12   78      1.97      0.00
    0   12   78      7.24      0.00
  -11   13   78     -8.44      0.00
   -8   13   78     17.68      0.00
   -5   13   78     -0.34      0.00
   -2   13   78    -12.81      0.00
  -13   14   78      5.32      0.00
  -10   14   78     -1.29      0.00
   -7   14   78     15.66      0.00
   -4   14   78     -1.84      0.00
   -1   14   78    -12.93      0.00
  -15   15   78     22.36      0.00
  -12   15   78     -7.06      0.00
   -9   15   78    -38.02      0.00
   -6   15   78     -9.35      0.00
   -3   15   78     19.56      0.00
    0   15   78     -3.70      0.00
  -14   16   78     12.34      0.00
  -11   16   78     22.85      0.00
   -8   16   78      1.31      0.00
   -5   16   78     14.54      0.00
   -2   16   78    -20.13      0.00
  -16   17   78     -4.27      0.00
  -13   17   78      8.27      0.00
  -10   17   78      8.32      0.00
   -7   17   78      6.27      0.00
   -4   17   78     -4.82      0.00
   -1   17   78      2.92      0.00
  -18   18   78     14.82      0.00
  -15   18   78      9.60      0.00
  -12   18   78    -19.33      0.00
   -9   18   78     -8.33      0.00
   -6   18   78     14.60      0.00
   -3   18   78     -0.86      0.00
    0   18   78      8.52      0.00
  -17   19   78     -1.05      0.00
  -14   19   78     12.64      0.00
  -11   19   78      3.82      0.00
   -8   19   78      4.20      0.00
   -5   19   78     -3.87      0.00
   -2   19   78     17.36      0.00
  -19   20   78      1.70      0.00
  -16   20   78    -11.49      0.00
  -13   20   78     37.07      0.00
  -10   20   78     27.14      0.00
   -7   20   78      5.36      0.00
   -4   20   78     38.55      0.00
   -1   20   78      7.26      0.00
  -21   21   78     -3.54      0.00
  -18   21   78     -2.09      0.00
  -15   21   78    -18.62      0.00
  -12   21   78      9.91      0.00
   -9   21   78     -3.69      0.00
   -6   21   78    -10.45      0.00
   -3   21   78     -2.77      0.00
    0   21   78     35.99      0.00
  -20   22   78     24.14      0.00
  -17   22   78    -20.08      0.00
  -14   22   78     -1.58      0.00
  -11   22   78      5.11      0.00
   -8   22   78     -3.04      0.00
   -5   22   78    -17.71      0.00
   -2   22   78     17.02      0.00
  -22   23   78     15.84      0.00
  -19   23   78    -13.30      0.00
  -16   23   78     36.60      0.00
  -13   23   78      1.83      0.00
  -10   23   78    -17.15      0.00
   -7   23   78    -13.16      0.00
   -4   23   78     14.39      0.00
   -1   23   78     24.99      0.00
  -24   24   78     17.65      0.00
  -21   24   78     -0.90      0.00
  -18   24   78      2.59      0.00
  -15   24   78     -1.85      0.00
  -12   24   78    -20.07      0.00
   -9   24   78     -8.51      0.00
   -6   24   78    -22.13      0.00
   -3   24   78     25.49      0.00
    0   24   78     -3.74      0.00
  -23   25   78     -6.90      0.00
  -20   25   78     19.45      0.00
  -17   25   78      7.34      0.00
  -14   25   78     -5.92      0.00
  -11   25   78      8.64      0.00
   -8   25   78      5.52      0.00
   -5   25   78      3.51      0.00
   -2   25   78     43.13      0.00
  -25   26   78     43.79      0.00
  -22   26   78     39.97      0.00
  -19   26   78     -7.27      0.00
  -16   26   78     13.56      0.00
  -13   26   78     12.96      0.00
  -10   26   78      4.70      0.00
   -7   26   78      4.77      0.00
   -4   26   78     -4.54      0.00
   -1   26   78      3.57      0.00
  -24   27   78      2.18      0.00
  -21   27   78     24.49      0.00
  -18   27   78     10.40      0.00
  -15   27   78      3.75      0.00
  -12   27   78      3.86      0.00
   -9   27   78      7.21      0.00
   -6   27   78     18.02      0.00
   -3   27   78     18.19      0.00
    0   27   78      9.82      0.00
  -26   28   78     72.30      0.00
  -23   28   78     19.16      0.00
  -20   28   78     12.13      0.00
  -17   28   78     18.00      0.00
  -14   28   78    -19.58      0.00
  -11   28   78     22.94      0.00
   -8   28   78     29.53      0.00
   -5   28   78     16.57      0.00
   -2   28   78     13.31      0.00
  -25   29   78     33.06      0.00
  -22   29   78     26.34      0.00
  -19   29   78      6.42      0.00
  -16   29   78      7.85      0.00
  -13   29   78      0.46      0.00
  -10   29   78     -2.63      0.00
   -7   29   78     25.15      0.00
   -4   29   78     32.57      0.00
  -24   30   78      0.20      0.00
  -21   30   78     10.70      0.00
  -18   30   78     -0.49      0.00
  -15   30   78      2.34      0.00
  -12   30   78    -12.13      0.00
   -9   30   78     -6.71      0.00
   -6   30   78    -21.98      0.00
   -3   30   78     13.69      0.00
  -23   31   78     -3.63      0.00
  -20   31   78     11.05      0.00
  -17   31   78     -8.24      0.00
  -14   31   78      0.04      0.00
  -11   31   78      2.18      0.00
   -8   31   78    -11.45      0.00
   -5   31   78     42.14      0.00
  -22   32   78     17.73      0.00
  -16   32   78     22.44      0.00
  -13   32   78      3.88      0.00
  -10   32   78    -12.14      0.00
  -21   33   78    -10.67      0.00
   -2    3   79     20.56      0.00
   -1    4   79     -1.92      0.00
   -3    5   79     16.04      0.00
   -5    6   79     -6.40      0.00
   -2    6   79     13.57      0.00
   -4    7   79    -19.89      0.00
   -1    7   79      4.93      0.00
   -6    8   79     -9.95      0.00
   -3    8   79    -16.52      0.00
   -8    9   79      5.45      0.00
   -5    9   79      2.81      0.00
   -2    9   79     15.20      0.00
   -7   10   79    -13.98      0.00
   -4   10   79      7.70      0.00
   -1   10   79    -12.02      0.00
   -9   11   79      6.29      0.00
   -6   11   79     -6.10      0.00
   -3   11   79     11.85      0.00
  -11   12   79     18.29      0.00
   -8   12   79     18.24      0.00
   -5   12   79      9.05      0.00
   -2   12   79      7.24      0.00
  -10   13   79     -4.16      0.00
   -7   13   79     12.57      0.00
   -4   13   79     12.04      0.00
   -1   13   79     11.32      0.00
  -12   14   79     -9.13      0.00
   -9   14   79     -0.41      0.00
   -6   14   79     -6.05      0.00
   -3   14   79    -37.52      0.00
  -14   15   79      5.01      0.00
  -11   15   79    -24.50      0.00
   -8   15   79      7.43      0.00
   -5   15   79     10.15      0.00
   -2   15   79    -11.66      0.00
  -13   16   79    -28.94      0.00
  -10   16   79      1.28      0.00
   -7   16   79     10.37      0.00
   -4   16   79      1.64      0.00
   -1   16   79      2.77      0.00
  -15   17   79      7.05      0.00
  -12   17   79      2.30      0.00
   -9   17   79    -18.57      0.00
   -6   17   79      2.83      0.00
   -3   17   79    -10.35      0.00
  -17   18   79     10.73      0.00
  -14   18   79      8.07      0.00
  -11   18   79      5.29      0.00
   -8   18   79     -7.64      0.00
   -5   18   79     13.78      0.00
   -2   18   79      2.75      0.00
  -16   19   79     13.80      0.00
  -13   19   79     -9.83      0.00
  -10   19   79    -19.12      0.00
   -7   19   79    -16.44      0.00
   -4   19   79      4.45      0.00
   -1   19   79     11.55      0.00
  -18   20   79     -9.59      0.00
  -15   20   79     27.69      0.00
  -12   20   79     14.30      0.00
   -9   20   79      2.66      0.00
   -6   20   79      3.76      0.00
   -3   20   79     -9.74      0.00
  -20   21   79    -12.95      0.00
  -17   21   79    -12.58      0.00
  -14   21   79    -14.66      0.00
  -11   21   79    -18.51      0.00
   -8   21   79    -13.27      0.00
   -5   21   79    -15.00      0.00
   -2   21   79      1.11      0.00
  -19   22   79     14.15      0.00
  -16   22   79    -13.31      0.00
  -13   22   79     27.56      0.00
  -10   22   79      5.64      0.00
   -7   22   79    -19.60      0.00
   -4   22   79    -10.23      0.00
   -1   22   79     -5.16      0.00
  -21   23   79     -4.30      0.00
  -18   23   79    -11.29      0.00
  -15   23   79     14.27      0.00
  -12   23   79     19.89      0.00
   -9   23   79    -12.55      0.00
   -6   23   79    -17.05      0.00
   -3   23   79      0.13      0.00
  -23   24   79     20.51      0.00
  -20   24   79     19.01      0.00
  -17   24   79     26.73      0.00
  -14   24   79     12.28      0.00
  -11   24   79     24.58      0.00
   -8   24   79     16.63      0.00
   -5   24   79      0.13      0.00
   -2   24   79    -34.35      0.00
  -22   25   79     11.46      0.00
  -19   25   79     11.90      0.00
  -16   25   79      2.06      0.00
  -13   25   79      1.44      0.00
  -10   25   79      1.65      0.00
   -7   25   79    -22.21      0.00
   -4   25   79      2.05      0.00
   -1   25   79      2.17      0.00
  -24   26   79     -1.20      0.00
  -21   26   79      9.65      0.00
  -18   26   79     20.08      0.00
  -15   26   79     19.04      0.00
  -12   26   79     19.20      0.00
   -9   26   79     17.45      0.00
   -6   26   79     -7.27      0.00
   -3   26   79      0.00      0.00
  -26   27   79    -14.32      0.00
  -23   27   79     -8.19      0.00
  -20   27   79     -9.99      0.00
  -17   27   79    -17.50      0.00
  -14   27   79     -6.74      0.00
  -11   27   79     -2.86      0.00
   -8   27   79     13.14      0.00
   -5   27   79    -30.18      0.00
   -2   27   79     -1.59      0.00
  -25   28   79     -9.76      0.00
  -22   28   79     -7.97      0.00
  -19   28   79      1.60      0.00
  -16   28   79      0.33      0.00
  -13   28   79     42.35      0.00
  -10   28   79     30.35      0.00
   -7   28   79     -8.98      0.00
   -4   28   79    -19.19      0.00
   -1   28   79      1.45      0.00
  -24   29   79    -67.59      0.00
  -21   29   79     -5.53      0.00
  -18   29   79    -14.05      0.00
  -15   29   79     -4.03      0.00
  -12   29   79     -1.47      0.00
   -9   29   79    -49.42      0.00
   -6   29   79     -0.98      0.00
   -3   29   79    -35.51      0.00
  -23   30   79    -17.43      0.00
  -20   30   79      8.96      0.00
  -17   30   79     -9.02      0.00
  -14   30   79      2.52      0.00
  -11   30   79     -1.98      0.00
   -8   30   79      1.55      0.00
   -5   30   79    -18.21      0.00
  -22   31   79     11.91      0.00
  -19   31   79     -5.59      0.00
  -16   31   79     11.09      0.00
  -13   31   79     -2.68      0.00
  -10   31   79    -29.99      0.00
   -7   31   79    -30.49      0.00
  -21   32   79    -14.52      0.00
  -15   32   79     24.79      0.00
  -12   32   79      4.98      0.00
    0    1   80    -32.64      0.00
   -2    2   80    -29.58      0.00
   -1    3   80      6.30      0.00
   -3    4   80     10.53      0.00
    0    4   80     -1.84      0.00
   -5    5   80     -6.00      0.00
   -2    5   80      0.68      0.00
   -4    6   80      1.36      0.00
   -1    6   80      0.59      0.00
   -6    7   80      9.49      0.00
   -3    7   80      7.03      0.00
    0    7   80     -4.55      0.00
   -8    8   80      9.63      0.00
   -5    8   80     20.45      0.00
   -2    8   80    -10.07      0.00
   -7    9   80     16.02      0.00
   -4    9   80    -10.73      0.00
   -1    9   80     43.62      0.00
   -9   10   80      7.11      0.00
   -6   10   80      8.88      0.00
   -3   10   80    -14.43      0.00
    0   10   80      6.31      0.00
  -11   11   80     -6.39      0.00
   -8   11   80     11.16      0.00
   -5   11   80      6.18      0.00
   -2   11   80     -1.19      0.00
  -10   12   80     -4.00      0.00
   -7   12   80     17.96      0.00
   -4   12   80     -3.48      0.00
   -1   12   80     26.23      0.00
  -12   13   80    -16.55      0.00
   -9   13   80    -19.77      0.00
   -6   13   80     -0.89      0.00
   -3   13   80     -0.68      0.00
    0   13   80    -17.62      0.00
  -14   14   80     -6.63      0.00
  -11   14   80      9.26      0.00
   -8   14   80     -8.46      0.00
   -5   14   80      6.99      0.00
   -2   14   80      9.17      0.00
  -13   15   80      7.09      0.00
  -10   15   80    -23.88      0.00
   -7   15   80    -14.93      0.00
   -4   15   80    -22.17      0.00
   -1   15   80    -11.44      0.00
  -15   16   80      7.71      0.00
  -12   16   80    -16.88      0.00
   -9   16   80     12.69      0.00
   -6   16   80      8.94      0.00
   -3   16   80     -5.30      0.00
    0   16   80    -20.16      0.00
  -17   17   80      3.31      0.00
  -14   17   80      0.40      0.00
  -11   17   80    -34.37      0.00
   -8   17   80    -23.03      0.00
   -5   17   80    -20.10      0.00
   -2   17   80    -38.01      0.00
  -16   18   80      5.67      0.00
  -13   18   80     -3.66      0.00
  -10   18   80    -13.52      0.00
   -7   18   80     21.25      0.00
   -4   18   80     14.89      0.00
   -1   18   80    -27.24      0.00
  -18   19   80     11.57      0.00
  -15   19   80     -0.57      0.00
  -12   19   80     -8.26      0.00
   -9   19   80    -15.14      0.00
   -6   19   80    -14.41      0.00
   -3   19   80    -14.88      0.00
    0   19   80    -64.92      0.00
  -20   20   80      6.80      0.00
  -17   20   80    -33.57      0.00
  -14   20   80     -3.02      0.00
  -11   20   80      7.92      0.00
   -8   20   80      4.17      0.00
   -5   20   80     -8.96      0.00
   -2   20   80    -10.95      0.00
  -19   21   80     -2.32      0.00
  -16   21   80      0.82      0.00
  -13   21   80     -9.25      0.00
  -10   21   80     -9.84      0.00
   -7   21   80    -30.26      0.00
   -4   21   80      4.87      0.00
   -1   21   80      6.55      0.00
  -21   22   80     -9.16      0.00
  -18   22   80      9.18      0.00
  -15   22   80    -16.80      0.00
  -12   22   80    -10.64      0.00
   -9   22   80    -10.81      0.00
   -6   22   80    -16.61      0.00
   -3   22   80    -45.55      0.00
    0   22   80    -39.13      0.00
  -23   23   80    -17.22      0.00
  -20   23   80      4.37      0.00
  -17   23   80     -3.37      0.00
  -14   23   80     -2.01      0.00
  -11   23   80    -37.43      0.00
   -8   23   80     -9.64      0.00
   -5   23   80      7.72      0.00
   -2   23   80      5.95      0.00
  -22   24   80    -14.10      0.00
  -19   24   80    -29.76      0.00
  -16   24   80      4.05      0.00
  -13   24   80    -14.01      0.00
  -10   24   80    -12.91      0.00
   -7   24   80     -0.75      0.00
   -4   24   80      7.28      0.00
   -1   24   80     -7.46      0.00
  -24   25   80    -31.22      0.00
  -21   25   80     15.84      0.00
  -18   25   80    -11.52      0.00
  -15   25   80     -0.79      0.00
  -12   25   80     -8.93      0.00
   -9   25   80     -2.42      0.00
   -6   25   80    -36.61      0.00
   -3   25   80     -5.21      0.00
    0   25   80    -15.73      0.00
  -26   26   80     -9.34      0.00
  -23   26   80    -26.43      0.00
  -20   26   80    -40.52      0.00
  -17   26   80    -21.35      0.00
  -14   26   80     12.62      0.00
  -11   26   80     10.05      0.00
   -8   26   80     11.57      0.00
   -5   26   80      2.77      0.00
   -2   26   80    -46.12      0.00
  -25   27   80    -20.60      0.00
  -22   27   80    -10.26      0.00
  -19   27   80    -23.67      0.00
  -16   27   80      1.61      0.00
  -13   27   80    -35.81      0.00
  -10   27   80     12.29      0.00
   -7   27   80     16.61      0.00
   -4   27   80    -23.62      0.00
   -1   27   80     -9.14      0.00
  -24   28   80     14.93      0.00
  -21   28   80     -7.30      0.00
  -18   28   80     -6.52      0.00
  -15   28   80     -2.88      0.00
  -12   28   80     -5.16      0.00
   -9   28   80     18.05      0.00
   -6   28   80    -32.29      0.00
   -3   28   80    -24.68      0.00
    0   28   80    -54.79      0.00
  -23   29   80     24.40      0.00
  -20   29   80     12.26      0.00
  -17   29   80     -2.02      0.00
  -14   29   80    -15.52      0.00
  -11   29   80    -20.09      0.00
   -8   29   80      9.82      0.00
   -5   29   80    -10.09      0.00
   -2   29   80     -5.97      0.00
  -22   30   80     20.92      0.00
  -19   30   80    -24.54      0.00
  -16   30   80    -28.95      0.00
  -13   30   80     -6.03      0.00
  -10   30   80      2.47      0.00
   -7   30   80    -16.39      0.00
  -24   31   80      5.03      0.00
  -21   31   80     14.75      0.00
  -15   31   80     38.59      0.00
  -12   31   80     30.74      0.00
   -1    2   81      2.16      0.00
   -2    4   81      6.50      0.00
   -4    5   81      9.47      0.00
   -1    5   81     21.90      0.00
   -3    6   81     -4.09      0.00
   -5    7   81     -4.56      0.00
   -2    7   81      6.77      0.00
   -7    8   81     -9.71      0.00
   -4    8   81     -5.92      0.00
   -1    8   81    -11.05      0.00
   -6    9   81     -7.47      0.00
   -3    9   81      5.15      0.00
   -8   10   81      5.74      0.00
   -5   10   81     -3.40      0.00
   -2   10   81    -13.95      0.00
  -10   11   81     -7.74      0.00
   -7   11   81    -15.65      0.00
   -4   11   81    -19.37      0.00
   -1   11   81     24.35      0.00
   -9   12   81    -11.22      0.00
   -6   12   81     -5.20      0.00
   -3   12   81    -10.81      0.00
  -11   13   81     -8.71      0.00
   -8   13   81      6.86      0.00
   -5   13   81     -6.71      0.00
   -2   13   81     16.70      0.00
  -13   14   81    -19.37      0.00
  -10   14   81     -0.72      0.00
   -7   14   81    -18.39      0.00
   -4   14   81    -22.99      0.00
   -1   14   81    -13.15      0.00
  -12   15   81    -12.62      0.00
   -9   15   81    -23.62      0.00
   -6   15   81     -8.24      0.00
   -3   15   81      4.63      0.00
  -14   16   81      6.80      0.00
  -11   16   81     -5.98      0.00
   -8   16   81     -0.07      0.00
   -5   16   81      1.31      0.00
   -2   16   81      4.22      0.00
  -16   17   81      8.97      0.00
  -13   17   81    -28.32      0.00
  -10   17   81     -2.15      0.00
   -7   17   81    -14.80      0.00
   -4   17   81     22.29      0.00
   -1   17   81     13.81      0.00
  -15   18   81     13.63      0.00
  -12   18   81     10.25      0.00
   -9   18   81      6.63      0.00
   -6   18   81     15.66      0.00
   -3   18   81      0.76      0.00
  -17   19   81     -2.07      0.00
  -14   19   81      5.82      0.00
  -11   19   81      1.49      0.00
   -8   19   81     30.28      0.00
   -5   19   81     34.00      0.00
   -2   19   81     -0.35      0.00
  -19   20   81     -7.96      0.00
  -16   20   81    -30.04      0.00
  -13   20   81    -14.23      0.00
  -10   20   81    -23.16      0.00
   -7   20   81      6.52      0.00
   -4   20   81    -17.33      0.00
   -1   20   81    -12.83      0.00
  -18   21   81    -21.94      0.00
  -15   21   81     -8.23      0.00
  -12   21   81    -13.06      0.00
   -9   21   81    -23.36      0.00
   -6   21   81     31.32      0.00
   -3   21   81     14.50      0.00
  -20   22   81     19.61      0.00
  -17   22   81      3.01      0.00
  -14   22   81    -16.01      0.00
  -11   22   81     11.80      0.00
   -8   22   81     -9.12      0.00
   -5   22   81     27.13      0.00
   -2   22   81    -25.00      0.00
  -22   23   81     17.01      0.00
  -19   23   81    -14.88      0.00
  -16   23   81     -7.43      0.00
  -13   23   81      3.52      0.00
  -10   23   81     -8.30      0.00
   -7   23   81    -32.50      0.00
   -4   23   81      2.67      0.00
   -1   23   81     21.37      0.00
  -21   24   81    -10.05      0.00
  -18   24   81     -4.81      0.00
  -15   24   81     16.09      0.00
  -12   24   81      2.35      0.00
   -9   24   81      0.18      0.00
   -6   24   81      0.90      0.00
   -3   24   81      6.40      0.00
  -23   25   81     20.06      0.00
  -20   25   81     -0.46      0.00
  -17   25   81     18.65      0.00
  -14   25   81    -13.67      0.00
  -11   25   81     -1.59      0.00
   -8   25   81    -16.58      0.00
   -5   25   81     -3.17      0.00
   -2   25   81     22.55      0.00
  -25   26   81      8.95      0.00
  -22   26   81     25.30      0.00
  -19   26   81      3.37      0.00
  -16   26   81      4.34      0.00
  -13   26   81     19.96      0.00
  -10   26   81     -1.13      0.00
   -7   26   81     -1.36      0.00
   -4   26   81    -26.22      0.00
   -1   26   81     13.22      0.00
  -24   27   81     -1.09      0.00
  -21   27   81     -2.07      0.00
  -18   27   81      3.79      0.00
  -15   27   81     -4.23      0.00
  -12   27   81    -25.61      0.00
   -9   27   81     -5.32      0.00
   -6   27   81    -10.91      0.00
   -3   27   81     -0.72      0.00
  -23   28   81    -21.59      0.00
  -20   28   81     29.27      0.00
  -17   28   81      1.92      0.00
  -14   28   81      0.03      0.00
  -11   28   81     20.43      0.00
   -8   28   81    -15.60      0.00
   -5   28   81     11.19      0.00
   -2   28   81    -34.18      0.00
  -25   29   81     -9.85      0.00
  -22   29   81    -16.09      0.00
  -19   29   81     30.16      0.00
  -16   29   81      6.55      0.00
  -13   29   81     -2.54      0.00
  -10   29   81    -14.05      0.00
   -7   29   81    -10.86      0.00
   -4   29   81     -0.87      0.00
  -24   30   81     24.33      0.00
  -21   30   81      0.71      0.00
  -18   30   81    -17.29      0.00
  -15   30   81    -27.81      0.00
  -12   30   81     -5.30      0.00
   -9   30   81      4.64      0.00
  -23   31   81     -4.36      0.00
  -17   31   81     13.98      0.00
  -14   31   81     -2.42      0.00
  -11   31   81      1.71      0.00
  -16   32   81     -0.33      0.00
   -1    1   82     38.70      0.00
    0    2   82      0.73      0.00
   -2    3   82     36.16      0.00
   -4    4   82     -4.28      0.00
   -1    4   82     26.05      0.00
   -3    5   82     25.73      0.00
    0    5   82     -1.52      0.00
   -5    6   82     19.15      0.00
   -2    6   82     -2.08      0.00
   -7    7   82    -28.27      0.00
   -4    7   82      8.32      0.00
   -1    7   82     10.93      0.00
   -6    8   82     10.05      0.00
   -3    8   82     20.03      0.00
    0    8   82      3.76      0.00
   -8    9   82      5.04      0.00
   -5    9   82      4.85      0.00
   -2    9   82     -4.56      0.00
  -10   10   82     16.04      0.00
   -7   10   82      7.28      0.00
   -4   10   82    -33.03      0.00
   -1   10   82     -2.35      0.00
   -9   11   82      5.73      0.00
   -6   11   82     16.78      0.00
   -3   11   82      1.91      0.00
    0   11   82    -18.39      0.00
  -11   12   82      0.26      0.00
   -8   12   82      2.66      0.00
   -5   12   82     35.71      0.00
   -2   12   82    -11.32      0.00
  -13   13   82     12.12      0.00
  -10   13   82      8.68      0.00
   -7   13   82     11.18      0.00
   -4   13   82    -34.33      0.00
   -1   13   82     -0.84      0.00
  -12   14   82     18.06      0.00
   -9   14   82     23.50      0.00
   -6   14   82      0.31      0.00
   -3   14   82     -7.19      0.00
    0   14   82     13.69      0.00
  -14   15   82     -8.39      0.00
  -11   15   82     -1.18      0.00
   -8   15   82    -10.83      0.00
   -5   15   82    -16.80      0.00
   -2   15   82    -34.24      0.00
  -16   16   82     12.97      0.00
  -13   16   82      9.98      0.00
  -10   16   82      9.05      0.00
   -7   16   82     12.28      0.00
   -4   16   82     -8.04      0.00
   -1   16   82     -6.20      0.00
  -15   17   82      1.51      0.00
  -12   17   82      8.78      0.00
   -9   17   82     13.02      0.00
   -6   17   82    -16.27      0.00
   -3   17   82    -15.50      0.00
    0   17   82    -55.67      0.00
  -17   18   82    -35.06      0.00
  -14   18   82      9.90      0.00
  -11   18   82     -5.11      0.00
   -8   18   82     18.47      0.00
   -5   18   82     -2.05      0.00
   -2   18   82      8.15      0.00
  -19   19   82    -37.49      0.00
  -16   19   82     -0.18      0.00
  -13   19   82     -8.78      0.00
  -10   19   82    -19.04      0.00
   -7   19   82     -8.77      0.00
   -4   19   82    -30.75      0.00
   -1   19   82     12.48      0.00
  -18   20   82     -7.08      0.00
  -15   20   82    -20.38      0.00
  -12   20   82      5.39      0.00
   -9   20   82      7.72      0.00
   -6   20   82     12.89      0.00
   -3   20   82     13.57      0.00
    0   20   82      6.58      0.00
  -20   21   82     -8.32      0.00
  -17   21   82      5.99      0.00
  -14   21   82     26.49      0.00
  -11   21   82    -33.12      0.00
   -8   21   82      0.38      0.00
   -5   21   82      5.39      0.00
   -2   21   82    -18.59      0.00
  -22   22   82    -31.27      0.00
  -19   22   82      8.07      0.00
  -16   22   82     12.75      0.00
  -13   22   82     15.68      0.00
  -10   22   82     12.15      0.00
   -7   22   82     18.77      0.00
   -4   22   82     17.44      0.00
   -1   22   82    -24.20      0.00
  -21   23   82      4.99      0.00
  -18   23   82    -11.78      0.00
  -15   23   82    -11.54      0.00
  -12   23   82     -8.13      0.00
   -9   23   82    -28.06      0.00
   -6   23   82      2.94      0.00
   -3   23   82     25.27      0.00
    0   23   82     -6.87      0.00
  -23   24   82      2.42      0.00
  -20   24   82     12.72      0.00
  -17   24   82     -6.43      0.00
  -14   24   82     21.32      0.00
  -11   24   82     -3.53      0.00
   -8   24   82     19.71      0.00
   -5   24   82     10.92      0.00
   -2   24   82      6.67      0.00
  -25   25   82     -1.70      0.00
  -22   25   82     29.46      0.00
  -19   25   82     -3.69      0.00
  -16   25   82     25.17      0.00
  -13   25   82     -2.30      0.00
  -10   25   82      0.97      0.00
   -7   25   82      4.61      0.00
   -4   25   82    -10.44      0.00
   -1   25   82     -4.20      0.00
  -24   26   82    -26.87      0.00
  -21   26   82    -10.22      0.00
  -18   26   82      0.78      0.00
  -15   26   82      4.30      0.00
  -12   26   82    -14.18      0.00
   -9   26   82     -7.12      0.00
   -6   26   82      9.44      0.00
   -3   26   82    -24.22      0.00
    0   26   82    -24.91      0.00
  -26   27   82      2.33      0.00
  -23   27   82     -2.67      0.00
  -20   27   82    -14.52      0.00
  -17   27   82     24.16      0.00
  -14   27   82     17.27      0.00
  -11   27   82    -15.45      0.00
   -8   27   82     13.02      0.00
   -5   27   82      9.73      0.00
   -2   27   82      9.23      0.00
  -25   28   82     20.31      0.00
  -22   28   82    -10.21      0.00
  -19   28   82    -32.77      0.00
  -16   28   82    -13.14      0.00
  -13   28   82     -7.86      0.00
  -10   28   82    -24.14      0.00
   -7   28   82     -0.48      0.00
   -4   28   82    -10.67      0.00
  -21   29   82     41.00      0.00
  -18   29   82      0.95      0.00
  -15   29   82      8.01      0.00
  -12   29   82    -10.03      0.00
   -9   29   82    -18.95      0.00
   -6   29   82    -31.29      0.00
  -23   30   82     -8.47      0.00
  -20   30   82    -27.45      0.00
  -17   30   82    -32.49      0.00
  -14   30   82    -15.95      0.00
  -11   30   82    -22.93      0.00
  -16   31   82     18.35      0.00
  -13   31   82     -0.09      0.00
   -1    3   83     -5.70      0.00
   -3    4   83     12.74      0.00
   -2    5   83     26.90      0.00
   -4    6   83     -0.93      0.00
   -1    6   83     -4.21      0.00
   -6    7   83      7.56      0.00
   -3    7   83     16.42      0.00
   -5    8   83      2.34      0.00
   -2    8   83     -5.25      0.00
   -7    9   83      1.54      0.00
   -4    9   83      8.49      0.00
   -1    9   83      0.84      0.00
   -9   10   83    -23.69      0.00
   -6   10   83     14.83      0.00
   -3   10   83     -4.00      0.00
   -8   11   83     -8.68      0.00
   -5   11   83      4.02      0.00
   -2   11   83      7.79      0.00
  -10   12   83     12.22      0.00
   -7   12   83     17.95      0.00
   -4   12   83     -9.43      0.00
   -1   12   83      3.51      0.00
  -12   13   83      7.36      0.00
   -9   13   83     -7.33      0.00
   -6   13   83    -10.10      0.00
   -3   13   83      2.65      0.00
  -11   14   83     -5.06      0.00
   -8   14   83    -20.72      0.00
   -5   14   83      7.68      0.00
   -2   14   83      6.18      0.00
  -13   15   83     -8.72      0.00
  -10   15   83    -10.36      0.00
   -7   15   83     -3.53      0.00
   -4   15   83     11.68      0.00
   -1   15   83      7.45      0.00
  -15   16   83      7.80      0.00
  -12   16   83     -5.51      0.00
   -9   16   83      4.17      0.00
   -6   16   83     -5.05      0.00
   -3   16   83     -7.64      0.00
  -14   17   83      2.98      0.00
  -11   17   83     15.20      0.00
   -8   17   83      5.45      0.00
   -5   17   83     -8.62      0.00
   -2   17   83     48.30      0.00
  -16   18   83      1.02      0.00
  -13   18   83      9.70      0.00
  -10   18   83     12.88      0.00
   -7   18   83    -13.88      0.00
   -4   18   83    -20.69      0.00
   -1   18   83    -14.95      0.00
  -18   19   83     26.54      0.00
  -15   19   83     16.60      0.00
  -12   19   83     12.46      0.00
   -9   19   83     21.06      0.00
   -6   19   83      7.26      0.00
   -3   19   83     -8.96      0.00
  -17   20   83     -8.41      0.00
  -14   20   83     18.11      0.00
  -11   20   83     30.45      0.00
   -8   20   83     -1.25      0.00
   -5   20   83     -1.11      0.00
   -2   20   83    -45.73      0.00
  -19   21   83    -23.19      0.00
  -16   21   83     19.19      0.00
  -13   21   83     20.65      0.00
  -10   21   83     13.43      0.00
   -7   21   83      3.74      0.00
   -4   21   83      7.68      0.00
   -1   21   83     -3.86      0.00
  -21   22   83    -11.58      0.00
  -18   22   83     14.99      0.00
  -15   22   83      4.71      0.00
  -12   22   83    -18.56      0.00
   -9   22   83     22.73      0.00
   -6   22   83    -16.72      0.00
   -3   22   83     -0.30      0.00
  -20   23   83     10.14      0.00
  -17   23   83    -25.91      0.00
  -14   23   83    -19.41      0.00
  -11   23   83     21.66      0.00
   -8   23   83     26.34      0.00
   -5   23   83     25.75      0.00
   -2   23   83     20.97      0.00
  -22   24   83     14.18      0.00
  -19   24   83      3.91      0.00
  -16   24   83      7.91      0.00
  -13   24   83    -13.82      0.00
  -10   24   83    -18.30      0.00
   -7   24   83    -12.35      0.00
   -4   24   83    -42.81      0.00
   -1   24   83    -26.55      0.00
  -24   25   83    -20.38      0.00
  -21   25   83    -10.49      0.00
  -18   25   83      9.33      0.00
  -15   25   83     29.97      0.00
  -12   25   83    -21.66      0.00
   -9   25   83    -10.94      0.00
   -6   25   83     16.86      0.00
   -3   25   83      9.62      0.00
  -23   26   83    -22.88      0.00
  -20   26   83     -0.87      0.00
  -17   26   83    -15.61      0.00
  -14   26   83    -24.64      0.00
  -11   26   83    -22.77      0.00
   -8   26   83      0.97      0.00
   -5   26   83     28.82      0.00
   -2   26   83      6.89      0.00
  -25   27   83     -6.00      0.00
  -22   27   83     28.32      0.00
  -19   27   83     17.28      0.00
  -16   27   83     -1.24      0.00
  -13   27   83     12.29      0.00
  -10   27   83    -12.17      0.00
   -7   27   83    -17.52      0.00
   -4   27   83    -25.02      0.00
  -24   28   83      8.15      0.00
  -21   28   83    -37.39      0.00
  -18   28   83      1.76      0.00
  -15   28   83     -9.09      0.00
  -12   28   83     -3.39      0.00
   -9   28   83      9.43      0.00
   -6   28   83    -20.62      0.00
  -23   29   83     14.34      0.00
  -20   29   83      7.20      0.00
  -17   29   83     -8.20      0.00
  -14   29   83    -17.94      0.00
  -11   29   83     13.21      0.00
   -5   29   83      9.57      0.00
  -22   30   83     39.67      0.00
  -16   30   83     -4.92      0.00
  -13   30   83     -7.98      0.00
  -10   30   83     10.14      0.00
   -7   30   83     35.32      0.00
  -12   31   83     -3.19      0.00
    0    0   84     -3.55      0.00
   -1    2   84      5.49      0.00
   -3    3   84     -7.05      0.00
    0    3   84     12.79      0.00
   -2    4   84    -24.32      0.00
   -4    5   84     -8.18      0.00
   -1    5   84     13.39      0.00
   -6    6   84      4.36      0.00
   -3    6   84     14.07      0.00
    0    6   84    -10.57      0.00
   -5    7   84     -7.16      0.00
   -2    7   84     13.72      0.00
   -7    8   84     10.49      0.00
   -4    8   84     -0.61      0.00
   -1    8   84      1.45      0.00
   -9    9   84     -4.31      0.00
   -6    9   84      0.35      0.00
   -3    9   84     28.78      0.00
    0    9   84      6.01      0.00
   -8   10   84    -15.63      0.00
   -5   10   84     10.07      0.00
   -2   10   84    -39.21      0.00
  -10   11   84    -25.16      0.00
   -7   11   84      0.28      0.00
   -4   11   84    -18.17      0.00
   -1   11   84     -8.95      0.00
  -12   12   84      9.71      0.00
   -9   12   84      7.45      0.00
   -6   12   84     33.36      0.00
   -3   12   84      8.26      0.00
    0   12   84     20.78      0.00
  -11   13   84    -29.05      0.00
   -8   13   84    -12.33      0.00
   -5   13   84     -4.19      0.00
   -2   13   84     12.29      0.00
  -13   14   84    -16.32      0.00
  -10   14   84     -5.07      0.00
   -7   14   84     -7.15      0.00
   -4   14   84     14.24      0.00
   -1   14   84     14.84      0.00
  -15   15   84    -19.83      0.00
  -12   15   84      8.14      0.00
   -9   15   84     19.45      0.00
   -6   15   84     -8.76      0.00
   -3   15   84      9.03      0.00
    0   15   84    -25.67      0.00
  -14   16   84     -0.49      0.00
  -11   16   84    -17.63      0.00
   -8   16   84     -8.29      0.00
   -5   16   84      3.95      0.00
   -2   16   84     -4.20      0.00
  -16   17   84    -31.06      0.00
  -13   17   84     -9.54      0.00
  -10   17   84    -10.77      0.00
   -7   17   84     -8.67      0.00
   -4   17   84    -16.35      0.00
   -1   17   84     16.44      0.00
  -18   18   84    -30.75      0.00
  -15   18   84     -7.19      0.00
  -12   18   84      9.54      0.00
   -9   18   84     -9.10      0.00
   -6   18   84     33.80      0.00
   -3   18   84      8.73      0.00
    0   18   84     18.49      0.00
  -17   19   84    -11.17      0.00
  -14   19   84    -12.74      0.00
  -11   19   84    -15.77      0.00
   -8   19   84    -16.00      0.00
   -5   19   84     -8.65      0.00
   -2   19   84    -24.37      0.00
  -19   20   84     13.18      0.00
  -16   20   84    -13.30      0.00
  -13   20   84     -8.90      0.00
  -10   20   84      5.63      0.00
   -7   20   84     15.30      0.00
   -4   20   84     22.27      0.00
   -1   20   84      7.37      0.00
  -21   21   84    -23.60      0.00
  -18   21   84     -2.82      0.00
  -15   21   84    -17.65      0.00
  -12   21   84     17.85      0.00
   -9   21   84     -2.93      0.00
   -6   21   84     -8.41      0.00
   -3   21   84      8.19      0.00
    0   21   84    -30.76      0.00
  -20   22   84      2.13      0.00
  -17   22   84    -20.45      0.00
  -14   22   84    -17.97      0.00
  -11   22   84     -5.09      0.00
   -8   22   84     21.87      0.00
   -5   22   84    -20.48      0.00
   -2   22   84    -16.53      0.00
  -22   23   84     19.54      0.00
  -19   23   84    -23.31      0.00
  -16   23   84    -13.12      0.00
  -13   23   84    -32.26      0.00
  -10   23   84     -8.65      0.00
   -7   23   84    -14.18      0.00
   -4   23   84    -45.61      0.00
   -1   23   84    -12.75      0.00
  -24   24   84    -25.03      0.00
  -21   24   84     -9.24      0.00
  -18   24   84    -29.50      0.00
  -15   24   84      3.50      0.00
  -12   24   84    -13.29      0.00
   -9   24   84      5.50      0.00
   -6   24   84    -11.59      0.00
   -3   24   84    -32.10      0.00
    0   24   84    -15.64      0.00
  -23   25   84    -13.53      0.00
  -20   25   84     27.00      0.00
  -17   25   84     21.64      0.00
  -14   25   84     29.37      0.00
  -11   25   84     -5.85      0.00
   -8   25   84     -8.35      0.00
   -5   25   84    -25.14      0.00
   -2   25   84    -24.59      0.00
  -22   26   84    -12.77      0.00
  -19   26   84     -7.74      0.00
  -16   26   84     -1.68      0.00
  -13   26   84      6.87      0.00
  -10   26   84     19.70      0.00
   -7   26   84     -4.79      0.00
   -4   26   84     10.39      0.00
   -1   26   84    -41.97      0.00
  -24   27   84     23.36      0.00
  -21   27   84     -7.01      0.00
  -18   27   84    -13.58      0.00
  -15   27   84      6.57      0.00
  -12   27   84     28.62      0.00
   -9   27   84     -2.94      0.00
   -6   27   84      1.41      0.00
   -3   27   84    -27.76      0.00
  -23   28   84      3.38      0.00
  -20   28   84      6.32      0.00
  -17   28   84     15.11      0.00
  -14   28   84     21.56      0.00
  -11   28   84      4.57      0.00
   -8   28   84     23.17      0.00
   -5   28   84    -11.34      0.00
  -22   29   84    -11.70      0.00
  -19   29   84     14.52      0.00
  -16   29   84     13.89      0.00
  -13   29   84      2.78      0.00
  -10   29   84      7.16      0.00
   -7   29   84     16.82      0.00
  -15   30   84     14.54      0.00
  -12   30   84     -6.41      0.00
   -2    3   85    -11.15      0.00
   -1    4   85     22.04      0.00
   -3    5   85     12.84      0.00
   -5    6   85      0.06      0.00
   -2    6   85    -15.98      0.00
   -4    7   85     -6.20      0.00
   -1    7   85      5.94      0.00
   -6    8   85      6.69      0.00
   -3    8   85     -1.18      0.00
   -8    9   85     -4.89      0.00
   -5    9   85    -20.25      0.00
   -2    9   85      0.88      0.00
   -7   10   85     -9.52      0.00
   -4   10   85     10.18      0.00
   -1   10   85     -2.18      0.00
   -9   11   85      5.11      0.00
   -6   11   85      4.10      0.00
   -3   11   85      0.73      0.00
  -11   12   85     -3.21      0.00
   -8   12   85    -22.33      0.00
   -5   12   85      7.66      0.00
   -2   12   85     -6.21      0.00
  -10   13   85     -1.02      0.00
   -7   13   85      2.82      0.00
   -4   13   85    -16.31      0.00
   -1   13   85     -8.35      0.00
  -12   14   85     -9.72      0.00
   -9   14   85    -14.11      0.00
   -6   14   85    -10.23      0.00
   -3   14   85    -11.37      0.00
  -14   15   85     -5.76      0.00
  -11   15   85     -4.24      0.00
   -8   15   85    -27.04      0.00
   -5   15   85      1.35      0.00
   -2   15   85     -3.35      0.00
  -13   16   85    -12.29      0.00
  -10   16   85     -7.43      0.00
   -7   16   85      1.41      0.00
   -4   16   85    -34.65      0.00
   -1   16   85     20.79      0.00
  -15   17   85      2.04      0.00
  -12   17   85    -37.51      0.00
   -9   17   85      1.31      0.00
   -6   17   85      1.55      0.00
   -3   17   85     12.33      0.00
  -17   18   85     16.10      0.00
  -14   18   85      6.75      0.00
  -11   18   85     -5.66      0.00
   -8   18   85    -37.35      0.00
   -5   18   85    -11.13      0.00
   -2   18   85      8.04      0.00
  -16   19   85      9.52      0.00
  -13   19   85     13.26      0.00
  -10   19   85    -21.97      0.00
   -7   19   85    -27.32      0.00
   -4   19   85      8.04      0.00
   -1   19   85    -12.86      0.00
  -18   20   85    -12.93      0.00
  -15   20   85    -12.18      0.00
  -12   20   85      6.64      0.00
   -9   20   85    -11.19      0.00
   -6   20   85    -28.89      0.00
   -3   20   85     -7.16      0.00
  -20   21   85     -5.92      0.00
  -17   21   85    -13.62      0.00
  -14   21   85    -11.98      0.00
  -11   21   85     -3.83      0.00
   -8   21   85     29.61      0.00
   -5   21   85    -15.75      0.00
   -2   21   85     14.45      0.00
  -19   22   85    -22.14      0.00
  -16   22   85    -23.31      0.00
  -13   22   85    -30.92      0.00
  -10   22   85    -15.62      0.00
   -7   22   85    -18.89      0.00
   -4   22   85    -25.45      0.00
   -1   22   85      0.53      0.00
  -21   23   85      3.43      0.00
  -18   23   85      4.95      0.00
  -15   23   85     -9.54      0.00
  -12   23   85     -8.51      0.00
   -9   23   85      2.92      0.00
   -6   23   85     -4.27      0.00
   -3   23   85      4.84      0.00
  -23   24   85    -14.11      0.00
  -20   24   85     21.80      0.00
  -17   24   85    -10.42      0.00
  -14   24   85     19.50      0.00
  -11   24   85      9.30      0.00
   -8   24   85    -13.74      0.00
   -5   24   85      8.72      0.00
   -2   24   85    -30.82      0.00
  -22   25   85     13.00      0.00
  -19   25   85      0.65      0.00
  -16   25   85      0.06      0.00
  -13   25   85    -14.28      0.00
  -10   25   85      5.89      0.00
   -7   25   85     13.76      0.00
   -4   25   85     13.20      0.00
   -1   25   85     36.50      0.00
  -24   26   85     35.30      0.00
  -21   26   85     23.90      0.00
  -18   26   85     -8.93      0.00
  -15   26   85    -20.71      0.00
  -12   26   85    -19.59      0.00
   -9   26   85     14.46      0.00
   -6   26   85      4.23      0.00
   -3   26   85      6.57      0.00
  -23   27   85    -24.27      0.00
  -20   27   85     -6.12      0.00
  -17   27   85    -11.19      0.00
  -14   27   85     -1.28      0.00
  -11   27   85     40.01      0.00
   -8   27   85     10.29      0.00
   -5   27   85      3.33      0.00
  -22   28   85      4.67      0.00
  -19   28   85     -5.12      0.00
  -16   28   85     18.66      0.00
  -13   28   85     17.20      0.00
  -10   28   85      8.09      0.00
   -7   28   85     -1.10      0.00
  -18   29   85    -38.11      0.00
  -15   29   85     31.74      0.00
  -12   29   85      7.12      0.00
   -9   29   85     -7.96      0.00
  -17   30   85    -28.76      0.00
    0    1   86     11.56      0.00
   -2    2   86     -3.11      0.00
   -1    3   86    -13.97      0.00
   -3    4   86    -10.36      0.00
    0    4   86     12.78      0.00
   -5    5   86     -0.07      0.00
   -2    5   86     27.25      0.00
   -4    6   86    -21.95      0.00
   -1    6   86    -13.51      0.00
   -6    7   86      8.51      0.00
   -3    7   86      3.05      0.00
    0    7   86      4.28      0.00
   -8    8   86     21.77      0.00
   -5    8   86      7.19      0.00
   -2    8   86    -10.32      0.00
   -7    9   86      9.40      0.00
   -4    9   86    -25.76      0.00
   -1    9   86    -12.28      0.00
   -9   10   86     -8.04      0.00
   -6   10   86      5.36      0.00
   -3   10   86    -22.45      0.00
    0   10   86      2.10      0.00
  -11   11   86    -10.29      0.00
   -8   11   86      2.71      0.00
   -5   11   86     -8.07      0.00
   -2   11   86    -18.83      0.00
  -10   12   86    -25.66      0.00
   -7   12   86      2.54      0.00
   -4   12   86    -10.65      0.00
   -1   12   86      3.58      0.00
  -12   13   86    -13.69      0.00
   -9   13   86    -10.11      0.00
   -6   13   86      2.88      0.00
   -3   13   86      7.07      0.00
    0   13   86     -4.61      0.00
  -14   14   86     -4.60      0.00
  -11   14   86      2.94      0.00
   -8   14   86      4.87      0.00
   -5   14   86    -18.98      0.00
   -2   14   86      3.71      0.00
  -13   15   86     -9.89      0.00
  -10   15   86      3.34      0.00
   -7   15   86      0.97      0.00
   -4   15   86     -3.98      0.00
   -1   15   86    -10.52      0.00
  -15   16   86    -18.35      0.00
  -12   16   86     -0.54      0.00
   -9   16   86    -10.27      0.00
   -6   16   86     -1.11      0.00
   -3   16   86     -4.80      0.00
    0   16   86     -1.70      0.00
  -17   17   86     10.55      0.00
  -14   17   86     12.73      0.00
  -11   17   86     -4.83      0.00
   -8   17   86    -18.32      0.00
   -5   17   86      9.39      0.00
   -2   17   86     -9.84      0.00
  -16   18   86     -9.97      0.00
  -13   18   86     -4.72      0.00
  -10   18   86      9.96      0.00
   -7   18   86    -10.76      0.00
   -4   18   86     29.06      0.00
   -1   18   86     -4.05      0.00
  -18   19   86     12.46      0.00
  -15   19   86      8.25      0.00
  -12   19   86      6.62      0.00
   -9   19   86      9.70      0.00
   -6   19   86     -8.40      0.00
   -3   19   86     23.27      0.00
    0   19   86    -13.56      0.00
  -20   20   86     -1.12      0.00
  -17   20   86     -4.15      0.00
  -14   20   86    -10.81      0.00
  -11   20   86     27.37      0.00
   -8   20   86     27.63      0.00
   -5   20   86     15.29      0.00
   -2   20   86     -8.13      0.00
  -19   21   86      4.55      0.00
  -16   21   86      0.36      0.00
  -13   21   86     -5.14      0.00
  -10   21   86     -1.05      0.00
   -7   21   86     -4.12      0.00
   -4   21   86      5.28      0.00
   -1   21   86     19.44      0.00
  -21   22   86     21.33      0.00
  -18   22   86    -10.69      0.00
  -15   22   86     29.56      0.00
  -12   22   86     14.63      0.00
   -9   22   86     -9.28      0.00
   -6   22   86     -4.34      0.00
   -3   22   86     -5.46      0.00
    0   22   86     13.23      0.00
  -23   23   86    -67.92      0.00
  -20   23   86      4.56      0.00
  -17   23   86    -18.29      0.00
  -14   23   86     -8.52      0.00
  -11   23   86    -19.53      0.00
   -8   23   86    -15.11      0.00
   -5   23   86    -37.23      0.00
   -2   23   86     13.84      0.00
  -22   24   86      2.10      0.00
  -19   24   86      8.19      0.00
  -16   24   86     -6.44      0.00
  -13   24   86    -11.70      0.00
  -10   24   86      7.01      0.00
   -7   24   86    -25.71      0.00
   -4   24   86     -6.99      0.00
   -1   24   86     -7.69      0.00
  -24   25   86      8.54      0.00
  -21   25   86    -14.11      0.00
  -18   25   86      0.43      0.00
  -15   25   86     -9.48      0.00
  -12   25   86     -1.47      0.00
   -9   25   86    -12.78      0.00
   -6   25   86    -10.85      0.00
   -3   25   86     14.13      0.00
  -23   26   86     -5.94      0.00
  -20   26   86    -21.83      0.00
  -17   26   86      3.80      0.00
  -14   26   86    -18.75      0.00
  -11   26   86     -0.12      0.00
   -8   26   86      4.82      0.00
   -5   26   86     -4.85      0.00
  -22   27   86     26.14      0.00
  -19   27   86    -35.68      0.00
  -16   27   86     36.26      0.00
  -13   27   86     -5.08      0.00
  -10   27   86      6.28      0.00
   -7   27   86     -9.54      0.00
  -21   28   86     21.40      0.00
  -18   28   86    -10.98      0.00
  -15   28   86      1.14      0.00
  -12   28   86      3.56      0.00
   -9   28   86     17.92      0.00
  -20   29   86      1.53      0.00
  -17   29   86    -19.93      0.00
   -1    2   87      2.19      0.00
   -2    4   87      5.42      0.00
   -4    5   87     21.40      0.00
   -1    5   87    -13.98      0.00
   -3    6   87     11.78      0.00
   -5    7   87     -9.84      0.00
   -2    7   87      5.77      0.00
   -7    8   87     19.88      0.00
   -4    8   87     34.73      0.00
   -1    8   87     13.54      0.00
   -6    9   87      4.96      0.00
   -3    9   87     -0.22      0.00
   -8   10   87     -3.40      0.00
   -5   10   87    -13.03      0.00
   -2   10   87      4.48      0.00
  -10   11   87     17.65      0.00
   -7   11   87      4.13      0.00
   -4   11   87     16.18      0.00
   -1   11   87      7.47      0.00
   -9   12   87    -22.11      0.00
   -6   12   87     -1.02      0.00
   -3   12   87     -1.43      0.00
  -11   13   87     12.57      0.00
   -8   13   87     -8.99      0.00
   -5   13   87    -16.63      0.00
   -2   13   87      1.96      0.00
  -13   14   87     22.11      0.00
  -10   14   87      7.15      0.00
   -7   14   87      0.67      0.00
   -4   14   87     -8.64      0.00
   -1   14   87     19.88      0.00
  -12   15   87    -25.19      0.00
   -9   15   87      6.66      0.00
   -6   15   87    -18.45      0.00
   -3   15   87    -24.95      0.00
  -14   16   87     19.83      0.00
  -11   16   87     -5.49      0.00
   -8   16   87     -9.57      0.00
   -5   16   87     11.79      0.00
   -2   16   87     -6.99      0.00
  -16   17   87      4.30      0.00
  -13   17   87     25.30      0.00
  -10   17   87     -8.08      0.00
   -7   17   87      5.01      0.00
   -4   17   87     17.75      0.00
   -1   17   87     12.23      0.00
  -15   18   87     -6.43      0.00
  -12   18   87      6.98      0.00
   -9   18   87     -0.88      0.00
   -6   18   87      6.46      0.00
   -3   18   87     10.88      0.00
  -17   19   87     -3.68      0.00
  -14   19   87    -26.55      0.00
  -11   19   87     20.41      0.00
   -8   19   87     -4.12      0.00
   -5   19   87     16.99      0.00
   -2   19   87     -1.10      0.00
  -19   20   87     12.75      0.00
  -16   20   87     23.21      0.00
  -13   20   87      2.49      0.00
  -10   20   87     -5.05      0.00
   -7   20   87     15.13      0.00
   -4   20   87     16.09      0.00
   -1   20   87     18.74      0.00
  -18   21   87    -30.52      0.00
  -15   21   87    -26.45      0.00
  -12   21   87      6.89      0.00
   -9   21   87     -6.23      0.00
   -6   21   87     14.51      0.00
   -3   21   87      2.95      0.00
  -20   22   87     21.07      0.00
  -17   22   87     -1.71      0.00
  -14   22   87      8.79      0.00
  -11   22   87      6.54      0.00
   -8   22   87    -15.25      0.00
   -5   22   87      2.58      0.00
   -2   22   87     -4.62      0.00
  -22   23   87    -20.99      0.00
  -19   23   87    -26.29      0.00
  -16   23   87     10.08      0.00
  -13   23   87      4.65      0.00
  -10   23   87     -0.38      0.00
   -7   23   87     -5.77      0.00
   -4   23   87     19.36      0.00
   -1   23   87     -2.14      0.00
  -21   24   87     50.43      0.00
  -18   24   87     28.59      0.00
  -15   24   87     -3.41      0.00
  -12   24   87     25.75      0.00
   -9   24   87     11.05      0.00
   -6   24   87      0.23      0.00
   -3   24   87      3.25      0.00
  -23   25   87     15.99      0.00
  -20   25   87     -1.73      0.00
  -17   25   87     15.38      0.00
  -14   25   87     21.11      0.00
  -11   25   87      7.24      0.00
   -8   25   87     16.57      0.00
   -5   25   87     16.45      0.00
  -22   26   87     21.04      0.00
  -19   26   87     11.09      0.00
  -16   26   87     28.49      0.00
  -13   26   87     10.67      0.00
  -10   26   87     25.64      0.00
   -7   26   87      6.37      0.00
   -4   26   87      2.26      0.00
  -21   27   87     -5.62      0.00
  -18   27   87     13.53      0.00
  -12   27   87     51.12      0.00
   -9   27   87     14.19      0.00
  -20   28   87     43.05      0.00
  -17   28   87     -7.70      0.00
  -14   28   87     21.72      0.00
   -1    1   88    -17.33      0.00
    0    2   88     -7.02      0.00
   -2    3   88    -27.31      0.00
   -4    4   88      7.54      0.00
   -1    4   88    -24.99      0.00
   -3    5   88    -12.23      0.00
    0    5   88    -22.86      0.00
   -5    6   88    -17.95      0.00
   -2    6   88      1.34      0.00
   -7    7   88    -17.99      0.00
   -4    7   88     13.71      0.00
   -1    7   88     -2.82      0.00
   -6    8   88    -19.52      0.00
   -3    8   88    -36.14      0.00
    0    8   88      4.44      0.00
   -8    9   88      8.16      0.00
   -5    9   88      2.41      0.00
   -2    9   88    -17.97      0.00
  -10   10   88    -14.58      0.00
   -7   10   88     -3.96      0.00
   -4   10   88     -4.84      0.00
   -1   10   88     11.30      0.00
   -9   11   88     -9.60      0.00
   -6   11   88    -12.25      0.00
   -3   11   88      4.09      0.00
    0   11   88    -17.12      0.00
  -11   12   88     19.69      0.00
   -8   12   88     12.70      0.00
   -5   12   88      3.93      0.00
   -2   12   88     16.61      0.00
  -13   13   88     -0.55      0.00
  -10   13   88     35.26      0.00
   -7   13   88     19.48      0.00
   -4   13   88    -15.70      0.00
   -1   13   88      9.04      0.00
  -12   14   88     23.24      0.00
   -9   14   88    -13.54      0.00
   -6   14   88      4.52      0.00
   -3   14   88    -25.58      0.00
    0   14   88     -0.64      0.00
  -14   15   88     48.75      0.00
  -11   15   88      1.49      0.00
   -8   15   88    -12.48      0.00
   -5   15   88     -5.43      0.00
   -2   15   88      2.08      0.00
  -16   16   88    -26.61      0.00
  -13   16   88     20.51      0.00
  -10   16   88      3.08      0.00
   -7   16   88    -26.37      0.00
   -4   16   88     -9.80      0.00
   -1   16   88    -20.63      0.00
  -15   17   88     11.35      0.00
  -12   17   88     -8.17      0.00
   -9   17   88     -4.98      0.00
   -6   17   88     -9.61      0.00
   -3   17   88     -0.99      0.00
    0   17   88    -28.21      0.00
  -17   18   88      7.43      0.00
  -14   18   88     12.12      0.00
  -11   18   88    -38.58      0.00
   -8   18   88     -8.92      0.00
   -5   18   88    -13.39      0.00
   -2   18   88    -15.95      0.00
  -19   19   88    -10.38      0.00
  -16   19   88      1.54      0.00
  -13   19   88     -2.94      0.00
  -10   19   88    -29.32      0.00
   -7   19   88      2.68      0.00
   -4   19   88      0.72      0.00
   -1   19   88    -11.89      0.00
  -18   20   88      2.31      0.00
  -15   20   88     10.96      0.00
  -12   20   88      4.11      0.00
   -9   20   88     -2.27      0.00
   -6   20   88     13.27      0.00
   -3   20   88     25.72      0.00
    0   20   88      4.24      0.00
  -20   21   88     21.83      0.00
  -17   21   88      7.41      0.00
  -14   21   88      3.74      0.00
  -11   21   88     -8.39      0.00
   -8   21   88     -8.54      0.00
   -5   21   88    -15.99      0.00
   -2   21   88     12.74      0.00
  -22   22   88    -11.80      0.00
  -19   22   88     24.62      0.00
  -16   22   88    -11.06      0.00
  -13   22   88     11.83      0.00
  -10   22   88     -6.12      0.00
   -7   22   88     -5.21      0.00
   -4   22   88     19.36      0.00
   -1   22   88     10.27      0.00
  -21   23   88    -25.03      0.00
  -18   23   88     26.30      0.00
  -15   23   88      2.13      0.00
  -12   23   88     -9.31      0.00
   -9   23   88     -0.61      0.00
   -6   23   88     29.06      0.00
   -3   23   88     14.74      0.00
    0   23   88     20.55      0.00
  -23   24   88     -3.09      0.00
  -20   24   88     15.17      0.00
  -17   24   88      6.20      0.00
  -14   24   88    -17.18      0.00
  -11   24   88     -9.38      0.00
   -8   24   88     -0.75      0.00
   -5   24   88     17.24      0.00
   -2   24   88      3.91      0.00
  -22   25   88     46.45      0.00
  -19   25   88    -37.48      0.00
  -16   25   88     22.99      0.00
  -13   25   88     17.78      0.00
  -10   25   88     -6.38      0.00
   -7   25   88     -2.68      0.00
   -4   25   88     48.18      0.00
  -21   26   88     -2.44      0.00
  -18   26   88    -18.10      0.00
  -15   26   88     16.48      0.00
  -12   26   88     -6.58      0.00
   -9   26   88     22.46      0.00
   -6   26   88     16.75      0.00
  -20   27   88      2.20      0.00
  -17   27   88     -0.12      0.00
  -11   27   88     15.14      0.00
   -8   27   88     20.06      0.00
   -1    3   89     -8.34      0.00
   -3    4   89     -0.52      0.00
   -2    5   89     10.62      0.00
   -4    6   89      2.65      0.00
   -1    6   89     16.16      0.00
   -6    7   89     28.70      0.00
   -3    7   89    -11.27      0.00
   -5    8   89     14.56      0.00
   -2    8   89      4.14      0.00
   -7    9   89     -5.10      0.00
   -4    9   89     26.04      0.00
   -1    9   89    -18.16      0.00
   -9   10   89      0.14      0.00
   -6   10   89     43.51      0.00
   -3   10   89     -0.60      0.00
   -8   11   89     -7.93      0.00
   -5   11   89      4.43      0.00
   -2   11   89     19.26      0.00
  -10   12   89     -4.33      0.00
   -7   12   89     -9.43      0.00
   -4   12   89     -6.31      0.00
   -1   12   89     17.97      0.00
  -12   13   89     11.06      0.00
   -9   13   89     18.19      0.00
   -6   13   89     -0.16      0.00
   -3   13   89     16.49      0.00
  -11   14   89    -16.67      0.00
   -8   14   89    -29.37      0.00
   -5   14   89    -18.63      0.00
   -2   14   89     12.33      0.00
  -13   15   89     -0.53      0.00
  -10   15   89    -13.75      0.00
   -7   15   89     -0.52      0.00
   -4   15   89     -0.39      0.00
   -1   15   89      8.20      0.00
  -15   16   89     11.10      0.00
  -12   16   89     -2.80      0.00
   -9   16   89     -8.27      0.00
   -6   16   89      2.97      0.00
   -3   16   89      6.20      0.00
  -14   17   89    -17.97      0.00
  -11   17   89     -4.01      0.00
   -8   17   89     -3.02      0.00
   -5   17   89     -3.97      0.00
   -2   17   89     -5.92      0.00
  -16   18   89     29.97      0.00
  -13   18   89     -6.08      0.00
  -10   18   89      3.04      0.00
   -7   18   89      9.51      0.00
   -4   18   89     18.66      0.00
   -1   18   89     -2.58      0.00
  -18   19   89    -34.20      0.00
  -15   19   89    -15.76      0.00
  -12   19   89      0.54      0.00
   -9   19   89      1.40      0.00
   -6   19   89    -18.04      0.00
   -3   19   89    -15.76      0.00
  -17   20   89     12.31      0.00
  -14   20   89     12.27      0.00
  -11   20   89     15.67      0.00
   -8   20   89      9.93      0.00
   -5   20   89     16.88      0.00
   -2   20   89    -32.43      0.00
  -19   21   89      2.13      0.00
  -16   21   89     -0.56      0.00
  -13   21   89     -9.28      0.00
  -10   21   89    -18.56      0.00
   -7   21   89     -3.32      0.00
   -4   21   89    -11.41      0.00
   -1   21   89    -13.30      0.00
  -21   22   89     33.85      0.00
  -18   22   89     -9.67      0.00
  -15   22   89    -15.02      0.00
  -12   22   89    -20.48      0.00
   -9   22   89     -3.09      0.00
   -6   22   89      2.29      0.00
   -3   22   89     -2.56      0.00
  -20   23   89     -9.05      0.00
  -17   23   89    -10.67      0.00
  -14   23   89    -11.25      0.00
  -11   23   89    -21.57      0.00
   -8   23   89    -13.03      0.00
   -5   23   89      2.76      0.00
   -2   23   89     -8.35      0.00
  -22   24   89     13.04      0.00
  -19   24   89     29.11      0.00
  -16   24   89      9.66      0.00
  -13   24   89    -20.65      0.00
  -10   24   89    -11.31      0.00
   -7   24   89    -32.94      0.00
   -4   24   89     -0.03      0.00
  -21   25   89    -28.25      0.00
  -18   25   89    -18.57      0.00
  -15   25   89    -14.71      0.00
  -12   25   89     -2.49      0.00
   -9   25   89    -33.79      0.00
   -6   25   89     20.66      0.00
  -20   26   89     10.85      0.00
  -17   26   89     14.74      0.00
  -14   26   89      6.81      0.00
  -11   26   89    -33.54      0.00
   -8   26   89    -12.59      0.00
  -19   27   89      4.88      0.00
   -7   27   89    -31.44      0.00
    0    0   90     74.90      0.00
   -1    2   90      7.13      0.00
   -3    3   90      3.99      0.00
    0    3   90    -32.76      0.00
   -2    4   90     19.37      0.00
   -4    5   90    -10.54      0.00
   -1    5   90     23.68      0.00
   -6    6   90    -13.51      0.00
   -3    6   90     -1.02      0.00
    0    6   90      5.00      0.00
   -5    7   90      8.49      0.00
   -2    7   90      9.81      0.00
   -7    8   90      2.33      0.00
   -4    8   90      2.97      0.00
   -1    8   90      6.49      0.00
   -9    9   90    -34.05      0.00
   -6    9   90    -17.06      0.00
   -3    9   90     19.68      0.00
    0    9   90    -46.30      0.00
   -8   10   90    -25.20      0.00
   -5   10   90    -11.35      0.00
   -2   10   90     -2.43      0.00
  -10   11   90      4.86      0.00
   -7   11   90    -13.86      0.00
   -4   11   90    -18.54      0.00
   -1   11   90      4.35      0.00
  -12   12   90    -22.80      0.00
   -9   12   90    -32.32      0.00
   -6   12   90      0.17      0.00
   -3   12   90    -32.06      0.00
    0   12   90     24.48      0.00
  -11   13   90     -2.63      0.00
   -8   13   90      8.01      0.00
   -5   13   90      0.41      0.00
   -2   13   90    -12.32      0.00
  -13   14   90     -5.26      0.00
  -10   14   90      0.38      0.00
   -7   14   90    -20.59      0.00
   -4   14   90      8.07      0.00
   -1   14   90      8.33      0.00
  -15   15   90    -44.14      0.00
  -12   15   90     -6.28      0.00
   -9   15   90    -17.08      0.00
   -6   15   90    -20.03      0.00
   -3   15   90     -3.32      0.00
    0   15   90    -23.34      0.00
  -14   16   90    -14.61      0.00
  -11   16   90    -17.54      0.00
   -8   16   90     -0.66      0.00
   -5   16   90      6.99      0.00
   -2   16   90      5.88      0.00
  -16   17   90    -39.74      0.00
  -13   17   90     -3.03      0.00
  -10   17   90      1.88      0.00
   -7   17   90    -18.83      0.00
   -4   17   90    -20.98      0.00
   -1   17   90    -12.67      0.00
  -18   18   90    -30.07      0.00
  -15   18   90     -3.01      0.00
  -12   18   90    -21.87      0.00
   -9   18   90    -16.15      0.00
   -6   18   90     13.49      0.00
   -3   18   90    -27.55      0.00
    0   18   90      2.44      0.00
  -17   19   90    -33.32      0.00
  -14   19   90      1.74      0.00
  -11   19   90    -20.89      0.00
   -8   19   90      4.37      0.00
   -5   19   90     13.29      0.00
   -2   19   90      4.79      0.00
  -19   20   90    -15.12      0.00
  -16   20   90    -18.77      0.00
  -13   20   90     10.21      0.00
  -10   20   90     -5.09      0.00
   -7   20   90     13.96      0.00
   -4   20   90     -1.43      0.00
   -1   20   90      9.54      0.00
  -21   21   90     -1.91      0.00
  -18   21   90     32.59      0.00
  -15   21   90    -12.87      0.00
  -12   21   90     13.03      0.00
   -9   21   90     12.34      0.00
   -6   21   90     10.20      0.00
   -3   21   90    -10.47      0.00
    0   21   90      3.21      0.00
  -20   22   90     13.44      0.00
  -17   22   90     -7.63      0.00
  -14   22   90    -16.27      0.00
  -11   22   90    -12.32      0.00
   -8   22   90     25.43      0.00
   -5   22   90      8.01      0.00
   -2   22   90    -32.36      0.00
  -19   23   90    -21.10      0.00
  -16   23   90      0.65      0.00
  -13   23   90     15.61      0.00
  -10   23   90      6.24      0.00
   -7   23   90     25.20      0.00
   -4   23   90      9.81      0.00
  -21   24   90     -2.70      0.00
  -18   24   90    -29.07      0.00
  -15   24   90     -0.24      0.00
  -12   24   90    -17.70      0.00
   -9   24   90      5.47      0.00
   -6   24   90    -16.38      0.00
  -20   25   90     42.89      0.00
  -17   25   90      2.09      0.00
  -14   25   90     -6.86      0.00
   -8   25   90     -3.82      0.00
   -5   25   90     -0.03      0.00
  -19   26   90     -7.33      0.00
  -10   26   90     11.60      0.00
   -7   26   90     19.94      0.00
   -2    3   91     17.46      0.00
   -1    4   91    -25.68      0.00
   -3    5   91      0.56      0.00
   -5    6   91     -8.11      0.00
   -2    6   91     -8.49      0.00
   -4    7   91    -12.34      0.00
   -1    7   91    -23.66      0.00
   -6    8   91      3.23      0.00
   -3    8   91     -8.47      0.00
   -8    9   91      6.95      0.00
   -5    9   91     -6.05      0.00
   -2    9   91      0.12      0.00
   -7   10   91     -6.45      0.00
   -4   10   91      1.25      0.00
   -1   10   91     -3.68      0.00
   -9   11   91     -7.69      0.00
   -6   11   91     -3.44      0.00
   -3   11   91     -9.39      0.00
  -11   12   91    -14.74      0.00
   -8   12   91      5.58      0.00
   -5   12   91    -13.92      0.00
   -2   12   91     16.04      0.00
  -10   13   91      3.91      0.00
   -7   13   91    -13.25      0.00
   -4   13   91    -10.54      0.00
   -1   13   91     16.70      0.00
  -12   14   91      0.53      0.00
   -9   14   91    -30.93      0.00
   -6   14   91      3.53      0.00
   -3   14   91     -9.42      0.00
  -14   15   91     13.89      0.00
  -11   15   91      2.30      0.00
   -8   15   91    -14.31      0.00
   -5   15   91    -12.20      0.00
   -2   15   91      0.67      0.00
  -13   16   91    -19.30      0.00
  -10   16   91     -4.56      0.00
   -7   16   91      8.44      0.00
   -4   16   91     -6.71      0.00
   -1   16   91      3.60      0.00
  -15   17   91     23.33      0.00
  -12   17   91     22.98      0.00
   -9   17   91     -1.23      0.00
   -6   17   91    -14.82      0.00
   -3   17   91     14.72      0.00
  -17   18   91     20.18      0.00
  -14   18   91      5.54      0.00
  -11   18   91      1.71      0.00
   -8   18   91    -28.84      0.00
   -5   18   91    -24.20      0.00
   -2   18   91     13.22      0.00
  -16   19   91      6.92      0.00
  -13   19   91    -17.01      0.00
  -10   19   91     13.32      0.00
   -7   19   91      5.03      0.00
   -4   19   91     -9.30      0.00
   -1   19   91    -11.11      0.00
  -18   20   91      7.20      0.00
  -15   20   91     31.70      0.00
  -12   20   91     -7.62      0.00
   -9   20   91      6.29      0.00
   -6   20   91     -6.00      0.00
   -3   20   91    -29.45      0.00
  -20   21   91     -5.63      0.00
  -17   21   91      3.99      0.00
  -14   21   91     24.45      0.00
  -11   21   91    -20.92      0.00
   -8   21   91      7.08      0.00
   -5   21   91    -12.78      0.00
   -2   21   91    -22.57      0.00
  -19   22   91    -14.21      0.00
  -16   22   91     -5.08      0.00
  -13   22   91      6.32      0.00
  -10   22   91     12.90      0.00
   -7   22   91     15.98      0.00
   -4   22   91      6.12      0.00
  -18   23   91    -16.62      0.00
  -15   23   91    -24.28      0.00
  -12   23   91    -13.99      0.00
   -9   23   91      2.74      0.00
   -6   23   91    -18.42      0.00
  -20   24   91     35.28      0.00
  -17   24   91     26.98      0.00
  -14   24   91      8.96      0.00
  -11   24   91    -12.82      0.00
   -8   24   91    -21.26      0.00
   -5   24   91     11.28      0.00
  -19   25   91     -4.90      0.00
  -16   25   91      9.53      0.00
  -10   25   91    -18.22      0.00
   -7   25   91      2.21      0.00
  -18   26   91     -9.72      0.00
    0    1   92      4.08      0.00
   -2    2   92    -16.93      0.00
   -1    3   92      1.69      0.00
   -3    4   92    -10.29      0.00
    0    4   92     -7.27      0.00
   -5    5   92    -32.93      0.00
   -2    5   92    -39.77      0.00
   -4    6   92    -17.01      0.00
   -1    6   92      8.44      0.00
   -6    7   92      9.55      0.00
   -3    7   92     -3.99      0.00
    0    7   92    -49.37      0.00
   -8    8   92      6.31      0.00
   -5    8   92     -1.55      0.00
   -2    8   92     -8.04      0.00
   -7    9   92      2.15      0.00
   -4    9   92     -5.78      0.00
   -1    9   92    -16.47      0.00
   -9   10   92     18.38      0.00
   -6   10   92    -27.64      0.00
   -3   10   92    -19.39      0.00
    0   10   92    -11.24      0.00
  -11   11   92     -2.19      0.00
   -8   11   92      0.93      0.00
   -5   11   92      5.28      0.00
   -2   11   92    -29.01      0.00
  -10   12   92    -18.80      0.00
   -7   12   92     -1.54      0.00
   -4   12   92     -2.39      0.00
   -1   12   92     28.63      0.00
  -12   13   92     10.11      0.00
   -9   13   92     16.37      0.00
   -6   13   92      3.67      0.00
   -3   13   92     16.01      0.00
    0   13   92    -10.41      0.00
  -14   14   92    -22.13      0.00
  -11   14   92    -19.67      0.00
   -8   14   92     24.11      0.00
   -5   14   92      9.76      0.00
   -2   14   92     15.28      0.00
  -13   15   92     -9.54      0.00
  -10   15   92     28.63      0.00
   -7   15   92     -1.64      0.00
   -4   15   92     -3.36      0.00
   -1   15   92    -10.82      0.00
  -15   16   92    -14.68      0.00
  -12   16   92     21.88      0.00
   -9   16   92     16.51      0.00
   -6   16   92      3.43      0.00
   -3   16   92     10.93      0.00
    0   16   92     24.68      0.00
  -17   17   92    -31.03      0.00
  -14   17   92      7.27      0.00
  -11   17   92     10.62      0.00
   -8   17   92      1.59      0.00
   -5   17   92    -26.50      0.00
   -2   17   92    -13.02      0.00
  -16   18   92      7.50      0.00
  -13   18   92    -13.43      0.00
  -10   18   92      4.87      0.00
   -7   18   92     -4.42      0.00
   -4   18   92     39.42      0.00
   -1   18   92     15.09      0.00
  -18   19   92     12.19      0.00
  -15   19   92     -9.14      0.00
  -12   19   92      8.88      0.00
   -9   19   92    -12.60      0.00
   -6   19   92      8.61      0.00
   -3   19   92     10.77      0.00
    0   19   92     16.65      0.00
  -20   20   92      7.85      0.00
  -17   20   92      9.41      0.00
  -14   20   92     18.92      0.00
  -11   20   92     31.39      0.00
   -8   20   92      3.20      0.00
   -5   20   92     16.84      0.00
   -2   20   92     11.06      0.00
  -19   21   92     10.57      0.00
  -16   21   92     14.92      0.00
  -13   21   92      9.59      0.00
  -10   21   92     12.92      0.00
   -7   21   92     10.49      0.00
   -4   21   92     -0.23      0.00
   -1   21   92     36.34      0.00
  -18   22   92    -12.25      0.00
  -15   22   92    -13.20      0.00
  -12   22   92      2.35      0.00
   -9   22   92     16.57      0.00
   -6   22   92      5.23      0.00
   -3   22   92     14.85      0.00
  -20   23   92     19.00      0.00
  -17   23   92     17.78      0.00
  -14   23   92     -1.61      0.00
  -11   23   92     -5.35      0.00
   -8   23   92      2.00      0.00
   -5   23   92    -30.05      0.00
  -19   24   92    -24.48      0.00
  -16   24   92      5.44      0.00
  -10   24   92     -1.41      0.00
   -7   24   92     -6.82      0.00
  -18   25   92      7.30      0.00
   -9   25   92      9.14      0.00
   -1    2   93    -14.13      0.00
   -2    4   93     -1.73      0.00
   -4    5   93     14.73      0.00
   -1    5   93     -4.71      0.00
   -3    6   93      7.62      0.00
   -5    7   93     22.91      0.00
   -2    7   93     -3.98      0.00
   -7    8   93     -2.33      0.00
   -4    8   93    -14.50      0.00
   -1    8   93      8.13      0.00
   -6    9   93      3.45      0.00
   -3    9   93     -2.90      0.00
   -8   10   93      3.69      0.00
   -5   10   93    -12.44      0.00
   -2   10   93     11.98      0.00
  -10   11   93     30.00      0.00
   -7   11   93    -17.97      0.00
   -4   11   93     -3.75      0.00
   -1   11   93     13.56      0.00
   -9   12   93    -16.27      0.00
   -6   12   93     18.91      0.00
   -3   12   93      8.77      0.00
  -11   13   93     20.61      0.00
   -8   13   93     -7.53      0.00
   -5   13   93     -6.90      0.00
   -2   13   93     13.50      0.00
  -13   14   93      5.39      0.00
  -10   14   93     17.73      0.00
   -7   14   93     -3.17      0.00
   -4   14   93    -18.66      0.00
   -1   14   93    -13.09      0.00
  -12   15   93     38.50      0.00
   -9   15   93     11.35      0.00
   -6   15   93      3.15      0.00
   -3   15   93      6.89      0.00
  -14   16   93     29.39      0.00
  -11   16   93      6.25      0.00
   -8   16   93      5.23      0.00
   -5   16   93     -0.09      0.00
   -2   16   93      3.88      0.00
  -16   17   93     21.76      0.00
  -13   17   93     -9.30      0.00
  -10   17   93     23.77      0.00
   -7   17   93    -11.55      0.00
   -4   17   93    -10.96      0.00
   -1   17   93     26.45      0.00
  -15   18   93     -5.67      0.00
  -12   18   93     -4.51      0.00
   -9   18   93     -8.25      0.00
   -6   18   93    -11.69      0.00
   -3   18   93      0.93      0.00
  -17   19   93     -1.32      0.00
  -14   19   93      4.36      0.00
  -11   19   93     -4.67      0.00
   -8   19   93     10.61      0.00
   -5   19   93      1.44      0.00
   -2   19   93      0.02      0.00
  -19   20   93    -23.68      0.00
  -16   20   93    -10.49      0.00
  -13   20   93     12.89      0.00
  -10   20   93    -13.21      0.00
   -7   20   93    -14.28      0.00
   -4   20   93    -17.89      0.00
   -1   20   93    -11.29      0.00
  -18   21   93     13.05      0.00
  -15   21   93    -26.82      0.00
  -12   21   93     26.22      0.00
   -9   21   93      1.75      0.00
   -6   21   93    -23.87      0.00
   -3   21   93     -2.04      0.00
  -20   22   93      7.25      0.00
  -17   22   93      3.24      0.00
  -14   22   93    -23.22      0.00
  -11   22   93     -6.37      0.00
   -8   22   93     -2.34      0.00
   -5   22   93      8.54      0.00
  -19   23   93    -11.20      0.00
  -16   23   93      4.35      0.00
  -13   23   93     -0.89      0.00
  -10   23   93    -13.72      0.00
   -7   23   93    -33.92      0.00
  -18   24   93     21.92      0.00
  -15   24   93     31.10      0.00
   -9   24   93    -20.11      0.00
   -6   24   93    -29.75      0.00
  -17   25   93     -4.13      0.00
   -1    1   94     47.53      0.00
    0    2   94    -33.21      0.00
   -2    3   94     -5.97      0.00
   -4    4   94      3.81      0.00
   -1    4   94     21.90      0.00
   -3    5   94     18.83      0.00
    0    5   94     -4.60      0.00
   -5    6   94     -2.66      0.00
   -2    6   94      6.25      0.00
   -7    7   94    -26.41      0.00
   -4    7   94    -12.40      0.00
   -1    7   94     -5.76      0.00
   -6    8   94    -33.92      0.00
   -3    8   94      4.95      0.00
    0    8   94    -27.47      0.00
   -8    9   94     -4.98      0.00
   -5    9   94    -19.51      0.00
   -2    9   94    -14.14      0.00
  -10   10   94    -32.87      0.00
   -7   10   94     10.91      0.00
   -4   10   94    -24.93      0.00
   -1   10   94     32.45      0.00
   -9   11   94     -6.37      0.00
   -6   11   94     -7.71      0.00
   -3   11   94     26.20      0.00
    0   11   94     37.56      0.00
  -11   12   94     -2.15      0.00
   -8   12   94    -11.76      0.00
   -5   12   94     24.32      0.00
   -2   12   94      5.21      0.00
  -13   13   94      5.67      0.00
  -10   13   94      6.33      0.00
   -7   13   94     11.62      0.00
   -4   13   94     18.60      0.00
   -1   13   94      9.65      0.00
  -12   14   94     28.61      0.00
   -9   14   94      3.30      0.00
   -6   14   94      7.01      0.00
   -3   14   94     27.09      0.00
    0   14   94     17.82      0.00
  -14   15   94      6.90      0.00
  -11   15   94     -3.52      0.00
   -8   15   94      5.44      0.00
   -5   15   94     -9.00      0.00
   -2   15   94      4.88      0.00
  -16   16   94     17.07      0.00
  -13   16   94      5.54      0.00
  -10   16   94     -4.40      0.00
   -7   16   94     -8.78      0.00
   -4   16   94      5.10      0.00
   -1   16   94      7.76      0.00
  -15   17   94     -6.45      0.00
  -12   17   94     -2.72      0.00
   -9   17   94    -11.19      0.00
   -6   17   94    -18.27      0.00
   -3   17   94     20.29      0.00
    0   17   94    -18.80      0.00
  -17   18   94      1.81      0.00
  -14   18   94     19.95      0.00
  -11   18   94    -22.10      0.00
   -8   18   94    -13.83      0.00
   -5   18   94     44.10      0.00
   -2   18   94     12.03      0.00
  -19   19   94      5.17      0.00
  -16   19   94     -7.67      0.00
  -13   19   94    -11.35      0.00
  -10   19   94     15.15      0.00
   -7   19   94     -5.71      0.00
   -4   19   94     -0.44      0.00
   -1   19   94     -8.53      0.00
  -18   20   94     26.00      0.00
  -15   20   94     14.34      0.00
  -12   20   94      8.78      0.00
   -9   20   94     15.22      0.00
   -6   20   94     14.72      0.00
   -3   20   94     25.08      0.00
  -20   21   94     23.91      0.00
  -17   21   94     10.31      0.00
  -14   21   94     20.78      0.00
  -11   21   94     -1.13      0.00
   -8   21   94     -0.27      0.00
   -5   21   94     20.77      0.00
  -16   22   94     10.79      0.00
  -13   22   94     -4.83      0.00
  -10   22   94     -1.05      0.00
   -7   22   94     -4.06      0.00
   -4   22   94     15.98      0.00
  -18   23   94     16.37      0.00
  -15   23   94     22.51      0.00
   -9   23   94     -2.85      0.00
   -6   23   94    -47.59      0.00
  -17   24   94    -16.53      0.00
   -8   24   94    -19.18      0.00
   -1    3   95     -9.75      0.00
   -3    4   95      6.19      0.00
   -2    5   95    -23.51      0.00
   -4    6   95      0.83      0.00
   -1    6   95    -21.83      0.00
   -6    7   95     11.36      0.00
   -3    7   95     12.93      0.00
   -5    8   95     13.82      0.00
   -2    8   95      2.22      0.00
   -7    9   95      5.90      0.00
   -4    9   95     18.32      0.00
   -1    9   95     19.51      0.00
   -9   10   95      6.89      0.00
   -6   10   95      5.32      0.00
   -3   10   95      4.18      0.00
   -8   11   95     -8.88      0.00
   -5   11   95     13.64      0.00
   -2   11   95      7.18      0.00
  -10   12   95      8.86      0.00
   -7   12   95     10.87      0.00
   -4   12   95     -3.55      0.00
   -1   12   95     26.41      0.00
  -12   13   95     10.64      0.00
   -9   13   95      1.73      0.00
   -6   13   95    -11.50      0.00
   -3   13   95      7.72      0.00
  -11   14   95     19.04      0.00
   -8   14   95    -11.03      0.00
   -5   14   95    -15.57      0.00
   -2   14   95      8.39      0.00
  -13   15   95     28.65      0.00
  -10   15   95     12.02      0.00
   -7   15   95      6.61      0.00
   -4   15   95    -13.38      0.00
   -1   15   95    -12.15      0.00
  -15   16   95      1.31      0.00
  -12   16   95     -2.15      0.00
   -9   16   95      8.03      0.00
   -6   16   95     10.88      0.00
   -3   16   95     -8.10      0.00
  -14   17   95     19.56      0.00
  -11   17   95      1.72      0.00
   -8   17   95     26.44      0.00
   -5   17   95     24.81      0.00
   -2   17   95     18.93      0.00
  -16   18   95     -6.20      0.00
  -13   18   95     -9.60      0.00
  -10   18   95     11.67      0.00
   -7   18   95     13.68      0.00
   -4   18   95      7.69      0.00
   -1   18   95    -16.32      0.00
  -18   19   95     29.74      0.00
  -15   19   95    -12.71      0.00
  -12   19   95     28.74      0.00
   -9   19   95      6.22      0.00
   -6   19   95      6.63      0.00
   -3   19   95    -31.35      0.00
  -17   20   95    -19.39      0.00
  -14   20   95    -24.54      0.00
  -11   20   95     10.19      0.00
   -8   20   95     -4.08      0.00
   -5   20   95     24.96      0.00
  -19   21   95      8.59      0.00
  -16   21   95     26.96      0.00
  -13   21   95      8.45      0.00
  -10   21   95     10.11      0.00
   -7   21   95     -0.33      0.00
   -4   21   95      5.13      0.00
  -18   22   95    -10.67      0.00
  -15   22   95     -4.17      0.00
   -9   22   95     -7.57      0.00
   -6   22   95    -28.46      0.00
  -14   23   95    -17.59      0.00
  -16   24   95     13.85      0.00
    0    0   96    -18.90      0.00
   -1    2   96     12.67      0.00
   -3    3   96     14.78      0.00
    0    3   96    -14.84      0.00
   -2    4   96    -19.12      0.00
   -4    5   96     22.81      0.00
   -1    5   96     16.68      0.00
   -6    6   96    -23.50      0.00
   -3    6   96     24.56      0.00
    0    6   96    -10.30      0.00
   -5    7   96      3.52      0.00
   -2    7   96      8.00      0.00
   -7    8   96    -17.90      0.00
   -4    8   96    -13.99      0.00
   -1    8   96      0.68      0.00
   -9    9   96     -9.43      0.00
   -6    9   96      0.07      0.00
   -3    9   96     -4.33      0.00
    0    9   96     -4.28      0.00
   -8   10   96    -21.58      0.00
   -5   10   96    -10.71      0.00
   -2   10   96    -28.75      0.00
  -10   11   96      4.25      0.00
   -7   11   96    -11.43      0.00
   -4   11   96     11.40      0.00
   -1   11   96     -3.37      0.00
  -12   12   96      7.04      0.00
   -9   12   96     14.66      0.00
   -6   12   96    -18.55      0.00
   -3   12   96    -12.26      0.00
    0   12   96    -29.77      0.00
  -11   13   96     -0.14      0.00
   -8   13   96      4.74      0.00
   -5   13   96    -14.08      0.00
   -2   13   96     -9.08      0.00
  -13   14   96     10.12      0.00
  -10   14   96    -11.01      0.00
   -7   14   96      4.86      0.00
   -4   14   96    -35.53      0.00
   -1   14   96      1.25      0.00
  -15   15   96    -13.76      0.00
  -12   15   96      3.51      0.00
   -9   15   96     -3.93      0.00
   -6   15   96     -4.78      0.00
   -3   15   96      5.50      0.00
    0   15   96     -0.11      0.00
  -14   16   96     11.06      0.00
  -11   16   96    -17.81      0.00
   -8   16   96    -13.03      0.00
   -5   16   96      7.49      0.00
   -2   16   96     -5.28      0.00
  -16   17   96    -27.85      0.00
  -13   17   96     20.23      0.00
  -10   17   96     -0.14      0.00
   -7   17   96     -6.90      0.00
   -4   17   96    -24.20      0.00
   -1   17   96     -9.16      0.00
  -18   18   96    -13.68      0.00
  -15   18   96     -0.67      0.00
  -12   18   96     -4.30      0.00
   -9   18   96      0.07      0.00
   -6   18   96      5.43      0.00
   -3   18   96      0.31      0.00
  -17   19   96    -11.58      0.00
  -14   19   96     18.86      0.00
  -11   19   96    -13.43      0.00
   -8   19   96    -24.15      0.00
   -5   19   96     -5.04      0.00
   -2   19   96    -15.84      0.00
  -19   20   96     26.84      0.00
  -16   20   96     20.32      0.00
  -13   20   96     18.85      0.00
  -10   20   96     19.19      0.00
   -7   20   96     32.45      0.00
   -4   20   96     -2.04      0.00
  -18   21   96     22.44      0.00
  -15   21   96      6.14      0.00
  -12   21   96     38.07      0.00
   -9   21   96     14.60      0.00
   -6   21   96    -11.27      0.00
  -14   22   96     21.94      0.00
   -5   22   96     -4.49      0.00
   -2    3   97    -13.56      0.00
   -1    4   97     -8.64      0.00
   -3    5   97     -6.28      0.00
   -5    6   97     -0.33      0.00
   -2    6   97    -11.05      0.00
   -4    7   97    -20.39      0.00
   -1    7   97     -2.60      0.00
   -6    8   97      7.36      0.00
   -3    8   97     -2.99      0.00
   -8    9   97    -12.51      0.00
   -5    9   97     29.61      0.00
   -2    9   97     -1.09      0.00
   -7   10   97      1.39      0.00
   -4   10   97    -10.15      0.00
   -1   10   97      8.53      0.00
   -9   11   97     -5.30      0.00
   -6   11   97     11.01      0.00
   -3   11   97     13.43      0.00
  -11   12   97     -7.33      0.00
   -8   12   97     -6.45      0.00
   -5   12   97     -7.09      0.00
   -2   12   97      4.91      0.00
  -10   13   97    -11.44      0.00
   -7   13   97    -26.88      0.00
   -4   13   97    -11.61      0.00
   -1   13   97     11.61      0.00
  -12   14   97     -7.51      0.00
   -9   14   97     -1.79      0.00
   -6   14   97    -21.33      0.00
   -3   14   97     17.79      0.00
  -14   15   97     -3.77      0.00
  -11   15   97      7.45      0.00
   -8   15   97    -17.82      0.00
   -5   15   97    -25.71      0.00
   -2   15   97     11.12      0.00
  -13   16   97      4.24      0.00
  -10   16   97     12.55      0.00
   -7   16   97     38.24      0.00
   -4   16   97     -1.65      0.00
   -1   16   97      8.80      0.00
  -15   17   97     33.04      0.00
  -12   17   97    -12.28      0.00
   -9   17   97     -4.76      0.00
   -6   17   97     -2.95      0.00
   -3   17   97      7.49      0.00
  -17   18   97      2.74      0.00
  -14   18   97    -15.21      0.00
  -11   18   97     -7.23      0.00
   -8   18   97     -5.06      0.00
   -5   18   97      8.34      0.00
   -2   18   97      2.59      0.00
  -16   19   97     19.27      0.00
  -13   19   97     15.80      0.00
  -10   19   97     -6.47      0.00
   -7   19   97      6.58      0.00
   -4   19   97     35.05      0.00
  -18   20   97      5.86      0.00
  -15   20   97      4.40      0.00
  -12   20   97     -4.12      0.00
   -9   20   97     17.65      0.00
   -6   20   97     12.31      0.00
  -11   21   97    -26.66      0.00
   -8   21   97     28.77      0.00
   -5   21   97      2.72      0.00
  -13   22   97     -2.83      0.00
   -7   22   97     27.13      0.00
    0    1   98     -9.21      0.00
   -2    2   98    -29.05      0.00
   -1    3   98    -30.62      0.00
   -3    4   98     -4.19      0.00
    0    4   98    -27.96      0.00
   -5    5   98    -14.15      0.00
   -2    5   98      2.87      0.00
   -4    6   98    -31.65      0.00
   -1    6   98     18.30      0.00
   -6    7   98      6.78      0.00
   -3    7   98     22.98      0.00
    0    7   98      4.42      0.00
   -8    8   98     -0.07      0.00
   -5    8   98    -18.92      0.00
   -2    8   98     18.13      0.00
   -7    9   98     -4.18      0.00
   -4    9   98     28.57      0.00
   -1    9   98     -0.90      0.00
   -9   10   98      2.36      0.00
   -6   10   98    -30.09      0.00
   -3   10   98      6.61      0.00
    0   10   98     20.25      0.00
  -11   11   98     12.74      0.00
   -8   11   98    -25.21      0.00
   -5   11   98      3.52      0.00
   -2   11   98      7.56      0.00
  -10   12   98     -9.15      0.00
   -7   12   98      9.03      0.00
   -4   12   98    -10.14      0.00
   -1   12   98     15.47      0.00
  -12   13   98      1.18      0.00
   -9   13   98    -11.60      0.00
   -6   13   98      4.11      0.00
   -3   13   98     24.19      0.00
    0   13   98     19.31      0.00
  -14   14   98    -14.15      0.00
  -11   14   98      0.15      0.00
   -8   14   98     14.05      0.00
   -5   14   98     33.70      0.00
   -2   14   98      0.41      0.00
  -13   15   98    -10.35      0.00
  -10   15   98     14.56      0.00
   -7   15   98     17.00      0.00
   -4   15   98      7.52      0.00
   -1   15   98      9.08      0.00
  -15   16   98    -12.30      0.00
  -12   16   98    -14.18      0.00
   -9   16   98     23.06      0.00
   -6   16   98     -5.99      0.00
   -3   16   98     -3.60      0.00
    0   16   98    -21.29      0.00
  -14   17   98     37.31      0.00
  -11   17   98      0.28      0.00
   -8   17   98    -15.51      0.00
   -5   17   98     12.24      0.00
   -2   17   98      0.33      0.00
  -16   18   98     -1.08      0.00
  -13   18   98     -4.78      0.00
  -10   18   98      2.26      0.00
   -7   18   98    -29.74      0.00
   -4   18   98    -14.68      0.00
  -18   19   98      2.48      0.00
  -15   19   98     -4.58      0.00
  -12   19   98    -15.39      0.00
   -9   19   98     -6.89      0.00
   -6   19   98    -10.68      0.00
  -17   20   98     18.89      0.00
  -14   20   98      2.11      0.00
  -11   20   98     -2.86      0.00
   -8   20   98     -1.40      0.00
   -5   20   98     12.38      0.00
  -13   21   98      2.64      0.00
  -10   21   98    -21.72      0.00
   -7   21   98    -20.10      0.00
   -4   21   98    -36.64      0.00
   -1    2   99     -8.00      0.00
   -2    4   99     -9.15      0.00
   -4    5   99     29.71      0.00
   -1    5   99    -34.07      0.00
   -3    6   99     -4.72      0.00
   -5    7   99      2.95      0.00
   -2    7   99     -2.10      0.00
   -7    8   99      9.11      0.00
   -4    8   99    -24.68      0.00
   -1    8   99     15.64      0.00
   -6    9   99    -22.76      0.00
   -3    9   99    -12.30      0.00
   -8   10   99      1.33      0.00
   -5   10   99    -15.62      0.00
   -2   10   99     -5.64      0.00
  -10   11   99     -8.71      0.00
   -7   11   99    -25.82      0.00
   -4   11   99     -1.55      0.00
   -1   11   99     14.50      0.00
   -9   12   99     -6.35      0.00
   -6   12   99     -5.19      0.00
   -3   12   99     10.46      0.00
  -11   13   99     13.05      0.00
   -8   13   99    -14.01      0.00
   -5   13   99     -1.21      0.00
   -2   13   99     41.18      0.00
  -13   14   99      1.12      0.00
  -10   14   99     -7.58      0.00
   -7   14   99     16.51      0.00
   -4   14   99    -21.55      0.00
   -1   14   99      9.55      0.00
  -12   15   99     -4.43      0.00
   -9   15   99     -8.70      0.00
   -6   15   99     -3.79      0.00
   -3   15   99     -1.08      0.00
  -14   16   99     16.55      0.00
  -11   16   99     43.54      0.00
   -8   16   99      4.88      0.00
   -5   16   99     -0.41      0.00
   -2   16   99     -2.12      0.00
  -13   17   99      3.03      0.00
  -10   17   99    -15.51      0.00
   -7   17   99     -8.13      0.00
   -4   17   99     -4.65      0.00
   -1   17   99    -10.34      0.00
  -15   18   99    -14.68      0.00
  -12   18   99    -37.87      0.00
   -9   18   99     -9.14      0.00
   -6   18   99     -3.55      0.00
   -3   18   99     25.54      0.00
  -17   19   99    -18.11      0.00
  -14   19   99    -34.95      0.00
  -11   19   99      5.83      0.00
   -8   19   99    -21.51      0.00
   -5   19   99    -38.34      0.00
  -13   20   99     -6.39      0.00
  -10   20   99      6.03      0.00
   -7   20   99     36.11      0.00
   -4   20   99    -29.62      0.00
  -12   21   99    -32.64      0.00
   -1    1  100      6.04      0.00
    0    2  100     22.88      0.00
   -2    3  100      2.84      0.00
   -4    4  100     20.58      0.00
   -1    4  100     10.15      0.00
   -3    5  100     29.20      0.00
    0    5  100      5.78      0.00
   -5    6  100      8.23      0.00
   -2    6  100     -4.68      0.00
   -7    7  100    -12.42      0.00
   -4    7  100      1.06      0.00
   -1    7  100     -2.69      0.00
   -6    8  100      7.23      0.00
   -3    8  100    -11.63      0.00
    0    8  100    -45.94      0.00
   -8    9  100     17.68      0.00
   -5    9  100    -10.01      0.00
   -2    9  100    -17.43      0.00
  -10   10  100     11.68      0.00
   -7   10  100     -0.72      0.00
   -4   10  100    -24.08      0.00
   -1   10  100    -26.92      0.00
   -9   11  100      0.12      0.00
   -6   11  100    -21.66      0.00
   -3   11  100     19.50      0.00
    0   11  100     12.09      0.00
  -11   12  100      3.46      0.00
   -8   12  100      1.58      0.00
   -5   12  100      9.54      0.00
   -2   12  100     14.31      0.00
  -13   13  100      1.52      0.00
  -10   13  100    -10.34      0.00
   -7   13  100     14.02      0.00
   -4   13  100      3.82      0.00
   -1   13  100     -8.04      0.00
  -12   14  100    -26.96      0.00
   -9   14  100      1.91      0.00
   -6   14  100     -4.17      0.00
   -3   14  100    -34.81      0.00
    0   14  100    -24.42      0.00
  -14   15  100    -21.61      0.00
  -11   15  100    -15.97      0.00
   -8   15  100      6.98      0.00
   -5   15  100     10.02      0.00
   -2   15  100    -19.99      0.00
  -13   16  100     -3.62      0.00
  -10   16  100     -3.79      0.00
   -7   16  100    -13.44      0.00
   -4   16  100     -2.59      0.00
   -1   16  100    -19.84      0.00
  -15   17  100    -50.73      0.00
  -12   17  100    -16.50      0.00
   -9   17  100    -27.08      0.00
   -6   17  100    -63.73      0.00
   -3   17  100      8.65      0.00
  -17   18  100    -24.45      0.00
  -14   18  100    -45.19      0.00
  -11   18  100    -13.42      0.00
   -8   18  100     10.59      0.00
   -5   18  100     -0.27      0.00
   -2   18  100    -19.43      0.00
   -7   19  100     12.77      0.00
   -4   19  100     21.26      0.00
  -12   20  100    -10.43      0.00
   -9   20  100    -24.77      0.00
  -11   21  100     15.92      0.00
   -1    3  101    -20.22      0.00
   -3    4  101    -15.91      0.00
   -2    5  101      1.58      0.00
   -4    6  101     19.31      0.00
   -1    6  101     16.12      0.00
   -6    7  101     -2.67      0.00
   -3    7  101    -13.09      0.00
   -5    8  101      7.07      0.00
   -2    8  101    -14.67      0.00
   -7    9  101      2.10      0.00
   -4    9  101     -9.17      0.00
   -1    9  101     -8.20      0.00
   -9   10  101     -3.70      0.00
   -6   10  101     -6.56      0.00
   -3   10  101     16.23      0.00
   -8   11  101    -20.96      0.00
   -5   11  101      2.24      0.00
   -2   11  101     27.52      0.00
  -10   12  101     16.15      0.00
   -7   12  101      3.02      0.00
   -4   12  101    -10.57      0.00
   -1   12  101      6.57      0.00
  -12   13  101     21.79      0.00
   -9   13  101     13.49      0.00
   -6   13  101      2.98      0.00
   -3   13  101    -19.10      0.00
  -11   14  101     10.44      0.00
   -8   14  101     -7.91      0.00
   -5   14  101    -26.77      0.00
   -2   14  101     -2.97      0.00
  -13   15  101     40.69      0.00
  -10   15  101     -5.60      0.00
   -7   15  101      0.07      0.00
   -4   15  101     -2.09      0.00
   -1   15  101     -0.09      0.00
  -15   16  101     15.54      0.00
  -12   16  101     17.68      0.00
   -9   16  101     27.89      0.00
   -6   16  101    -15.79      0.00
   -3   16  101     -5.58      0.00
  -14   17  101     -4.24      0.00
  -11   17  101      6.67      0.00
   -8   17  101     -4.00      0.00
   -5   17  101      1.90      0.00
   -2   17  101      7.07      0.00
  -10   18  101    -19.59      0.00
   -7   18  101     20.66      0.00
   -9   19  101      2.67      0.00
   -8   20  101    -14.77      0.00
    0    0  102     40.37      0.00
   -1    2  102    -11.11      0.00
   -3    3  102      1.24      0.00
    0    3  102    -40.06      0.00
   -2    4  102     21.42      0.00
   -4    5  102     25.02      0.00
   -1    5  102     30.47      0.00
   -6    6  102    -22.57      0.00
   -3    6  102      5.00      0.00
    0    6  102    -12.66      0.00
   -5    7  102    -16.97      0.00
   -2    7  102      3.39      0.00
   -7    8  102    -17.76      0.00
   -4    8  102    -20.82      0.00
   -1    8  102    -15.76      0.00
   -9    9  102    -22.60      0.00
   -6    9  102    -14.42      0.00
   -3    9  102      4.01      0.00
    0    9  102      1.82      0.00
   -8   10  102     -2.93      0.00
   -5   10  102    -13.19      0.00
   -2   10  102      6.95      0.00
  -10   11  102    -17.68      0.00
   -7   11  102      3.58      0.00
   -4   11  102     -7.58      0.00
   -1   11  102      9.83      0.00
  -12   12  102     12.53      0.00
   -9   12  102     13.48      0.00
   -6   12  102     -8.69      0.00
   -3   12  102    -17.02      0.00
    0   12  102     18.48      0.00
  -11   13  102     -5.01      0.00
   -8   13  102      1.02      0.00
   -5   13  102     13.46      0.00
   -2   13  102    -42.43      0.00
  -13   14  102     -4.36      0.00
  -10   14  102    -33.77      0.00
   -7   14  102    -20.23      0.00
   -4   14  102     13.02      0.00
   -1   14  102    -12.87      0.00
  -15   15  102     11.57      0.00
  -12   15  102      8.16      0.00
   -9   15  102      1.01      0.00
   -6   15  102    -12.45      0.00
   -3   15  102      2.92      0.00
    0   15  102     -1.53      0.00
  -14   16  102     10.43      0.00
  -11   16  102    -13.98      0.00
   -8   16  102     -6.78      0.00
   -5   16  102    -39.62      0.00
   -2   16  102     24.84      0.00
  -16   17  102    -17.66      0.00
  -13   17  102      0.62      0.00
  -10   17  102    -11.39      0.00
   -7   17  102    -31.69      0.00
   -9   18  102     -4.45      0.00
   -2    3  103      7.41      0.00
   -1    4  103     -5.25      0.00
   -3    5  103      1.50      0.00
   -5    6  103    -17.82      0.00
   -2    6  103    -24.91      0.00
   -4    7  103    -16.04      0.00
   -1    7  103    -23.15      0.00
   -6    8  103      6.00      0.00
   -3    8  103     11.68      0.00
   -8    9  103    -17.83      0.00
   -5    9  103    -17.66      0.00
   -2    9  103     -8.10      0.00
   -7   10  103    -30.90      0.00
   -4   10  103     -1.48      0.00
   -1   10  103     26.74      0.00
   -9   11  103     15.84      0.00
   -6   11  103     -6.77      0.00
   -3   11  103    -29.24      0.00
  -11   12  103    -35.52      0.00
   -8   12  103    -17.89      0.00
   -5   12  103     -9.46      0.00
   -2   12  103      3.34      0.00
  -10   13  103     -4.42      0.00
   -7   13  103    -14.31      0.00
   -4   13  103    -36.02      0.00
   -1   13  103     17.76      0.00
  -12   14  103      0.62      0.00
   -9   14  103    -13.39      0.00
   -6   14  103    -29.91      0.00
   -3   14  103    -25.08      0.00
  -14   15  103     22.31      0.00
  -11   15  103     34.64      0.00
   -8   15  103     -7.83      0.00
   -5   15  103    -17.67      0.00
   -2   15  103     -4.36      0.00
  -13   16  103     -0.45      0.00
  -10   16  103     -1.34      0.00
   -7   16  103      8.95      0.00
   -4   16  103    -26.09      0.00
   -1   16  103     -8.30      0.00
  -15   17  103      2.71      0.00
   -9   17  103     24.04      0.00
   -6   17  103     18.16      0.00
   -8   18  103     13.52      0.00
    0    1  104     -6.63      0.00
   -2    2  104     24.33      0.00
   -1    3  104     -1.28      0.00
   -3    4  104     33.41      0.00
    0    4  104      2.65      0.00
   -5    5  104      6.82      0.00
   -2    5  104     11.82      0.00
   -4    6  104      9.67      0.00
   -1    6  104     30.89      0.00
   -6    7  104     12.39      0.00
   -3    7  104     14.22      0.00
    0    7  104    -27.14      0.00
   -8    8  104     -0.67      0.00
   -5    8  104     29.11      0.00
   -2    8  104     26.52      0.00
   -7    9  104      2.69      0.00
   -4    9  104     -3.69      0.00
   -1    9  104      4.30      0.00
   -9   10  104     28.05      0.00
   -6   10  104    -14.39      0.00
   -3   10  104     -7.46      0.00
    0   10  104    -12.96      0.00
  -11   11  104     43.37      0.00
   -8   11  104     27.89      0.00
   -5   11  104     19.21      0.00
   -2   11  104     -6.89      0.00
  -10   12  104     -1.71      0.00
   -7   12  104    -14.32      0.00
   -4   12  104    -12.82      0.00
   -1   12  104     -7.99      0.00
  -12   13  104      7.59      0.00
   -9   13  104     15.44      0.00
   -6   13  104      4.65      0.00
   -3   13  104    -16.21      0.00
    0   13  104    -24.91      0.00
  -11   14  104    -11.83      0.00
   -8   14  104     12.66      0.00
   -5   14  104    -11.89      0.00
   -2   14  104     27.62      0.00
  -13   15  104      7.80      0.00
  -10   15  104     -0.12      0.00
   -7   15  104     14.00      0.00
   -1   15  104    -11.93      0.00
   -9   16  104     17.11      0.00
   -8   17  104     -3.33      0.00
   -1    2  105    -25.65      0.00
   -2    4  105     10.19      0.00
   -4    5  105      3.02      0.00
   -1    5  105    -32.44      0.00
   -3    6  105     19.47      0.00
   -5    7  105     10.64      0.00
   -2    7  105     20.42      0.00
   -7    8  105     -5.07      0.00
   -4    8  105      0.35      0.00
   -1    8  105     16.27      0.00
   -6    9  105      6.78      0.00
   -3    9  105     14.82      0.00
   -8   10  105     -4.90      0.00
   -5   10  105     17.23      0.00
   -2   10  105     25.58      0.00
  -10   11  105     13.43      0.00
   -7   11  105     23.54      0.00
   -4   11  105      1.64      0.00
   -1   11  105      6.69      0.00
   -9   12  105    -15.13      0.00
   -6   12  105     12.91      0.00
   -3   12  105     27.63      0.00
  -11   13  105    -14.55      0.00
   -8   13  105    -24.87      0.00
   -5   13  105     20.04      0.00
   -2   13  105     11.85      0.00
  -10   14  105     27.02      0.00
   -4   14  105     -2.43      0.00
   -1   14  105      7.13      0.00
  -12   15  105      3.51      0.00
   -9   15  105     29.98      0.00
   -3   15  105     20.89      0.00
   -5   16  105    -24.34      0.00
   -1    1  106    -28.06      0.00
    0    2  106    -29.00      0.00
   -2    3  106    -23.31      0.00
   -4    4  106      7.55      0.00
   -1    4  106    -11.16      0.00
   -3    5  106     -9.80      0.00
    0    5  106    -22.66      0.00
   -5    6  106    -16.25      0.00
   -2    6  106    -14.35      0.00
   -7    7  106     16.22      0.00
   -4    7  106     -3.88      0.00
   -1    7  106    -11.39      0.00
   -6    8  106    -30.15      0.00
   -3    8  106      5.25      0.00
    0    8  106    -59.65      0.00
   -8    9  106      8.01      0.00
   -5    9  106    -29.61      0.00
   -2    9  106    -24.26      0.00
  -10   10  106     18.89      0.00
   -7   10  106     -0.68      0.00
   -4   10  106    -17.11      0.00
   -1   10  106    -14.71      0.00
   -9   11  106     -0.14      0.00
   -6   11  106     -4.30      0.00
   -3   11  106    -30.79      0.00
    0   11  106     -4.02      0.00
   -8   12  106    -29.38      0.00
   -5   12  106     -5.22      0.00
   -2   12  106      3.11      0.00
  -10   13  106      5.39      0.00
   -7   13  106     16.18      0.00
   -4   13  106     21.76      0.00
   -1   13  106    -20.69      0.00
   -9   14  106     15.30      0.00
   -6   14  106      5.43      0.00
   -8   15  106     -0.99      0.00
   -1    3  107    -14.54      0.00
   -3    4  107     13.57      0.00
   -2    5  107     -8.61      0.00
   -4    6  107     20.61      0.00
   -1    6  107    -17.41      0.00
   -3    7  107     22.69      0.00
   -5    8  107     -6.48      0.00
   -2    8  107     15.28      0.00
   -7    9  107      0.57      0.00
   -4    9  107    -39.99      0.00
   -1    9  107    -10.57      0.00
   -9   10  107     10.13      0.00
   -6   10  107      2.69      0.00
   -3   10  107     11.82      0.00
   -8   11  107    -25.25      0.00
   -5   11  107     32.63      0.00
   -2   11  107      2.45      0.00
  -10   12  107     16.06      0.00
   -4   12  107    -11.22      0.00
   -9   13  107      0.77      0.00
   -6   13  107     25.27      0.00
   -3   13  107      8.29      0.00
   -5   14  107    -25.30      0.00
   -6    6  108    -18.81      0.00
   -3    6  108     13.74      0.00
   -5    7  108    -20.42      0.00
   -7    8  108    -10.91      0.00
   -4    8  108    -28.60      0.00
   -9    9  108    -32.27      0.00
   -6    9  108      9.25      0.00
   -3    9  108     -3.59      0.00
   -8   10  108     -8.93      0.00
   -5   10  108    -37.25      0.00
  -10   11  108     -0.91      0.00
   -7   11  108      5.30      0.00
   -4   11  108     15.60      0.00
   -1    2    0    469.95      0.00
    0   39    0     -4.45      0.00
   -5   40    0     -1.11      0.00
   -2   40    0      2.64      0.00
   -4   41    0    -15.02      0.00
   -1   41    0     -6.30      0.00
   -6   42    0     -0.44      0.00
   -3   42    0     -9.14      0.00
   -8   43    0    -27.40      0.00
   -5   43    0      0.04      0.00
  -21   45    0     -2.05      0.00
  -18   45    0     25.87      0.00
  -15   45    0      2.40      0.00
  -12   45    0      1.61      0.00
  -38   39    1     -6.14      0.00
  -37   40    1     -0.38      0.00
   -1   40    1      7.16      0.00
  -39   41    1      9.01      0.00
   -3   41    1     -8.68      0.00
  -38   42    1      0.51      0.00
   -5   42    1     -5.54      0.00
  -37   43    1    -11.79      0.00
   -7   43    1     -3.11      0.00
  -36   44    1    -11.39      0.00
   -9   44    1      1.67      0.00
  -32   45    1      1.42      0.00
  -29   45    1     23.24      0.00
  -26   45    1      1.36      0.00
  -23   45    1     -1.73      0.00
  -20   45    1      7.38      0.00
  -17   45    1     27.70      0.00
  -14   45    1     -2.50      0.00
  -11   45    1      6.93      0.00
    0    1    2    -69.89      0.00
   -2    2    2    742.26      0.00
   -1   39    2      7.64      0.00
  -39   40    2    -11.66      0.00
   -3   40    2      6.35      0.00
    0   40    2    -18.67      0.00
  -38   41    2      9.40      0.00
   -2   41    2      3.98      0.00
  -37   42    2    -10.42      0.00
   -4   42    2     -9.99      0.00
  -36   43    2      9.74      0.00
  -15   43    2     -7.18      0.00
   -6   43    2    -10.02      0.00
  -35   44    2     21.04      0.00
  -20   44    2    -24.94      0.00
   -8   44    2     -2.85      0.00
  -34   45    2      1.31      0.00
  -31   45    2     -3.02      0.00
  -28   45    2    -11.62      0.00
  -25   45    2    -10.71      0.00
  -22   45    2    -24.70      0.00
  -19   45    2     -2.22      0.00
  -16   45    2      0.02      0.00
   -1    2    3    288.42      0.00
  -38   40    3     11.09      0.00
   -2   40    3     -4.83      0.00
  -40   41    3      4.52      0.00
  -37   41    3      2.11      0.00
   -4   41    3     -8.90      0.00
   -1   41    3     -3.05      0.00
  -39   42    3      0.12      0.00
  -36   42    3     -8.46      0.00
   -6   42    3     11.18      0.00
   -3   42    3     -0.61      0.00
  -38   43    3    -14.03      0.00
  -35   43    3      0.51      0.00
   -8   43    3    -10.90      0.00
   -5   43    3      2.31      0.00
  -10   44    3    -10.63      0.00
  -33   45    3    -14.80      0.00
  -30   45    3     -0.56      0.00
  -27   45    3     -4.38      0.00
  -24   45    3     -6.63      0.00
  -21   45    3     -0.74      0.00
  -18   45    3     -0.91      0.00
  -15   45    3      5.99      0.00
  -12   45    3     -8.46      0.00
   -1    1    4    -93.72      0.00
  -38   39    4     -2.60      0.00
  -40   40    4     -1.97      0.00
   -1   40    4     -5.93      0.00
  -39   41    4    -15.26      0.00
   -3   41    4    -13.18      0.00
  -38   42    4      0.70      0.00
   -5   42    4      4.58      0.00
  -37   43    4     -3.35      0.00
   -7   43    4      5.76      0.00
  -36   44    4     -8.10      0.00
   -9   44    4    -15.68      0.00
  -32   45    4      5.12      0.00
  -29   45    4     -0.25      0.00
  -26   45    4      4.70      0.00
  -23   45    4     -3.73      0.00
  -20   45    4      2.29      0.00
  -17   45    4    -23.61      0.00
  -11   45    4     14.84      0.00
   -1   39    5     14.60      0.00
  -39   40    5     -9.36      0.00
   -3   40    5     -6.51      0.00
  -38   41    5     -7.46      0.00
   -2   41    5    -16.30      0.00
  -37   42    5      9.09      0.00
   -4   42    5     18.61      0.00
  -36   43    5    -24.14      0.00
   -6   43    5     -0.06      0.00
  -35   44    5     -5.18      0.00
   -8   44    5      0.72      0.00
  -34   45    5     -0.34      0.00
  -31   45    5     -5.14      0.00
  -28   45    5    -21.33      0.00
  -25   45    5     12.46      0.00
  -22   45    5      9.17      0.00
  -19   45    5      3.22      0.00
  -16   45    5     -1.38      0.00
    0    0    6   1523.69      0.00
  -39   39    6     14.44      0.00
    0   39    6     28.14      0.00
  -38   40    6      3.85      0.00
   -2   40    6     -1.85      0.00
  -40   41    6      0.51      0.00
  -37   41    6      9.82      0.00
   -4   41    6     19.03      0.00
   -1   41    6    -11.14      0.00
  -39   42    6     -4.23      0.00
  -36   42    6     21.37      0.00
   -6   42    6      1.22      0.00
   -3   42    6      3.73      0.00
  -38   43    6    -12.35      0.00
  -35   43    6      4.77      0.00
   -8   43    6     -6.28      0.00
   -5   43    6    -13.52      0.00
  -28   44    6     -3.97      0.00
  -22   44    6      1.45      0.00
  -10   44    6     -8.67      0.00
  -33   45    6      9.54      0.00
  -30   45    6     -4.33      0.00
  -27   45    6      6.42      0.00
  -24   45    6    -12.11      0.00
  -21   45    6      8.14      0.00
  -18   45    6     -9.45      0.00
  -15   45    6      3.97      0.00
  -12   45    6      0.78      0.00
  -38   39    7    -12.38      0.00
   -1   40    7     10.65      0.00
  -39   41    7     -4.07      0.00
   -3   41    7    -20.37      0.00
  -38   42    7     -5.42      0.00
   -5   42    7    -14.00      0.00
  -37   43    7     -6.91      0.00
   -7   43    7     13.52      0.00
  -36   44    7     10.74      0.00
  -21   44    7    -15.24      0.00
   -9   44    7    -25.08      0.00
  -32   45    7     -6.71      0.00
  -29   45    7     -4.08      0.00
  -26   45    7      8.68      0.00
  -23   45    7     25.39      0.00
  -20   45    7      5.09      0.00
  -17   45    7     18.32      0.00
  -11   45    7      3.69      0.00
   -1   39    8      3.46      0.00
  -39   40    8    -10.99      0.00
   -3   40    8      9.76      0.00
    0   40    8      3.78      0.00
  -38   41    8     10.59      0.00
   -2   41    8     13.78      0.00
  -37   42    8      1.48      0.00
   -4   42    8     11.25      0.00
  -36   43    8      6.70      0.00
   -6   43    8      1.26      0.00
  -35   44    8     -0.48      0.00
  -29   44    8      9.12      0.00
   -8   44    8     -4.36      0.00
  -34   45    8      0.69      0.00
  -31   45    8     -5.16      0.00
  -28   45    8     -8.47      0.00
  -25   45    8     -6.19      0.00
  -22   45    8     -7.14      0.00
  -19   45    8      8.23      0.00
  -16   45    8    -19.19      0.00
  -13   45    8     -0.87      0.00
  -38   40    9     14.66      0.00
   -2   40    9      8.48      0.00
  -40   41    9     -8.38      0.00
  -37   41    9      3.52      0.00
   -4   41    9    -10.07      0.00
   -1   41    9      6.25      0.00
  -39   42    9      2.84      0.00
  -36   42    9     -3.01      0.00
   -6   42    9     -1.35      0.00
   -3   42    9     -6.14      0.00
  -35   43    9    -10.94      0.00
   -8   43    9    -12.46      0.00
  -34   44    9      2.08      0.00
  -10   44    9     10.78      0.00
  -33   45    9     -4.22      0.00
  -30   45    9    -12.73      0.00
  -27   45    9    -12.07      0.00
  -24   45    9     -7.86      0.00
  -21   45    9      4.65      0.00
  -18   45    9      6.91      0.00
  -15   45    9      7.32      0.00
  -12   45    9      2.94      0.00
    0   38   10    -29.33      0.00
  -38   39   10     -4.68      0.00
  -40   40   10    -20.05      0.00
  -37   40   10    -13.86      0.00
   -1   40   10      6.79      0.00
  -39   41   10     -9.15      0.00
   -6   41   10      5.62      0.00
   -3   41   10      1.05      0.00
  -38   42   10     -4.02      0.00
   -5   42   10      6.44      0.00
  -37   43   10    -11.11      0.00
   -7   43   10      3.00      0.00
  -36   44   10      8.37      0.00
   -9   44   10    -10.30      0.00
  -32   45   10     11.61      0.00
  -29   45   10      2.60      0.00
  -26   45   10     -5.78      0.00
  -23   45   10      2.36      0.00
  -20   45   10     -4.69      0.00
  -17   45   10    -18.52      0.00
  -11   45   10      8.05      0.00
   -1   39   11    -21.31      0.00
  -39   40   11      4.74      0.00
   -3   40   11     20.25      0.00
  -38   41   11     -0.81      0.00
   -5   41   11     18.59      0.00
   -2   41   11     -0.04      0.00
  -37   42   11    -13.63      0.00
   -4   42   11      1.61      0.00
  -36   43   11      4.11      0.00
   -6   43   11     17.13      0.00
  -35   44   11     -3.70      0.00
  -23   44   11     -0.33      0.00
   -8   44   11      6.26      0.00
  -31   45   11     12.32      0.00
  -28   45   11      7.32      0.00
  -25   45   11     11.67      0.00
  -22   45   11     12.42      0.00
  -19   45   11      5.05      0.00
  -16   45   11      1.02      0.00
  -13   45   11      0.61      0.00
  -39   39   12     18.24      0.00
    0   39   12      1.01      0.00
  -38   40   12     23.70      0.00
   -2   40   12     -8.07      0.00
  -40   41   12      3.49      0.00
  -37   41   12      2.77      0.00
   -4   41   12    -11.97      0.00
   -1   41   12      2.55      0.00
  -39   42   12     -7.54      0.00
  -36   42   12      8.11      0.00
   -6   42   12     -0.59      0.00
   -3   42   12     -6.00      0.00
  -35   43   12      4.18      0.00
   -8   43   12     -0.97      0.00
  -34   44   12     -8.14      0.00
  -22   44   12      5.28      0.00
  -19   44   12     21.75      0.00
  -10   44   12     -6.92      0.00
  -33   45   12     -2.90      0.00
  -30   45   12    -18.25      0.00
  -27   45   12     -4.15      0.00
  -24   45   12    -11.77      0.00
  -21   45   12    -10.03      0.00
  -18   45   12    -19.99      0.00
  -15   45   12    -17.14      0.00
  -12   45   12      7.01      0.00
  -38   39   13      1.40      0.00
  -37   40   13     -5.04      0.00
   -1   40   13    -16.58      0.00
  -39   41   13     10.25      0.00
   -3   41   13     -9.91      0.00
  -38   42   13     10.77      0.00
   -5   42   13     21.65      0.00
  -37   43   13     -6.63      0.00
   -7   43   13    -10.30      0.00
   -9   44   13     10.26      0.00
  -32   45   13     -4.49      0.00
  -29   45   13      8.66      0.00
  -26   45   13      1.88      0.00
  -23   45   13     10.33      0.00
  -20   45   13      3.16      0.00
  -17   45   13     11.28      0.00
  -14   45   13     -3.88      0.00
   -1   39   14      8.57      0.00
  -39   40   14    -11.96      0.00
  -36   40   14      3.14      0.00
   -3   40   14     16.21      0.00
    0   40   14    -20.59      0.00
  -38   41   14    -12.30      0.00
   -5   41   14      6.56      0.00
   -2   41   14     -8.46      0.00
  -37   42   14     -2.34      0.00
   -4   42   14      9.10      0.00
  -36   43   14     11.32      0.00
   -6   43   14     -4.26      0.00
  -35   44   14      6.01      0.00
  -23   44   14     -1.31      0.00
  -17   44   14    -17.19      0.00
  -31   45   14      3.18      0.00
  -28   45   14     15.82      0.00
  -25   45   14      5.61      0.00
  -22   45   14      8.93      0.00
  -19   45   14     10.57      0.00
  -16   45   14     -6.01      0.00
  -13   45   14      2.91      0.00
  -38   40   15     -1.40      0.00
   -2   40   15     -1.59      0.00
  -37   41   15      3.82      0.00
   -4   41   15      4.18      0.00
  -36   42   15     -0.38      0.00
   -6   42   15     -4.64      0.00
  -35   43   15     -3.43      0.00
  -17   43   15      4.77      0.00
   -8   43   15      4.89      0.00
  -34   44   15      3.40      0.00
  -22   44   15     -0.76      0.00
  -10   44   15     -3.63      0.00
  -33   45   15      1.94      0.00
  -30   45   15     -0.87      0.00
  -27   45   15     -3.48      0.00
  -24   45   15    -12.35      0.00
  -21   45   15     -2.81      0.00
  -18   45   15      2.87      0.00
  -15   45   15     -3.60      0.00
  -12   45   15      2.86      0.00
    0   38   16    -19.94      0.00
  -38   39   16     -1.55      0.00
   -2   39   16      5.12      0.00
  -40   40   16      3.80      0.00
  -37   40   16     12.83      0.00
   -1   40   16    -19.78      0.00
  -39   41   16     -0.62      0.00
   -3   41   16      2.06      0.00
  -38   42   16    -17.73      0.00
   -5   42   16     -6.53      0.00
  -37   43   16     -5.50      0.00
   -7   43   16    -28.30      0.00
  -33   44   16      7.46      0.00
  -30   44   16      4.35      0.00
  -27   44   16    -17.49      0.00
  -24   44   16      3.61      0.00
  -21   44   16     -6.31      0.00
   -9   44   16      1.98      0.00
  -32   45   16     -7.02      0.00
  -29   45   16      0.28      0.00
  -26   45   16      2.07      0.00
  -23   45   16      2.34      0.00
  -20   45   16    -14.01      0.00
  -17   45   16      3.89      0.00
  -14   45   16     -0.23      0.00
   -1   39   17     -9.49      0.00
  -39   40   17    -16.00      0.00
   -3   40   17      0.83      0.00
  -38   41   17     -5.60      0.00
   -5   41   17      8.16      0.00
   -2   41   17     10.63      0.00
  -37   42   17      0.72      0.00
   -7   42   17      2.15      0.00
   -4   42   17    -15.13      0.00
  -36   43   17    -13.18      0.00
   -6   43   17     -4.60      0.00
  -35   44   17      3.44      0.00
  -32   44   17      9.76      0.00
  -23   44   17     -3.97      0.00
  -20   44   17      4.28      0.00
  -11   44   17      9.26      0.00
  -31   45   17     -8.77      0.00
  -28   45   17      3.45      0.00
  -25   45   17     14.36      0.00
  -22   45   17    -15.64      0.00
  -19   45   17    -10.01      0.00
  -16   45   17     18.73      0.00
  -13   45   17     12.62      0.00
  -39   39   18     12.96      0.00
    0   39   18      1.42      0.00
  -38   40   18      4.63      0.00
   -2   40   18    -21.83      0.00
  -37   41   18     -9.89      0.00
   -4   41   18      9.56      0.00
  -36   42   18     -0.31      0.00
   -6   42   18      7.33      0.00
  -35   43   18     -4.15      0.00
   -8   43   18      6.00      0.00
  -34   44   18     26.51      0.00
  -25   44   18      3.07      0.00
  -22   44   18     -6.03      0.00
  -13   44   18     -0.38      0.00
  -10   44   18     -9.88      0.00
  -30   45   18      2.28      0.00
  -27   45   18      6.85      0.00
  -24   45   18    -13.28      0.00
  -21   45   18      5.65      0.00
  -18   45   18      5.97      0.00
  -15   45   18     -0.42      0.00
  -38   39   19    -11.54      0.00
   -2   39   19      6.78      0.00
  -37   40   19     19.05      0.00
   -1   40   19      0.09      0.00
  -39   41   19      0.89      0.00
  -36   41   19     -5.36      0.00
   -3   41   19     12.33      0.00
  -38   42   19     -7.96      0.00
   -5   42   19     -2.69      0.00
   -7   43   19      8.43      0.00
  -33   44   19     28.56      0.00
  -24   44   19     15.81      0.00
  -21   44   19      2.19      0.00
  -18   44   19     -7.65      0.00
  -32   45   19      1.91      0.00
  -29   45   19    -10.33      0.00
  -26   45   19    -18.86      0.00
  -23   45   19     -0.17      0.00
  -20   45   19    -10.59      0.00
  -17   45   19     -3.88      0.00
  -14   45   19     -1.50      0.00
  -38   38   20     -1.63      0.00
  -37   39   20     -9.14      0.00
   -1   39   20     -4.29      0.00
  -39   40   20     -3.33      0.00
   -3   40   20      0.36      0.00
    0   40   20     -7.13      0.00
  -38   41   20    -17.84      0.00
   -5   41   20      6.54      0.00
   -2   41   20      4.05      0.00
  -37   42   20     13.83      0.00
   -7   42   20     12.72      0.00
   -4   42   20     -6.20      0.00
  -36   43   20     -9.76      0.00
  -32   44   20     -2.28      0.00
  -26   44   20     23.03      0.00
  -23   44   20      6.36      0.00
  -20   44   20     -4.13      0.00
  -11   44   20     -5.90      0.00
  -31   45   20    -11.57      0.00
  -28   45   20      7.47      0.00
  -25   45   20      0.96      0.00
  -22   45   20     -5.33      0.00
  -19   45   20     14.27      0.00
  -16   45   20     -9.09      0.00
  -13   45   20     25.48      0.00
  -36   39   21    -11.90      0.00
  -38   40   21     -8.09      0.00
   -2   40   21     -7.96      0.00
  -37   41   21      3.79      0.00
   -4   41   21     -6.74      0.00
  -36   42   21      9.54      0.00
   -6   42   21     -6.06      0.00
  -35   43   21    -11.49      0.00
  -32   43   21    -25.14      0.00
   -8   43   21     -5.46      0.00
  -34   44   21      1.23      0.00
  -28   44   21     22.87      0.00
  -25   44   21     15.18      0.00
  -22   44   21    -11.57      0.00
  -10   44   21      8.42      0.00
  -30   45   21      2.08      0.00
  -27   45   21      7.81      0.00
  -24   45   21     -2.11      0.00
  -21   45   21      7.60      0.00
  -18   45   21      2.35      0.00
  -15   45   21     -9.01      0.00
    0   38   22     -0.65      0.00
  -38   39   22    -10.73      0.00
  -35   39   22    -22.05      0.00
   -2   39   22     10.03      0.00
  -40   40   22     -3.25      0.00
  -37   40   22     16.37      0.00
   -4   40   22     -3.59      0.00
   -1   40   22     -6.66      0.00
  -39   41   22      0.60      0.00
  -36   41   22    -27.51      0.00
   -3   41   22     -1.75      0.00
  -35   42   22     -9.82      0.00
   -5   42   22    -11.03      0.00
  -34   43   22     18.61      0.00
   -7   43   22    -11.93      0.00
  -33   44   22      1.57      0.00
  -27   44   22      3.53      0.00
  -24   44   22     -4.69      0.00
  -21   44   22     -7.51      0.00
  -12   44   22    -10.03      0.00
  -29   45   22    -20.69      0.00
  -26   45   22      1.92      0.00
  -23   45   22      3.85      0.00
  -20   45   22     -6.50      0.00
  -17   45   22      8.57      0.00
  -14   45   22     -0.23      0.00
  -37   39   23    -22.07      0.00
   -1   39   23      8.64      0.00
  -39   40   23      4.73      0.00
   -3   40   23     -0.02      0.00
  -38   41   23     -5.03      0.00
  -35   41   23      1.54      0.00
   -5   41   23     -1.68      0.00
  -37   42   23     -4.61      0.00
  -34   42   23     -3.65      0.00
   -7   42   23    -20.74      0.00
  -36   43   23     -2.04      0.00
  -24   43   23     15.40      0.00
  -18   43   23      3.39      0.00
  -32   44   23     14.72      0.00
  -26   44   23      6.24      0.00
  -23   44   23     -0.43      0.00
  -20   44   23     -8.60      0.00
  -11   44   23     -4.00      0.00
  -31   45   23     27.02      0.00
  -28   45   23     19.07      0.00
  -25   45   23      8.69      0.00
  -22   45   23      0.51      0.00
  -19   45   23     -2.86      0.00
  -16   45   23      3.84      0.00
   -1   38   24      2.25      0.00
  -39   39   24     -5.29      0.00
    0   39   24    -19.95      0.00
  -38   40   24      3.81      0.00
   -2   40   24      7.07      0.00
  -37   41   24    -21.51      0.00
   -4   41   24     -9.53      0.00
  -36   42   24     -0.92      0.00
   -6   42   24     -1.62      0.00
  -35   43   24      5.60      0.00
  -29   43   24      0.85      0.00
  -26   43   24      0.47      0.00
  -23   43   24     -1.65      0.00
   -8   43   24      6.62      0.00
  -28   44   24     -0.39      0.00
  -25   44   24    -16.52      0.00
  -22   44   24     -3.21      0.00
  -19   44   24      3.84      0.00
  -13   44   24     -8.41      0.00
  -30   45   24      8.57      0.00
  -27   45   24      9.43      0.00
  -24   45   24     -4.24      0.00
  -21   45   24      3.08      0.00
  -18   45   24     20.68      0.00
  -15   45   24    -10.04      0.00
  -38   39   25    -14.95      0.00
   -2   39   25     -9.33      0.00
  -37   40   25    -15.86      0.00
   -4   40   25     17.22      0.00
   -1   40   25      9.18      0.00
  -36   41   25      4.40      0.00
   -6   41   25      5.03      0.00
   -3   41   25     -4.24      0.00
  -35   42   25      6.76      0.00
   -5   42   25    -21.66      0.00
  -34   43   25      3.39      0.00
  -10   43   25     -2.50      0.00
  -33   44   25      8.93      0.00
  -27   44   25     -2.13      0.00
  -24   44   25    -12.52      0.00
  -21   44   25      0.57      0.00
  -18   44   25      9.24      0.00
  -12   44   25     37.65      0.00
  -29   45   25      7.85      0.00
  -26   45   25      9.48      0.00
  -23   45   25     -3.88      0.00
  -20   45   25     -0.46      0.00
  -17   45   25    -15.03      0.00
  -38   38   26      0.07      0.00
  -37   39   26      7.32      0.00
   -1   39   26     -3.70      0.00
  -39   40   26      6.71      0.00
  -36   40   26     -8.42      0.00
   -3   40   26     17.83      0.00
  -38   41   26    -12.85      0.00
   -5   41   26    -15.05      0.00
  -37   42   26    -11.85      0.00
   -7   42   26      5.09      0.00
  -33   43   26    -15.85      0.00
  -18   43   26     -6.21      0.00
   -9   43   26     -1.59      0.00
  -32   44   26     -5.82      0.00
  -26   44   26     27.75      0.00
  -23   44   26    -13.33      0.00
  -20   44   26    -12.84      0.00
  -17   44   26    -10.34      0.00
  -11   44   26     16.99      0.00
  -28   45   26     -8.09      0.00
  -25   45   26    -16.52      0.00
  -22   45   26     -6.21      0.00
  -19   45   26    -11.38      0.00
  -16   45   26    -19.43      0.00
  -37   38   27     -0.74      0.00
   -1   38   27     10.00      0.00
   -3   39   27     -9.22      0.00
  -38   40   27      5.13      0.00
   -2   40   27      2.38      0.00
  -37   41   27    -15.86      0.00
   -4   41   27    -14.90      0.00
  -36   42   27      9.60      0.00
   -6   42   27     -7.57      0.00
  -35   43   27     11.12      0.00
  -32   43   27     17.89      0.00
  -26   43   27     18.82      0.00
  -11   43   27    -20.81      0.00
   -8   43   27     -6.15      0.00
  -31   44   27     -4.06      0.00
  -28   44   27     -3.95      0.00
  -25   44   27     -3.70      0.00
  -22   44   27      1.01      0.00
  -19   44   27      8.59      0.00
  -16   44   27     -4.73      0.00
  -13   44   27     10.16      0.00
  -27   45   27     -8.86      0.00
  -24   45   27     14.39      0.00
  -21   45   27      6.43      0.00
  -18   45   27      5.30      0.00
    0   38   28     11.78      0.00
  -38   39   28      3.04      0.00
   -2   39   28      5.86      0.00
  -37   40   28      7.14      0.00
   -4   40   28      7.53      0.00
   -1   40   28     -3.71      0.00
  -36   41   28     -0.29      0.00
  -33   41   28     23.35      0.00
   -6   41   28     -0.85      0.00
  -35   42   28     -0.13      0.00
  -20   42   28     -1.03      0.00
  -34   43   28      1.64      0.00
  -31   43   28     -3.02      0.00
  -22   43   28    -15.07      0.00
  -10   43   28     -6.10      0.00
  -30   44   28     -5.69      0.00
  -27   44   28    -20.66      0.00
  -24   44   28     -5.44      0.00
  -21   44   28    -13.26      0.00
  -18   44   28      5.17      0.00
  -12   44   28      5.63      0.00
  -29   45   28      0.03      0.00
  -26   45   28      4.92      0.00
  -23   45   28     -0.97      0.00
  -20   45   28    -10.11      0.00
  -17   45   28    -17.29      0.00
  -37   39   29     16.45      0.00
   -1   39   29     -5.44      0.00
  -36   40   29      4.19      0.00
   -3   40   29      9.14      0.00
  -35   41   29     -4.82      0.00
   -5   41   29     -6.04      0.00
   -7   42   29      3.87      0.00
  -33   43   29     -4.40      0.00
  -21   43   29      6.72      0.00
  -12   43   29     -8.71      0.00
   -9   43   29    -12.08      0.00
  -32   44   29      5.65      0.00
  -29   44   29     18.85      0.00
  -26   44   29     -3.30      0.00
  -23   44   29     14.30      0.00
  -20   44   29      3.81      0.00
  -17   44   29     15.95      0.00
  -14   44   29    -10.97      0.00
  -28   45   29      0.24      0.00
  -25   45   29      1.70      0.00
  -22   45   29      2.13      0.00
  -19   45   29     -0.60      0.00
  -37   38   30     -3.90      0.00
   -1   38   30      8.68      0.00
  -39   39   30     -6.96      0.00
  -36   39   30    -11.17      0.00
   -3   39   30      3.07      0.00
    0   39   30      9.10      0.00
  -38   40   30     12.67      0.00
   -5   40   30      8.05      0.00
   -2   40   30      9.14      0.00
  -37   41   30     -2.01      0.00
   -4   41   30      2.63      0.00
  -36   42   30    -12.38      0.00
  -15   42   30    -19.53      0.00
   -9   42   30      1.56      0.00
   -6   42   30     -0.53      0.00
  -32   43   30     -2.55      0.00
  -23   43   30     -0.71      0.00
  -20   43   30     -2.32      0.00
  -11   43   30     -6.11      0.00
  -31   44   30      6.84      0.00
  -28   44   30     -3.32      0.00
  -25   44   30     -9.26      0.00
  -22   44   30    -16.07      0.00
  -19   44   30      7.82      0.00
  -16   44   30     -8.50      0.00
  -13   44   30     -7.89      0.00
  -27   45   30     -7.37      0.00
  -24   45   30      4.43      0.00
  -21   45   30     -3.09      0.00
  -18   45   30      9.13      0.00
   -3   38   31     12.49      0.00
  -38   39   31     -2.11      0.00
   -2   39   31      9.25      0.00
  -37   40   31      1.61      0.00
   -4   40   31     -3.96      0.00
  -36   41   31    -15.10      0.00
   -6   41   31      2.56      0.00
  -35   42   31      2.21      0.00
  -32   42   31     -8.04      0.00
  -17   42   31    -11.07      0.00
   -8   42   31    -17.13      0.00
  -34   43   31      4.01      0.00
  -31   43   31      2.98      0.00
  -25   43   31     -8.23      0.00
  -22   43   31      0.11      0.00
  -19   43   31      7.93      0.00
  -10   43   31     11.68      0.00
  -30   44   31      7.28      0.00
  -27   44   31     12.12      0.00
  -24   44   31    -18.54      0.00
  -21   44   31     -3.58      0.00
  -18   44   31     -5.91      0.00
  -15   44   31     -4.59      0.00
  -26   45   31    -10.52      0.00
  -23   45   31      1.20      0.00
  -20   45   31     -1.33      0.00
    0   37   32    -29.31      0.00
  -38   38   32     27.05      0.00
   -2   38   32    -12.19      0.00
  -37   39   32      1.35      0.00
   -1   39   32      1.68      0.00
  -36   40   32     10.94      0.00
   -3   40   32     -7.95      0.00
  -35   41   32     -3.92      0.00
   -5   41   32      2.79      0.00
  -34   42   32      7.20      0.00
  -31   42   32     -4.99      0.00
  -10   42   32     11.41      0.00
   -7   42   32      6.88      0.00
  -33   43   32      0.00      0.00
  -24   43   32     -4.14      0.00
  -21   43   32     20.51      0.00
  -12   43   32      5.05      0.00
  -29   44   32     -7.31      0.00
  -26   44   32     -0.69      0.00
  -23   44   32     -1.19      0.00
  -20   44   32     -2.03      0.00
  -17   44   32     15.95      0.00
  -14   44   32      0.37      0.00
  -25   45   32     -3.25      0.00
  -22   45   32     -5.26      0.00
  -19   45   32     -7.10      0.00
  -37   38   33     -0.17      0.00
   -1   38   33    -10.35      0.00
  -36   39   33     -7.03      0.00
   -3   39   33      2.79      0.00
  -38   40   33     -7.57      0.00
  -35   40   33     -3.98      0.00
   -5   40   33     -8.76      0.00
   -2   40   33     -1.47      0.00
  -28   41   33     -8.09      0.00
  -33   42   33     15.97      0.00
   -9   42   33    -11.10      0.00
  -32   43   33     11.57      0.00
  -26   43   33      9.66      0.00
  -23   43   33      9.07      0.00
  -20   43   33     22.36      0.00
  -11   43   33     -5.10      0.00
  -28   44   33     18.71      0.00
  -25   44   33     14.34      0.00
  -22   44   33     15.56      0.00
  -19   44   33      3.56      0.00
  -16   44   33     -4.97      0.00
  -24   45   33      4.25      0.00
  -21   45   33      3.50      0.00
  -37   37   34    -18.01      0.00
  -36   38   34      4.13      0.00
    0   38   34     -4.19      0.00
  -38   39   34      6.33      0.00
   -2   39   34    -10.10      0.00
  -37   40   34     -1.18      0.00
   -4   40   34      3.16      0.00
  -36   41   34    -24.46      0.00
   -6   41   34    -17.18      0.00
  -32   42   34      4.26      0.00
  -17   42   34      9.37      0.00
  -11   42   34     13.81      0.00
   -8   42   34     -1.57      0.00
  -31   43   34     -3.30      0.00
  -22   43   34      8.31      0.00
  -19   43   34      3.74      0.00
  -13   43   34     15.60      0.00
  -30   44   34      3.15      0.00
  -27   44   34      3.31      0.00
  -24   44   34      4.56      0.00
  -21   44   34     -8.77      0.00
  -18   44   34     -1.83      0.00
  -15   44   34    -17.68      0.00
  -36   37   35      5.83      0.00
   -2   38   35      6.48      0.00
  -37   39   35      4.94      0.00
   -4   39   35      8.64      0.00
   -1   39   35    -13.43      0.00
  -36   40   35     12.86      0.00
   -3   40   35      3.74      0.00
  -35   41   35     22.38      0.00
   -5   41   35     12.31      0.00
  -34   42   35      5.00      0.00
  -31   42   35     -5.24      0.00
  -10   42   35    -26.70      0.00
  -30   43   35      0.32      0.00
  -27   43   35      2.78      0.00
  -24   43   35      9.48      0.00
  -21   43   35     22.95      0.00
  -18   43   35     -8.26      0.00
  -12   43   35     -0.87      0.00
  -29   44   35     -4.21      0.00
  -26   44   35    -12.98      0.00
  -23   44   35    -11.28      0.00
  -20   44   35     -6.49      0.00
  -17   44   35      6.63      0.00
  -37   38   36      8.18      0.00
   -1   38   36     -0.96      0.00
  -36   39   36     15.29      0.00
   -3   39   36     -8.51      0.00
  -35   40   36      7.60      0.00
   -5   40   36     -3.95      0.00
  -34   41   36     -4.02      0.00
   -7   41   36     -0.86      0.00
  -33   42   36    -15.73      0.00
  -21   42   36     11.37      0.00
  -12   42   36      1.71      0.00
   -9   42   36      3.52      0.00
  -32   43   36     10.96      0.00
  -29   43   36      4.92      0.00
  -23   43   36     12.74      0.00
  -20   43   36     12.22      0.00
  -17   43   36     -5.00      0.00
  -14   43   36     -6.20      0.00
  -11   43   36     -6.11      0.00
  -28   44   36      0.04      0.00
  -25   44   36     -7.53      0.00
  -22   44   36      8.49      0.00
  -19   44   36     -0.32      0.00
  -16   44   36     15.83      0.00
   -1   37   37    -15.73      0.00
  -36   38   37      0.93      0.00
   -3   38   37     -1.67      0.00
  -38   39   37      6.45      0.00
  -35   39   37     -1.74      0.00
   -2   39   37      6.38      0.00
  -37   40   37      8.96      0.00
   -4   40   37      6.11      0.00
  -33   41   37     -6.01      0.00
   -6   41   37     -0.73      0.00
  -32   42   37      1.88      0.00
  -17   42   37     -3.02      0.00
  -11   42   37     -3.29      0.00
  -31   43   37      3.11      0.00
  -28   43   37    -12.17      0.00
  -22   43   37    -16.10      0.00
  -19   43   37    -10.27      0.00
  -16   43   37      0.33      0.00
  -13   43   37    -15.69      0.00
  -27   44   37     -6.85      0.00
  -24   44   37      8.51      0.00
  -21   44   37      0.59      0.00
  -18   44   37      5.12      0.00
  -36   37   38     -4.94      0.00
    0   37   38    -17.32      0.00
  -38   38   38     -7.85      0.00
   -2   38   38     -6.29      0.00
  -37   39   38      1.51      0.00
   -4   39   38    -10.86      0.00
  -36   40   38      4.16      0.00
  -35   41   38      9.50      0.00
  -32   41   38      1.96      0.00
  -26   41   38     14.00      0.00
   -8   41   38      2.36      0.00
  -31   42   38    -11.81      0.00
  -22   42   38    -17.83      0.00
  -10   42   38      2.46      0.00
  -30   43   38     21.66      0.00
  -27   43   38     17.10      0.00
  -24   43   38    -13.32      0.00
  -21   43   38      7.65      0.00
  -18   43   38      3.31      0.00
  -15   43   38     -7.57      0.00
  -12   43   38     -4.85      0.00
  -26   44   38      9.18      0.00
  -23   44   38      1.55      0.00
  -20   44   38     -4.68      0.00
  -17   44   38    -19.44      0.00
   -2   37   39     -2.77      0.00
  -37   38   39    -13.00      0.00
   -1   38   39      6.09      0.00
  -36   39   39     -1.71      0.00
   -3   39   39      3.84      0.00
  -35   40   39     20.07      0.00
   -5   40   39     -6.94      0.00
  -34   41   39     -7.30      0.00
  -31   41   39     -5.14      0.00
  -19   41   39     10.56      0.00
  -10   41   39      6.38      0.00
   -7   41   39      2.86      0.00
  -33   42   39    -11.50      0.00
  -30   42   39    -13.21      0.00
  -24   42   39     -5.79      0.00
  -21   42   39      6.68      0.00
  -12   42   39      2.07      0.00
   -9   42   39      6.43      0.00
  -29   43   39     10.65      0.00
  -23   43   39      2.05      0.00
  -20   43   39      9.71      0.00
  -17   43   39     10.78      0.00
  -14   43   39     -3.93      0.00
  -25   44   39    -12.16      0.00
  -22   44   39      0.37      0.00
  -19   44   39      0.01      0.00
  -34   34   40    -24.81      0.00
  -37   37   40    -25.55      0.00
   -1   37   40     10.41      0.00
  -36   38   40      2.48      0.00
   -3   38   40    -10.29      0.00
    0   38   40     13.97      0.00
  -35   39   40      0.61      0.00
   -2   39   40     -0.84      0.00
  -34   40   40     -4.26      0.00
  -10   40   40    -21.53      0.00
   -4   40   40      7.71      0.00
  -33   41   40     -6.05      0.00
  -30   41   40     15.80      0.00
   -9   41   40     10.67      0.00
  -32   42   40      1.85      0.00
  -20   42   40     -2.19      0.00
  -11   42   40     -3.72      0.00
  -28   43   40    -13.03      0.00
  -22   43   40      1.23      0.00
  -19   43   40      4.06      0.00
  -16   43   40    -10.40      0.00
  -13   43   40     12.25      0.00
  -24   44   40      0.60      0.00
  -21   44   40     15.87      0.00
  -36   37   41      3.96      0.00
  -35   38   41     16.80      0.00
   -2   38   41     -2.39      0.00
  -37   39   41      0.32      0.00
   -4   39   41     -3.65      0.00
  -33   40   41      9.01      0.00
   -6   40   41     28.66      0.00
  -32   41   41    -10.10      0.00
  -26   41   41      8.86      0.00
  -11   41   41      0.72      0.00
   -8   41   41     17.31      0.00
  -31   42   41     -1.03      0.00
  -22   42   41    -12.16      0.00
  -19   42   41     -4.37      0.00
  -13   42   41      5.83      0.00
  -10   42   41      6.08      0.00
  -27   43   41      6.19      0.00
  -24   43   41     -5.49      0.00
  -21   43   41     16.53      0.00
  -18   43   41     -5.29      0.00
  -15   43   41      3.83      0.00
  -36   36   42     12.41      0.00
    0   36   42     15.24      0.00
  -35   37   42      4.95      0.00
   -2   37   42     -4.11      0.00
  -37   38   42     -0.36      0.00
   -1   38   42     -4.44      0.00
  -36   39   42    -12.96      0.00
   -3   39   42     -6.03      0.00
  -35   40   42    -17.47      0.00
   -5   40   42      0.18      0.00
  -31   41   42      6.02      0.00
  -19   41   42     -0.01      0.00
  -10   41   42    -13.53      0.00
  -30   42   42     -5.25      0.00
  -27   42   42     -4.92      0.00
  -24   42   42     -6.37      0.00
  -21   42   42     14.30      0.00
  -18   42   42     -3.37      0.00
  -12   42   42     12.32      0.00
  -26   43   42      8.57      0.00
  -23   43   42      2.46      0.00
  -20   43   42      5.75      0.00
  -17   43   42      7.55      0.00
   -7   37   43      6.77      0.00
   -1   37   43      9.13      0.00
  -36   38   43    -11.49      0.00
   -3   38   43     -8.71      0.00
  -35   39   43     -4.37      0.00
   -5   39   43      4.93      0.00
  -34   40   43    -11.12      0.00
  -31   40   43     -5.47      0.00
  -10   40   43      8.07      0.00
   -7   40   43      0.12      0.00
  -33   41   43     -9.11      0.00
  -30   41   43      1.51      0.00
  -21   41   43     -7.12      0.00
  -12   41   43     -6.59      0.00
   -9   41   43     13.93      0.00
  -29   42   43      2.62      0.00
  -26   42   43     -3.17      0.00
  -20   42   43      4.94      0.00
  -17   42   43      6.83      0.00
  -14   42   43      1.60      0.00
  -11   42   43     -4.11      0.00
  -28   43   43      1.59      0.00
  -25   43   43      7.44      0.00
  -22   43   43     -7.48      0.00
  -19   43   43      0.88      0.00
  -16   43   43     18.18      0.00
   -1   36   44      0.30      0.00
  -36   37   44      5.38      0.00
    0   37   44     15.34      0.00
  -35   38   44      1.87      0.00
   -2   38   44    -14.45      0.00
   -7   39   44    -16.79      0.00
   -4   39   44    -16.91      0.00
  -33   40   44     11.76      0.00
  -30   40   44      7.34      0.00
   -9   40   44     16.54      0.00
   -6   40   44      8.80      0.00
  -32   41   44     -0.08      0.00
  -20   41   44      8.27      0.00
  -11   41   44      9.41      0.00
   -8   41   44    -13.02      0.00
  -28   42   44     10.33      0.00
  -22   42   44     11.68      0.00
  -19   42   44      3.25      0.00
  -13   42   44      4.35      0.00
  -27   43   44     12.96      0.00
  -24   43   44      4.83      0.00
  -21   43   44     -1.01      0.00
  -18   43   44     -6.50      0.00
  -35   37   45     10.08      0.00
   -2   37   45    -13.51      0.00
  -37   38   45     10.05      0.00
   -4   38   45      3.02      0.00
   -1   38   45     -4.56      0.00
  -33   39   45     -4.85      0.00
  -30   39   45     13.63      0.00
  -32   40   45      6.50      0.00
  -11   40   45    -35.11      0.00
  -31   41   45     -7.69      0.00
  -19   41   45     -9.07      0.00
  -13   41   45     10.03      0.00
  -10   41   45      9.37      0.00
  -30   42   45      6.47      0.00
  -27   42   45     -3.91      0.00
  -24   42   45      2.16      0.00
  -21   42   45     15.02      0.00
  -18   42   45     -0.49      0.00
  -15   42   45     -4.04      0.00
  -12   42   45      4.52      0.00
  -26   43   45      2.93      0.00
  -23   43   45    -14.24      0.00
  -20   43   45     -2.58      0.00
  -17   43   45      1.77      0.00
    0   35   46    -12.72      0.00
  -35   36   46    -10.25      0.00
  -37   37   46      1.44      0.00
   -4   37   46    -11.53      0.00
   -1   37   46     -1.42      0.00
  -36   38   46      5.12      0.00
   -3   38   46    -16.34      0.00
  -35   39   46     -2.37      0.00
   -5   39   46     10.77      0.00
  -34   40   46      7.22      0.00
  -31   40   46     -0.55      0.00
  -10   40   46     -5.64      0.00
   -7   40   46     19.43      0.00
  -30   41   46     -1.36      0.00
  -21   41   46     -2.62      0.00
  -18   41   46    -10.22      0.00
  -12   41   46      5.67      0.00
   -9   41   46     12.42      0.00
  -29   42   46     -5.98      0.00
  -26   42   46    -10.10      0.00
  -20   42   46     -8.71      0.00
  -17   42   46      0.87      0.00
  -14   42   46     -4.31      0.00
  -22   43   46      1.37      0.00
  -19   43   46     -4.53      0.00
   -1   36   47    -19.06      0.00
  -36   37   47     -2.91      0.00
   -3   37   47     19.13      0.00
  -35   38   47      7.66      0.00
   -2   38   47      7.22      0.00
  -34   39   47     -0.54      0.00
  -10   39   47    -34.21      0.00
   -4   39   47     -9.80      0.00
  -33   40   47     -3.12      0.00
  -30   40   47     -6.99      0.00
  -12   40   47     -3.48      0.00
   -9   40   47     23.82      0.00
  -29   41   47    -24.47      0.00
  -26   41   47    -10.49      0.00
  -20   41   47     -7.21      0.00
  -11   41   47     -3.56      0.00
  -28   42   47      8.40      0.00
  -25   42   47     -9.12      0.00
  -22   42   47      1.53      0.00
  -19   42   47    -16.48      0.00
  -16   42   47      2.77      0.00
  -36   36   48      1.18      0.00
    0   36   48     10.96      0.00
  -35   37   48      3.86      0.00
   -2   37   48      4.44      0.00
  -34   38   48     -8.08      0.00
   -7   38   48    -25.63      0.00
  -33   39   48     -4.05      0.00
  -30   39   48     14.93      0.00
   -9   39   48      1.79      0.00
   -6   39   48     -3.65      0.00
  -32   40   48      2.06      0.00
  -29   40   48     -1.71      0.00
  -11   40   48     -3.64      0.00
   -8   40   48     -5.32      0.00
  -31   41   48     13.05      0.00
  -28   41   48     -6.10      0.00
  -25   41   48     -4.73      0.00
  -19   41   48     -7.51      0.00
  -13   41   48      0.17      0.00
  -10   41   48    -10.07      0.00
  -27   42   48     -6.42      0.00
  -24   42   48     -1.40      0.00
  -21   42   48    -13.45      0.00
  -18   42   48     -7.07      0.00
  -15   42   48      1.97      0.00
  -35   36   49     15.58      0.00
   -1   37   49     -5.96      0.00
  -33   38   49     -2.46      0.00
   -3   38   49     -1.41      0.00
  -32   39   49      2.65      0.00
  -29   39   49     -3.34      0.00
   -5   39   49      5.21      0.00
  -31   40   49    -16.13      0.00
  -22   40   49    -12.63      0.00
  -10   40   49    -12.02      0.00
  -30   41   49      5.66      0.00
  -27   41   49      6.68      0.00
  -24   41   49     15.64      0.00
  -21   41   49    -10.41      0.00
  -18   41   49    -12.26      0.00
  -12   41   49     16.58      0.00
  -26   42   49     -9.12      0.00
  -23   42   49     -9.73      0.00
  -20   42   49     12.39      0.00
  -17   42   49      0.54      0.00
  -35   35   50     -1.22      0.00
   -1   36   50     -4.17      0.00
  -36   37   50     10.43      0.00
  -33   37   50      4.01      0.00
  -30   37   50     -5.12      0.00
  -35   38   50    -11.14      0.00
   -5   38   50     -5.67      0.00
  -31   39   50      4.18      0.00
  -10   39   50     -8.33      0.00
   -7   39   50      3.10      0.00
  -30   40   50    -13.64      0.00
  -12   40   50    -12.03      0.00
   -9   40   50     -2.21      0.00
  -29   41   50    -14.31      0.00
  -26   41   50     -8.65      0.00
  -20   41   50      8.30      0.00
  -14   41   50    -15.43      0.00
  -25   42   50    -15.16      0.00
  -22   42   50    -10.34      0.00
  -19   42   50      6.23      0.00
  -35   37   51     22.22      0.00
   -2   37   51     -5.31      0.00
  -34   38   51     -5.25      0.00
   -7   38   51    -23.48      0.00
   -4   38   51     -6.22      0.00
  -33   39   51     -0.93      0.00
  -30   39   51     -0.23      0.00
   -9   39   51     12.98      0.00
   -6   39   51     -0.77      0.00
  -29   40   51      9.88      0.00
  -11   40   51     -2.99      0.00
  -28   41   51     -0.16      0.00
  -25   41   51     13.68      0.00
  -22   41   51      4.28      0.00
  -19   41   51     -4.76      0.00
  -16   41   51     -5.40      0.00
  -13   41   51      5.88      0.00
  -24   42   51      5.67      0.00
  -21   42   51     -1.64      0.00
  -18   42   51     -5.32      0.00
  -34   34   52      9.26      0.00
    0   35   52     -4.77      0.00
  -35   36   52     10.04      0.00
  -34   37   52     -4.77      0.00
  -33   38   52     15.09      0.00
  -12   38   52     -9.32      0.00
   -9   38   52      5.55      0.00
   -6   38   52     -3.18      0.00
  -32   39   52      7.31      0.00
  -29   39   52      0.06      0.00
  -11   39   52     -7.88      0.00
   -8   39   52      8.31      0.00
  -31   40   52      0.31      0.00
  -28   40   52     13.98      0.00
  -25   40   52      8.37      0.00
  -22   40   52      0.03      0.00
  -13   40   52     20.20      0.00
  -10   40   52     -6.81      0.00
  -27   41   52     -3.53      0.00
  -24   41   52      0.95      0.00
  -18   41   52     -0.69      0.00
  -15   41   52      0.78      0.00
   -1   36   53     -0.98      0.00
  -33   37   53    -13.29      0.00
   -3   37   53      9.34      0.00
  -32   38   53    -17.57      0.00
  -29   38   53      6.81      0.00
   -5   38   53     -3.33      0.00
  -31   39   53     -7.68      0.00
  -28   39   53    -15.03      0.00
  -25   39   53     10.29      0.00
  -10   39   53    -15.35      0.00
   -7   39   53      9.12      0.00
  -30   40   53    -18.28      0.00
  -27   40   53      2.67      0.00
  -24   40   53      1.66      0.00
  -15   40   53      8.84      0.00
  -12   40   53    -11.18      0.00
  -26   41   53      5.38      0.00
  -23   41   53      2.15      0.00
  -20   41   53      9.65      0.00
  -17   41   53     -1.78      0.00
  -14   41   53     -2.68      0.00
  -32   37   54      0.45      0.00
  -29   37   54      5.61      0.00
   -5   37   54      1.51      0.00
  -28   38   54    -10.20      0.00
  -25   38   54     -6.03      0.00
  -10   38   54     -6.94      0.00
   -7   38   54     -5.04      0.00
  -30   39   54      6.04      0.00
  -12   39   54      0.53      0.00
   -9   39   54     -5.39      0.00
  -29   40   54      0.65      0.00
  -26   40   54      3.97      0.00
  -23   40   54     -6.02      0.00
  -17   40   54    -11.45      0.00
  -11   40   54      3.55      0.00
  -25   41   54    -10.96      0.00
  -22   41   54      3.24      0.00
  -19   41   54      3.27      0.00
  -16   41   54     -1.18      0.00
  -35   36   55      8.09      0.00
   -2   36   55    -13.76      0.00
  -34   37   55     12.78      0.00
  -28   37   55      6.62      0.00
   -4   37   55     -1.05      0.00
  -33   38   55     16.81      0.00
  -30   38   55      9.24      0.00
   -9   38   55    -13.57      0.00
   -6   38   55     -2.38      0.00
  -29   39   55     15.19      0.00
  -11   39   55     -0.70      0.00
   -8   39   55    -12.73      0.00
  -28   40   55     13.70      0.00
  -25   40   55     23.58      0.00
  -22   40   55     -2.94      0.00
  -16   40   55    -15.33      0.00
  -13   40   55     11.18      0.00
  -24   41   55     -6.94      0.00
  -21   41   55     11.00      0.00
  -18   41   55      7.32      0.00
  -35   35   56    -16.01      0.00
  -34   36   56      2.98      0.00
   -4   36   56     14.01      0.00
   -1   36   56     -9.35      0.00
  -33   37   56     -7.01      0.00
   -9   37   56     -3.53      0.00
   -6   37   56    -10.65      0.00
  -32   38   56      4.15      0.00
  -29   38   56     15.64      0.00
  -11   38   56    -17.91      0.00
   -8   38   56     -0.41      0.00
  -28   39   56     -0.62      0.00
  -25   39   56    -14.75      0.00
  -22   39   56     15.59      0.00
  -10   39   56      7.36      0.00
  -27   40   56    -11.32      0.00
  -24   40   56     -5.75      0.00
  -21   40   56     -8.14      0.00
  -15   40   56     -1.13      0.00
  -12   40   56     -2.27      0.00
  -20   41   56     -4.38      0.00
  -34   35   57     21.70      0.00
  -33   36   57    -16.98      0.00
   -6   36   57     -5.45      0.00
   -3   36   57    -23.07      0.00
  -32   37   57      5.00      0.00
   -5   37   57      7.29      0.00
  -31   38   57    -12.51      0.00
  -28   38   57     -5.26      0.00
  -25   38   57      8.31      0.00
  -10   38   57    -16.04      0.00
   -7   38   57     -2.36      0.00
  -30   39   57     -5.38      0.00
  -24   39   57    -28.02      0.00
  -15   39   57     -0.21      0.00
  -12   39   57     -6.10      0.00
   -9   39   57     -1.62      0.00
  -26   40   57    -21.95      0.00
  -23   40   57      1.85      0.00
  -20   40   57    -17.56      0.00
  -17   40   57      0.67      0.00
  -14   40   57      7.96      0.00
  -34   34   58     -3.43      0.00
  -33   35   58      8.63      0.00
    0   35   58    -14.55      0.00
  -32   36   58      9.12      0.00
   -5   36   58      8.38      0.00
   -2   36   58      1.62      0.00
  -31   37   58     -3.07      0.00
  -28   37   58    -17.05      0.00
  -10   37   58      5.50      0.00
   -4   37   58      9.10      0.00
  -30   38   58     20.92      0.00
  -27   38   58      9.08      0.00
  -12   38   58     -8.39      0.00
   -9   38   58     13.22      0.00
  -29   39   58     -1.24      0.00
  -26   39   58    -15.23      0.00
  -23   39   58    -14.38      0.00
  -11   39   58      7.03      0.00
  -25   40   58     -2.39      0.00
  -22   40   58     -1.64      0.00
  -19   40   58     -8.48      0.00
  -16   40   58     13.69      0.00
  -32   35   59     -8.91      0.00
   -2   35   59     -0.01      0.00
  -31   36   59    -23.56      0.00
   -4   36   59     -3.27      0.00
   -9   37   59    -11.56      0.00
   -6   37   59    -18.28      0.00
  -29   38   59      0.39      0.00
  -26   38   59      8.04      0.00
  -23   38   59     10.66      0.00
  -14   38   59      2.74      0.00
  -11   38   59    -16.35      0.00
   -8   38   59     -9.80      0.00
  -28   39   59     -2.36      0.00
  -25   39   59      3.31      0.00
  -22   39   59     -6.41      0.00
  -19   39   59     -8.21      0.00
  -16   39   59      2.31      0.00
  -13   39   59     20.38      0.00
  -24   40   59      3.64      0.00
  -21   40   59      6.96      0.00
  -18   40   59     -1.09      0.00
  -34   35   60      1.45      0.00
  -31   35   60      3.48      0.00
   -4   35   60      0.55      0.00
   -1   35   60     10.99      0.00
  -33   36   60     -1.65      0.00
  -27   36   60     13.62      0.00
   -9   36   60     -9.98      0.00
   -6   36   60    -11.09      0.00
   -3   36   60     -2.60      0.00
  -29   37   60      3.05      0.00
  -11   37   60    -11.47      0.00
   -8   37   60     -6.83      0.00
  -28   38   60     -3.62      0.00
  -25   38   60     -0.47      0.00
  -22   38   60     12.22      0.00
  -13   38   60      5.21      0.00
  -10   38   60     -3.11      0.00
  -27   39   60     -4.23      0.00
  -24   39   60     -5.85      0.00
  -21   39   60      7.15      0.00
  -15   39   60     19.57      0.00
  -12   39   60     -6.81      0.00
  -20   40   60      9.01      0.00
  -33   35   61    -12.23      0.00
  -30   35   61      8.24      0.00
   -3   35   61      0.75      0.00
  -32   36   61    -11.67      0.00
  -11   36   61    -14.79      0.00
   -8   36   61      3.48      0.00
   -5   36   61     22.23      0.00
  -31   37   61     20.74      0.00
  -28   37   61     -9.02      0.00
  -10   37   61     12.04      0.00
   -7   37   61     -2.93      0.00
  -27   38   61     -7.32      0.00
  -24   38   61     19.78      0.00
  -21   38   61     -5.25      0.00
  -15   38   61      8.06      0.00
  -12   38   61     -4.61      0.00
   -9   38   61     -8.50      0.00
  -26   39   61    -13.07      0.00
  -23   39   61     -6.91      0.00
  -20   39   61     14.13      0.00
  -14   39   61      7.54      0.00
  -32   32   62     10.12      0.00
  -33   34   62    -24.29      0.00
    0   34   62    -12.65      0.00
  -32   35   62      1.04      0.00
  -29   35   62     10.75      0.00
   -8   35   62     -2.12      0.00
   -5   35   62      9.23      0.00
   -2   35   62      6.93      0.00
  -31   36   62     16.54      0.00
  -28   36   62      6.08      0.00
  -10   36   62      5.43      0.00
   -4   36   62     -2.03      0.00
  -30   37   62     -0.03      0.00
  -27   37   62     -5.05      0.00
  -12   37   62      0.36      0.00
   -9   37   62     18.85      0.00
  -26   38   62    -24.00      0.00
  -23   38   62      0.58      0.00
  -20   38   62    -10.12      0.00
  -11   38   62     12.91      0.00
  -25   39   62     -4.25      0.00
  -22   39   62     -1.87      0.00
  -19   39   62     13.65      0.00
  -16   39   62      6.74      0.00
   -2   34   63     -6.10      0.00
  -31   35   63     -4.09      0.00
   -4   35   63      5.73      0.00
  -30   36   63     12.44      0.00
  -27   36   63      9.23      0.00
   -9   36   63     21.96      0.00
   -6   36   63      7.37      0.00
  -29   37   63    -12.79      0.00
  -11   37   63      7.71      0.00
   -8   37   63      4.28      0.00
  -25   38   63      5.95      0.00
  -22   38   63    -15.34      0.00
  -13   38   63     -3.19      0.00
  -21   39   63     11.51      0.00
  -18   39   63     -0.35      0.00
    0   32   64     -2.68      0.00
   -4   34   64     -1.00      0.00
   -1   34   64     -4.66      0.00
  -30   35   64    -11.26      0.00
   -9   35   64     -1.86      0.00
   -3   35   64      7.11      0.00
  -29   36   64      8.18      0.00
  -11   36   64     23.85      0.00
   -8   36   64     -8.47      0.00
   -5   36   64     -4.52      0.00
  -28   37   64      8.92      0.00
  -22   37   64     -5.04      0.00
  -13   37   64     11.53      0.00
  -10   37   64      4.55      0.00
  -24   38   64     12.39      0.00
  -21   38   64      7.85      0.00
  -18   38   64     -9.17      0.00
  -15   38   64     -7.10      0.00
  -12   38   64    -14.13      0.00
  -20   39   64     -1.80      0.00
  -31   33   65     -3.14      0.00
   -1   33   65      4.03      0.00
  -33   34   65     -9.99      0.00
  -29   35   65     14.36      0.00
   -5   35   65      0.32      0.00
  -28   36   65     -3.09      0.00
  -10   36   65     -4.23      0.00
   -7   36   65    -19.77      0.00
  -27   37   65     -3.57      0.00
  -24   37   65      6.84      0.00
  -21   37   65     -7.09      0.00
  -12   37   65     -3.30      0.00
   -9   37   65      1.67      0.00
  -23   38   65     -3.30      0.00
  -20   38   65      5.55      0.00
  -17   38   65    -22.71      0.00
  -14   38   65     -9.80      0.00
  -33   33   66    -13.25      0.00
   -3   33   66      9.44      0.00
    0   33   66      3.85      0.00
  -32   34   66      7.13      0.00
   -2   34   66     -5.79      0.00
  -31   35   66     -6.69      0.00
  -10   35   66      0.74      0.00
   -7   35   66     -4.44      0.00
   -4   35   66     -1.46      0.00
  -27   36   66     -4.21      0.00
   -9   36   66     -7.70      0.00
  -26   37   66     10.95      0.00
  -23   37   66     -0.01      0.00
  -17   37   66     -7.09      0.00
  -11   37   66     -9.94      0.00
  -22   38   66     12.39      0.00
  -19   38   66     -2.50      0.00
  -16   38   66     -1.30      0.00
  -32   33   67     14.90      0.00
   -2   33   67      0.35      0.00
  -31   34   67     14.25      0.00
  -30   35   67      7.65      0.00
  -27   35   67      4.85      0.00
   -9   35   67      2.59      0.00
   -6   35   67     -4.91      0.00
  -29   36   67      6.91      0.00
  -26   36   67     -5.24      0.00
  -23   36   67      3.48      0.00
  -11   36   67     -1.56      0.00
   -8   36   67     -4.81      0.00
  -25   37   67     -8.40      0.00
  -22   37   67    -17.88      0.00
  -19   37   67      6.31      0.00
  -16   37   67     -5.96      0.00
  -13   37   67      5.23      0.00
  -21   38   67     -6.68      0.00
  -18   38   67    -15.20      0.00
  -32   32   68     24.88      0.00
  -31   33   68      7.45      0.00
   -1   33   68      6.20      0.00
  -30   34   68     -6.14      0.00
   -6   34   68     -2.81      0.00
   -3   34   68     -3.38      0.00
  -29   35   68      6.83      0.00
  -26   35   68    -16.06      0.00
   -8   35   68     -0.04      0.00
   -5   35   68     -7.97      0.00
  -28   36   68     -1.95      0.00
  -25   36   68    -21.50      0.00
  -22   36   68      0.46      0.00
  -10   36   68    -13.25      0.00
  -24   37   68    -10.67      0.00
  -21   37   68      0.02      0.00
  -18   37   68     -6.29      0.00
  -15   37   68     -0.19      0.00
  -12   37   68      1.62      0.00
  -31   32   69     10.28      0.00
   -1   32   69     -5.68      0.00
  -30   33   69     -5.12      0.00
   -3   33   69     -1.87      0.00
  -29   34   69      8.00      0.00
   -8   34   69    -20.44      0.00
  -28   35   69    -16.22      0.00
  -10   35   69     -1.82      0.00
   -7   35   69     -3.18      0.00
  -27   36   69      6.82      0.00
  -24   36   69      6.36      0.00
  -18   36   69      6.31      0.00
  -15   36   69     -0.89      0.00
   -9   36   69      2.91      0.00
  -23   37   69     12.12      0.00
  -20   37   69     22.59      0.00
  -17   37   69     11.54      0.00
  -14   37   69      6.58      0.00
  -31   31   70    -16.24      0.00
   -1   31   70    -14.49      0.00
  -30   32   70     11.67      0.00
    0   32   70     -5.95      0.00
  -29   33   70     17.80      0.00
   -2   33   70      5.56      0.00
  -28   34   70     -6.52      0.00
   -4   34   70     -0.05      0.00
  -27   35   70      2.40      0.00
   -9   35   70      3.24      0.00
  -26   36   70      6.43      0.00
  -23   36   70      6.01      0.00
  -20   36   70     -2.97      0.00
  -17   36   70    -10.66      0.00
  -14   36   70     -7.86      0.00
  -11   36   70      9.80      0.00
  -22   37   70      8.48      0.00
  -19   37   70     -9.38      0.00
  -16   37   70     -3.82      0.00
  -30   31   71      4.96      0.00
  -29   32   71     -6.35      0.00
   -2   32   71      5.59      0.00
  -28   33   71    -10.71      0.00
   -4   33   71    -12.21      0.00
   -6   34   71      4.39      0.00
  -26   35   71     10.77      0.00
  -23   35   71     -1.95      0.00
  -17   35   71      7.87      0.00
  -14   35   71     -7.30      0.00
   -8   35   71     10.79      0.00
  -25   36   71     -2.78      0.00
  -22   36   71     -2.87      0.00
  -19   36   71     14.03      0.00
  -16   36   71      7.33      0.00
  -13   36   71     -8.57      0.00
  -30   30   72     -8.21      0.00
    0   30   72     -9.66      0.00
  -29   31   72     -1.25      0.00
   -2   31   72      2.85      0.00
  -31   32   72     -2.98      0.00
  -28   32   72      5.30      0.00
   -1   32   72      0.67      0.00
  -30   33   72     -5.04      0.00
   -3   33   72     12.00      0.00
   -8   34   72      0.89      0.00
  -25   35   72      3.57      0.00
  -22   35   72      3.12      0.00
  -19   35   72      7.08      0.00
  -16   35   72      1.87      0.00
  -13   35   72     -0.59      0.00
  -10   35   72      6.87      0.00
  -21   36   72     -9.13      0.00
  -18   36   72      9.79      0.00
  -15   36   72      4.54      0.00
  -29   30   73    -20.02      0.00
  -28   31   73     14.26      0.00
   -1   31   73     -8.01      0.00
  -30   32   73     12.26      0.00
   -3   32   73    -10.34      0.00
  -29   33   73      8.51      0.00
   -8   33   73      5.15      0.00
   -5   33   73      6.05      0.00
  -25   34   73      8.22      0.00
  -16   34   73     10.23      0.00
   -7   34   73      3.04      0.00
  -24   35   73    -11.58      0.00
  -21   35   73      6.13      0.00
  -18   35   73     -8.60      0.00
  -15   35   73     20.92      0.00
  -12   35   73      8.23      0.00
  -20   36   73    -13.16      0.00
  -17   36   73     -9.93      0.00
  -29   29   74     18.56      0.00
  -28   30   74     15.47      0.00
   -1   30   74      7.20      0.00
  -30   31   74     -4.51      0.00
   -3   31   74     -2.56      0.00
    0   31   74     11.33      0.00
  -29   32   74     -7.34      0.00
   -2   32   74      0.14      0.00
  -28   33   74     -1.57      0.00
  -10   33   74      2.27      0.00
  -27   34   74     -6.14      0.00
  -24   34   74      7.61      0.00
  -18   34   74     -7.70      0.00
  -15   34   74     -6.33      0.00
   -9   34   74     -2.45      0.00
  -23   35   74      5.05      0.00
  -20   35   74     -5.00      0.00
  -17   35   74     13.04      0.00
  -14   35   74     -0.98      0.00
  -11   35   74     -1.17      0.00
  -28   29   75      1.06      0.00
  -29   31   75      5.58      0.00
   -2   31   75      5.66      0.00
  -28   32   75      0.75      0.00
   -4   32   75     11.75      0.00
  -27   33   75     -1.01      0.00
  -15   33   75     16.49      0.00
   -6   33   75      6.11      0.00
  -26   34   75     -0.58      0.00
  -23   34   75     -3.39      0.00
  -20   34   75      7.41      0.00
  -17   34   75     -1.09      0.00
  -14   34   75     -0.68      0.00
  -11   34   75      9.07      0.00
   -8   34   75      0.67      0.00
  -22   35   75      2.72      0.00
  -19   35   75     -9.77      0.00
  -16   35   75      2.62      0.00
  -13   35   75     -8.08      0.00
  -28   28   76      4.78      0.00
  -27   29   76    -11.50      0.00
    0   29   76      3.43      0.00
  -29   30   76    -11.43      0.00
   -2   30   76      8.75      0.00
  -28   31   76     -7.84      0.00
   -4   31   76      0.01      0.00
  -27   32   76     -5.16      0.00
  -21   32   76      2.65      0.00
  -26   33   76    -26.00      0.00
  -17   33   76      9.38      0.00
  -14   33   76    -11.01      0.00
   -8   33   76      3.88      0.00
  -22   34   76     10.12      0.00
  -19   34   76     -5.55      0.00
  -16   34   76     -4.60      0.00
  -13   34   76    -11.67      0.00
  -10   34   76     -3.65      0.00
  -18   35   76      1.54      0.00
  -15   35   76      1.84      0.00
  -27   28   77     -5.45      0.00
   -2   29   77      2.57      0.00
  -28   30   77      7.43      0.00
   -1   30   77      7.12      0.00
  -27   31   77     -9.59      0.00
   -3   31   77      8.38      0.00
  -26   32   77     12.72      0.00
   -5   32   77     -2.69      0.00
  -25   33   77     17.14      0.00
  -19   33   77      6.71      0.00
  -16   33   77      6.97      0.00
  -13   33   77    -14.68      0.00
  -10   33   77      8.08      0.00
   -7   33   77     -1.87      0.00
  -21   34   77    -18.37      0.00
  -18   34   77    -13.60      0.00
  -15   34   77     12.39      0.00
  -12   34   77     18.19      0.00
  -27   27   78      4.95      0.00
  -28   29   78      5.58      0.00
   -1   29   78     10.30      0.00
  -27   30   78      7.03      0.00
  -26   31   78     -0.11      0.00
  -25   32   78      5.96      0.00
  -19   32   78     -7.16      0.00
   -7   32   78     -8.49      0.00
  -24   33   78     10.79      0.00
  -18   33   78     -6.11      0.00
  -15   33   78      7.31      0.00
  -12   33   78      5.80      0.00
   -9   33   78     -9.34      0.00
  -20   34   78    -10.34      0.00
  -17   34   78      9.41      0.00
  -14   34   78     -3.69      0.00
  -27   29   79      6.43      0.00
  -29   30   79    -23.18      0.00
  -26   30   79     -0.32      0.00
   -2   30   79     -3.06      0.00
  -25   31   79     -4.77      0.00
   -4   31   79      7.34      0.00
  -24   32   79    -11.24      0.00
  -18   32   79     -2.02      0.00
   -9   32   79     -6.14      0.00
   -6   32   79     -6.08      0.00
  -23   33   79     -9.61      0.00
  -20   33   79      6.85      0.00
  -17   33   79     -0.69      0.00
  -14   33   79      7.14      0.00
  -11   33   79     -3.74      0.00
  -19   34   79     -5.13      0.00
  -16   34   79     11.29      0.00
  -27   28   80      0.34      0.00
  -29   29   80    -22.30      0.00
  -26   29   80    -22.05      0.00
  -28   30   80     -7.53      0.00
  -25   30   80     -0.61      0.00
   -4   30   80    -14.39      0.00
  -18   31   80     -2.36      0.00
   -9   31   80     -3.75      0.00
   -6   31   80     -8.43      0.00
  -23   32   80      8.73      0.00
  -20   32   80    -14.88      0.00
  -17   32   80     -0.95      0.00
  -14   32   80     -2.99      0.00
  -11   32   80      0.65      0.00
   -8   32   80     -0.55      0.00
  -22   33   80     16.70      0.00
  -19   33   80     -5.39      0.00
  -16   33   80     22.56      0.00
  -13   33   80     12.03      0.00
  -26   28   81     -7.64      0.00
  -28   29   81     -9.19      0.00
   -1   29   81      2.11      0.00
  -27   30   81    -19.16      0.00
   -6   30   81      3.91      0.00
   -3   30   81     13.47      0.00
  -26   31   81     -8.85      0.00
  -20   31   81      6.88      0.00
   -8   31   81      4.00      0.00
   -5   31   81     -0.55      0.00
  -22   32   81     -1.59      0.00
  -19   32   81     -3.86      0.00
  -13   32   81     -9.05      0.00
  -10   32   81     -2.24      0.00
  -18   33   81    -16.63      0.00
  -15   33   81     -4.71      0.00
  -28   28   82    -17.99      0.00
   -1   28   82    -11.47      0.00
  -27   29   82      1.95      0.00
  -24   29   82      6.13      0.00
   -3   29   82      6.98      0.00
  -26   30   82     16.62      0.00
   -8   30   82     -3.96      0.00
   -5   30   82     11.57      0.00
  -22   31   82      1.43      0.00
  -19   31   82     -1.20      0.00
  -10   31   82     -2.25      0.00
   -7   31   82     -7.84      0.00
  -21   32   82     17.24      0.00
  -18   32   82      4.00      0.00
  -15   32   82      0.98      0.00
  -12   32   82     -8.67      0.00
   -1   27   83     -0.73      0.00
  -27   28   83     11.77      0.00
   -3   28   83     -5.48      0.00
  -26   29   83     -3.76      0.00
   -8   29   83      3.78      0.00
   -2   29   83      4.82      0.00
  -25   30   83      1.88      0.00
  -19   30   83     -0.25      0.00
  -21   31   83      7.22      0.00
  -18   31   83     -0.90      0.00
  -15   31   83     16.16      0.00
   -9   31   83     21.60      0.00
  -20   32   83     14.24      0.00
  -17   32   83     -6.35      0.00
  -14   32   83     -7.97      0.00
  -25   26   84     -1.88      0.00
  -27   27   84     19.06      0.00
    0   27   84     -9.28      0.00
  -26   28   84      7.01      0.00
   -2   28   84      5.53      0.00
  -25   29   84     -7.57      0.00
   -4   29   84     17.82      0.00
  -24   30   84    -12.00      0.00
  -21   30   84     -3.05      0.00
  -18   30   84     -2.75      0.00
   -9   30   84      6.25      0.00
   -6   30   84      2.87      0.00
  -20   31   84     -1.69      0.00
  -17   31   84      2.32      0.00
  -14   31   84     15.85      0.00
  -11   31   84      2.06      0.00
  -16   32   84     -2.31      0.00
  -26   27   85     -7.13      0.00
   -2   27   85      4.67      0.00
  -25   28   85      0.83      0.00
   -4   28   85     -1.20      0.00
  -24   29   85      1.08      0.00
  -21   29   85     11.42      0.00
   -6   29   85      2.82      0.00
  -23   30   85    -16.41      0.00
  -20   30   85     12.68      0.00
  -14   30   85     12.49      0.00
  -11   30   85     -2.08      0.00
   -8   30   85     13.93      0.00
  -19   31   85     -2.68      0.00
  -16   31   85      3.52      0.00
  -13   31   85     16.46      0.00
    0   25   86     12.83      0.00
  -26   26   86     -8.00      0.00
   -2   26   86      1.94      0.00
  -25   27   86     -2.28      0.00
   -4   27   86     -6.28      0.00
   -1   27   86    -10.75      0.00
  -24   28   86      9.16      0.00
   -6   28   86     13.62      0.00
   -3   28   86      2.03      0.00
  -23   29   86      8.42      0.00
  -14   29   86    -20.09      0.00
  -11   29   86    -12.27      0.00
   -8   29   86      6.12      0.00
   -5   29   86     -5.84      0.00
  -22   30   86     12.93      0.00
  -19   30   86      1.89      0.00
  -16   30   86    -13.92      0.00
  -13   30   86     -6.18      0.00
  -10   30   86      2.83      0.00
  -15   31   86      9.01      0.00
   -2   25   87     18.26      0.00
  -25   26   87     12.11      0.00
   -1   26   87     -6.63      0.00
  -24   27   87      3.51      0.00
  -15   27   87     14.64      0.00
   -6   27   87     -2.41      0.00
   -3   27   87      7.75      0.00
  -23   28   87     -4.84      0.00
  -11   28   87     12.78      0.00
   -8   28   87     -4.83      0.00
   -5   28   87      5.91      0.00
  -22   29   87      2.62      0.00
  -19   29   87     11.53      0.00
  -16   29   87      5.10      0.00
  -13   29   87      9.24      0.00
  -10   29   87      2.88      0.00
   -7   29   87     -5.30      0.00
  -18   30   87     16.13      0.00
  -15   30   87      5.12      0.00
  -12   30   87      3.36      0.00
  -25   25   88     -6.56      0.00
   -1   25   88     10.19      0.00
  -24   26   88    -14.55      0.00
   -3   26   88      6.14      0.00
    0   26   88     -4.60      0.00
  -23   27   88     -9.96      0.00
  -14   27   88      4.14      0.00
   -5   27   88     -2.09      0.00
   -2   27   88     12.76      0.00
  -22   28   88      8.94      0.00
  -19   28   88     13.92      0.00
  -16   28   88      2.48      0.00
  -13   28   88      4.70      0.00
  -10   28   88     -8.06      0.00
   -7   28   88     10.64      0.00
  -21   29   88     -6.66      0.00
  -18   29   88     -6.69      0.00
  -15   29   88     -4.80      0.00
  -12   29   88     -1.64      0.00
   -9   29   88      8.15      0.00
  -17   30   88     -3.76      0.00
  -14   30   88     16.03      0.00
   -1   24   89      6.16      0.00
  -24   25   89    -20.57      0.00
   -3   25   89      4.63      0.00
  -23   26   89     10.44      0.00
   -5   26   89     -9.71      0.00
   -2   26   89      0.91      0.00
  -22   27   89      2.03      0.00
  -16   27   89      5.56      0.00
  -13   27   89    -15.30      0.00
  -10   27   89     -5.89      0.00
   -4   27   89     -8.53      0.00
  -21   28   89     -7.29      0.00
  -18   28   89      8.69      0.00
  -15   28   89      0.85      0.00
  -12   28   89     -1.33      0.00
   -9   28   89    -18.14      0.00
   -6   28   89      1.87      0.00
  -17   29   89    -14.74      0.00
  -14   29   89     -8.76      0.00
  -11   29   89    -16.97      0.00
  -22   23   90     -5.16      0.00
   -1   23   90     -5.73      0.00
  -24   24   90      0.82      0.00
   -3   24   90      8.94      0.00
    0   24   90    -25.71      0.00
  -23   25   90     -2.15      0.00
  -11   25   90      6.18      0.00
   -2   25   90     -0.11      0.00
  -22   26   90      0.41      0.00
  -16   26   90      0.35      0.00
  -13   26   90      2.22      0.00
   -4   26   90    -11.80      0.00
  -21   27   90     -7.52      0.00
  -18   27   90      3.84      0.00
  -15   27   90      5.04      0.00
  -12   27   90     -6.43      0.00
   -9   27   90     -7.04      0.00
   -6   27   90     10.22      0.00
  -20   28   90      1.33      0.00
  -17   28   90     -2.57      0.00
  -14   28   90     19.61      0.00
  -11   28   90      1.32      0.00
   -8   28   90      9.90      0.00
  -16   29   90    -13.86      0.00
  -13   29   90     -3.29      0.00
   -1   22   91     -2.62      0.00
  -21   23   91     -0.86      0.00
   -3   23   91     -8.29      0.00
  -23   24   91      7.28      0.00
   -2   24   91     -6.41      0.00
  -22   25   91    -15.92      0.00
  -13   25   91    -23.72      0.00
   -4   25   91      4.84      0.00
   -1   25   91     -4.27      0.00
  -21   26   91      6.06      0.00
  -15   26   91     21.60      0.00
  -12   26   91     -4.54      0.00
   -9   26   91      0.73      0.00
   -6   26   91     11.02      0.00
   -3   26   91     -0.90      0.00
  -20   27   91     -4.47      0.00
  -17   27   91     -3.71      0.00
  -14   27   91      0.40      0.00
  -11   27   91     -6.84      0.00
   -8   27   91     -1.99      0.00
  -16   28   91     -2.53      0.00
  -13   28   91     -4.37      0.00
  -10   28   91      1.46      0.00
  -21   22   92      7.36      0.00
    0   22   92     15.88      0.00
  -23   23   92      0.51      0.00
   -2   23   92      4.37      0.00
  -22   24   92    -14.41      0.00
  -13   24   92    -14.99      0.00
   -4   24   92     -9.64      0.00
   -1   24   92     12.21      0.00
  -21   25   92     13.22      0.00
  -15   25   92     11.07      0.00
  -12   25   92     -0.38      0.00
   -6   25   92    -14.74      0.00
   -3   25   92     16.44      0.00
  -20   26   92      1.94      0.00
  -17   26   92    -12.21      0.00
  -14   26   92      0.33      0.00
  -11   26   92     12.13      0.00
   -8   26   92     -8.97      0.00
   -5   26   92     -6.72      0.00
  -19   27   92     -6.85      0.00
  -16   27   92      9.62      0.00
  -13   27   92      7.57      0.00
  -10   27   92      3.95      0.00
   -7   27   92     18.70      0.00
  -15   28   92      3.69      0.00
   -2   22   93      8.92      0.00
  -22   23   93      4.78      0.00
   -4   23   93     -9.10      0.00
   -1   23   93     -9.51      0.00
  -21   24   93     11.95      0.00
  -12   24   93     -4.88      0.00
   -3   24   93     -0.18      0.00
  -20   25   93      2.12      0.00
  -14   25   93     -2.47      0.00
  -11   25   93      7.22      0.00
   -8   25   93      7.35      0.00
   -5   25   93     12.38      0.00
  -19   26   93     -1.34      0.00
  -16   26   93    -12.75      0.00
  -13   26   93     -9.88      0.00
  -10   26   93      0.24      0.00
   -7   26   93      6.62      0.00
  -15   27   93     11.64      0.00
  -12   27   93      7.28      0.00
    0   20   94     13.14      0.00
   -2   21   94     -5.54      0.00
  -22   22   94    -22.85      0.00
  -19   22   94      6.68      0.00
   -1   22   94      7.76      0.00
  -21   23   94     -0.57      0.00
  -12   23   94     15.13      0.00
   -3   23   94     -9.18      0.00
    0   23   94    -20.62      0.00
  -20   24   94     -1.89      0.00
  -14   24   94     -9.88      0.00
  -11   24   94     -8.56      0.00
   -5   24   94     -0.52      0.00
   -2   24   94      5.91      0.00
  -19   25   94      3.65      0.00
  -16   25   94     -2.73      0.00
  -13   25   94    -14.48      0.00
  -10   25   94     -6.84      0.00
   -7   25   94     -0.39      0.00
   -4   25   94      0.38      0.00
  -18   26   94     -5.74      0.00
  -15   26   94      2.78      0.00
  -12   26   94      4.56      0.00
   -9   26   94    -12.35      0.00
   -2   20   95     -8.90      0.00
   -1   21   95     -3.82      0.00
  -21   22   95     -1.99      0.00
  -12   22   95      1.26      0.00
   -3   22   95    -16.00      0.00
  -20   23   95     17.09      0.00
  -17   23   95    -10.81      0.00
  -11   23   95      4.15      0.00
   -8   23   95     -7.38      0.00
   -5   23   95     -6.89      0.00
   -2   23   95      0.79      0.00
  -19   24   95      0.94      0.00
  -13   24   95      1.45      0.00
  -10   24   95     -8.30      0.00
   -7   24   95      1.39      0.00
   -4   24   95      4.25      0.00
  -18   25   95      8.09      0.00
  -15   25   95      0.59      0.00
  -12   25   95      1.47      0.00
   -9   25   95     -2.02      0.00
   -6   25   95      6.74      0.00
  -14   26   95     10.72      0.00
  -11   26   95      7.62      0.00
    0   18   96    -15.11      0.00
   -1   20   96      6.22      0.00
  -21   21   96      9.72      0.00
   -3   21   96      9.21      0.00
    0   21   96    -15.51      0.00
  -20   22   96      4.02      0.00
  -17   22   96      1.43      0.00
  -11   22   96      7.10      0.00
   -8   22   96     11.14      0.00
   -2   22   96     -2.52      0.00
  -19   23   96     11.84      0.00
  -16   23   96      9.34      0.00
  -13   23   96     12.05      0.00
  -10   23   96      2.01      0.00
   -7   23   96      3.04      0.00
   -4   23   96     -6.18      0.00
  -18   24   96      1.48      0.00
  -15   24   96      3.15      0.00
  -12   24   96     10.58      0.00
   -9   24   96      5.34      0.00
   -6   24   96     16.45      0.00
  -17   25   96     -2.35      0.00
  -14   25   96      9.57      0.00
  -11   25   96     -2.02      0.00
   -8   25   96    -16.82      0.00
   -1   19   97    -10.08      0.00
   -3   20   97     -0.93      0.00
  -20   21   97      6.09      0.00
  -17   21   97     -7.85      0.00
  -14   21   97     -5.74      0.00
   -2   21   97     -2.53      0.00
  -19   22   97     -8.59      0.00
  -16   22   97     16.44      0.00
  -10   22   97     -4.32      0.00
   -4   22   97     15.30      0.00
   -1   22   97     -1.05      0.00
  -18   23   97      0.88      0.00
  -15   23   97     -1.12      0.00
  -12   23   97     -9.25      0.00
   -9   23   97      6.41      0.00
   -6   23   97      5.99      0.00
  -17   24   97    -17.77      0.00
  -14   24   97      5.49      0.00
  -11   24   97     10.04      0.00
   -8   24   97     -7.56      0.00
  -17   17   98     10.26      0.00
   -1   18   98      2.70      0.00
   -3   19   98     -6.04      0.00
    0   19   98      4.40      0.00
  -20   20   98     16.42      0.00
   -2   20   98     -3.69      0.00
  -19   21   98     -1.43      0.00
  -16   21   98      6.06      0.00
   -1   21   98      5.27      0.00
  -18   22   98     -0.54      0.00
  -15   22   98     -3.93      0.00
  -12   22   98      5.92      0.00
   -9   22   98      5.21      0.00
   -6   22   98      8.28      0.00
   -3   22   98     -5.52      0.00
  -17   23   98     -4.94      0.00
  -14   23   98     -0.92      0.00
  -11   23   98    -14.57      0.00
   -8   23   98      1.05      0.00
   -5   23   98     -3.74      0.00
  -13   24   98    -14.90      0.00
  -10   24   98     -2.57      0.00
  -16   17   99     12.08      0.00
   -2   19   99     -0.33      0.00
  -19   20   99     10.15      0.00
  -16   20   99     11.79      0.00
   -1   20   99     -5.71      0.00
  -18   21   99     -9.33      0.00
  -15   21   99     -8.85      0.00
   -9   21   99     -0.37      0.00
   -6   21   99     -0.66      0.00
   -3   21   99     -9.88      0.00
  -17   22   99      1.31      0.00
  -14   22   99      6.58      0.00
  -11   22   99      0.29      0.00
   -8   22   99     -3.60      0.00
   -5   22   99     -6.40      0.00
  -16   23   99     -2.16      0.00
  -13   23   99      8.08      0.00
  -10   23   99      9.50      0.00
   -7   23   99    -10.43      0.00
  -16   16  100    -13.75      0.00
    0   17  100    -11.75      0.00
  -19   19  100    -10.99      0.00
  -16   19  100     -5.47      0.00
  -13   19  100    -15.13      0.00
  -10   19  100     -2.49      0.00
   -1   19  100     -5.33      0.00
  -18   20  100     -8.60      0.00
  -15   20  100     -4.12      0.00
   -6   20  100      0.53      0.00
   -3   20  100      2.59      0.00
  -17   21  100     -8.17      0.00
  -14   21  100     -0.87      0.00
   -8   21  100      4.41      0.00
   -5   21  100      2.57      0.00
  -16   22  100     -5.00      0.00
  -13   22  100     -1.43      0.00
  -10   22  100      9.39      0.00
   -7   22  100      1.61      0.00
  -16   18  101     -7.77      0.00
  -13   18  101    -10.38      0.00
   -4   18  101      7.24      0.00
   -1   18  101     13.04      0.00
  -18   19  101     -1.86      0.00
  -15   19  101     -2.77      0.00
  -12   19  101      2.62      0.00
   -6   19  101     -3.98      0.00
   -3   19  101     -8.53      0.00
  -17   20  101      4.73      0.00
  -14   20  101      0.01      0.00
  -11   20  101     10.70      0.00
   -5   20  101     -4.04      0.00
   -2   20  101    -13.89      0.00
  -16   21  101     -9.58      0.00
  -13   21  101      0.63      0.00
  -10   21  101    -14.48      0.00
   -7   21  101     -5.29      0.00
  -12   22  101      3.39      0.00
   -9   22  101     17.19      0.00
   -4   17  102     -4.71      0.00
   -1   17  102      0.73      0.00
  -18   18  102     -1.01      0.00
  -15   18  102      0.92      0.00
  -12   18  102    -10.36      0.00
   -6   18  102     11.92      0.00
   -3   18  102    -11.31      0.00
    0   18  102     -6.39      0.00
  -17   19  102      1.47      0.00
  -14   19  102     17.66      0.00
  -11   19  102     -2.46      0.00
   -8   19  102     -9.86      0.00
   -5   19  102      6.37      0.00
   -2   19  102      2.85      0.00
  -16   20  102     -2.28      0.00
  -13   20  102      4.93      0.00
  -10   20  102     -5.75      0.00
   -7   20  102     -6.79      0.00
   -4   20  102     -3.61      0.00
  -12   21  102     -3.52      0.00
   -9   21  102     -0.36      0.00
  -12   17  103     -3.57      0.00
   -3   17  103     16.36      0.00
  -17   18  103      8.96      0.00
  -14   18  103      6.84      0.00
  -11   18  103     15.73      0.00
   -5   18  103      6.89      0.00
   -2   18  103      2.28      0.00
  -16   19  103      1.84      0.00
  -13   19  103     -6.56      0.00
  -10   19  103    -15.23      0.00
   -7   19  103     -6.93      0.00
   -4   19  103      5.36      0.00
  -12   20  103      0.61      0.00
   -9   20  103      0.13      0.00
   -6   20  103      6.29      0.00
  -14   14  104      7.04      0.00
   -4   15  104     -1.04      0.00
  -15   16  104     -5.75      0.00
  -12   16  104     11.16      0.00
   -6   16  104     14.77      0.00
   -3   16  104     -2.76      0.00
    0   16  104     28.47      0.00
  -17   17  104    -10.61      0.00
  -14   17  104      0.87      0.00
  -11   17  104     -4.45      0.00
   -5   17  104    -12.20      0.00
   -2   17  104     -2.47      0.00
  -13   18  104     12.73      0.00
  -10   18  104     -1.92      0.00
   -7   18  104    -20.25      0.00
   -4   18  104     -3.97      0.00
  -12   19  104    -11.30      0.00
   -9   19  104     -7.98      0.00
   -6   19  104      0.89      0.00
  -13   14  105     -3.70      0.00
   -7   14  105      6.95      0.00
   -6   15  105      8.86      0.00
  -14   16  105      7.14      0.00
  -11   16  105     -6.64      0.00
   -8   16  105      0.69      0.00
   -2   16  105      2.01      0.00
  -13   17  105      0.90      0.00
  -10   17  105      7.09      0.00
   -7   17  105      8.35      0.00
   -4   17  105      9.25      0.00
  -12   18  105     -6.37      0.00
   -9   18  105    -17.32      0.00
   -6   18  105     -7.74      0.00
  -11   12  106      5.96      0.00
  -13   13  106     16.03      0.00
  -12   14  106      0.21      0.00
   -3   14  106    -15.03      0.00
    0   14  106      3.54      0.00
  -14   15  106    -14.22      0.00
  -11   15  106     -3.27      0.00
   -5   15  106      4.85      0.00
   -2   15  106     -8.60      0.00
  -13   16  106     -5.80      0.00
  -10   16  106     -5.95      0.00
   -7   16  106     -6.68      0.00
   -4   16  106     -3.69      0.00
  -12   17  106     -1.90      0.00
   -9   17  106     10.90      0.00
   -6   17  106    -14.58      0.00
   -6    7  107     12.37      0.00
   -7   12  107      1.76      0.00
   -1   12  107      9.98      0.00
  -12   13  107     -4.61      0.00
  -11   14  107      2.65      0.00
   -8   14  107      2.71      0.00
   -2   14  107     12.35      0.00
  -13   15  107     13.62      0.00
  -10   15  107      5.67      0.00
   -7   15  107     14.61      0.00
   -4   15  107    -12.78      0.00
  -12   16  107     14.20      0.00
   -9   16  107      3.30      0.00
   -6   16  107      7.67      0.00
    0    0  108      9.54      0.00
   -1    2  108    -11.50      0.00
   -3    3  108      3.30      0.00
    0    3  108     14.89      0.00
   -2    4  108    -12.54      0.00
   -4    5  108     17.05      0.00
   -1    5  108      2.15      0.00
    0    6  108     15.43      0.00
   -2    7  108     -6.53      0.00
   -1    8  108    -15.26      0.00
    0    9  108     -3.97      0.00
   -2   10  108     -1.60      0.00
   -1   11  108      1.55      0.00
  -12   12  108    -13.86      0.00
   -9   12  108     -4.08      0.00
   -6   12  108    -13.45      0.00
   -3   12  108      5.85      0.00
    0   12  108      1.63      0.00
  -11   13  108     -9.40      0.00
   -8   13  108      1.31      0.00
   -5   13  108      5.02      0.00
   -2   13  108      3.94      0.00
  -10   14  108    -16.14      0.00
   -7   14  108     10.43      0.00
   -4   14  108     -3.39      0.00
   -9   15  108      0.79      0.00
   -6   15  108     -4.19      0.00
    0    0    0      0.00      0.00
# SQUEEZE RESULTS
# Note: Data are Listed for all Voids in the P1 Unit Cell
# i.e. Centre of Gravity, Solvent Accessible Volume,
# Recovered number of Electrons in the Void and
# Details about the Squeezed Material
loop_
  _platon_squeeze_void_nr
  _platon_squeeze_void_average_x
  _platon_squeeze_void_average_y
  _platon_squeeze_void_average_z
  _platon_squeeze_void_volume
  _platon_squeeze_void_count_electrons
  _platon_squeeze_void_content
   1 -0.014 -0.029 -0.001     29763      9551 ' '
   2  0.433  0.000  0.250        12         1 ' '
   3  0.567  0.000  0.750        12         2 ' '
   4  0.767  0.100  0.417        12         2 ' '
   5  0.333  0.100  0.917        12         2 ' '
   6  0.333  0.233  0.417        12         2 ' '
   7  0.900  0.233  0.917        12         2 ' '
   8  0.233  0.333  0.083        12         2 ' '
   9  0.100  0.333  0.583        12         1 ' '
  10  1.000  0.433  0.250        12         2 ' '
  11  0.433  0.433  0.750        12         2 ' '
  12  0.567  0.567  0.250        12         2 ' '
  13  1.000  0.567  0.750        12         2 ' '
  14  0.900  0.667  0.417        12         2 ' '
  15  0.767  0.667  0.917        12         1 ' '
  16  0.100  0.767  0.083        12         2 ' '
  17  0.667  0.767  0.583        12         2 ' '
  18  0.667  0.900  0.083        12         2 ' '
  19  0.233  0.900  0.583        12         2 ' '
_platon_squeeze_void_probe_radius                  1.20
_platon_squeeze_details
(replace by semicolon in column 1 when used as .sqf)
TITL shelxl    R -3 c :h    R = 0.18
CELL   32.3269   32.3269   78.4970     90.00     90.00    120.00
SPGR R-3c
# Solvent Accessible Volume =   29989.7
# Electrons Found in S.A.V. =    9518.6
# Note: Atoms in Void as Cxxx and Qxxx all others
C101 0.985 0.131 0.358 !       4.86 eA-3
Q102 0.694 0.071 0.953 !       4.23 eA-3
C103 0.931 0.017 0.874 !       4.14 eA-3
C104 0.718 0.048 0.962 !       3.86 eA-3
C105 0.592 0.320 0.957 !       3.78 eA-3
C106 0.969 0.829 0.992 !       3.57 eA-3
Q107 0.186 0.529 0.673 !       3.57 eA-3
C108 1.000 1.001 0.937 !       3.56 eA-3
C109 0.039 0.702 0.578 !       3.50 eA-3
C110 0.329 0.665 0.219 !       3.48 eA-3
C111 0.971 0.812 0.007 !       3.48 eA-3
C112 0.304 0.473 0.676 !       3.47 eA-3
Q113 0.374 0.302 0.953 !       3.43 eA-3
C114 0.164 0.805 0.421 !       3.42 eA-3
C115 0.740 0.332 0.716 !       3.42 eA-3
C116 0.665 0.329 0.027 !       3.36 eA-3
Q117 0.650 0.450 0.829 !       3.32 eA-3
C118 0.944 0.757 0.004 !       3.25 eA-3
C119 0.610 0.040 0.195 !       3.24 eA-3
C120 0.171 0.891 0.390 !       3.23 eA-3
C121 0.572 0.849 0.672 !       3.23 eA-3
C122 0.834 0.656 0.091 !       3.21 eA-3
Q123 0.343 0.377 0.270 !       3.19 eA-3
C124 0.814 0.758 0.504 !       3.17 eA-3
Q125 0.342 0.414 0.293 !       3.17 eA-3
C126 0.687 0.206 0.835 !       3.13 eA-3
C127 0.564 0.353 0.207 !       3.11 eA-3
C128 0.897 0.014 0.876 !       3.11 eA-3
C129 0.617 0.748 0.926 !       3.11 eA-3
C130 0.803 0.487 0.836 !       3.09 eA-3
C131 0.438 0.824 0.320 !       3.05 eA-3
C132 0.468 0.164 0.676 !       3.05 eA-3
Q133 0.329 0.785 0.675 !       3.02 eA-3
C134 0.800 0.104 0.742 !       3.00 eA-3
C135 0.621 0.827 0.279 !       2.98 eA-3
C136 0.521 0.486 0.426 !       2.98 eA-3
C137 0.610 0.365 0.199 !       2.97 eA-3
Q138 0.164 0.319 0.759 !       2.97 eA-3
C139 0.771 0.483 0.989 !       2.96 eA-3
Q140 0.750 0.010 0.871 !       2.95 eA-3
C141 0.648 0.439 0.708 !       2.95 eA-3
C142 0.514 0.147 0.843 !       2.94 eA-3
C143 0.943 0.034 0.864 !       2.93 eA-3
C144 0.982 0.820 0.645 !       2.93 eA-3
C145 0.295 0.245 0.864 !       2.92 eA-3
C146 0.147 0.842 0.902 !       2.91 eA-3
C147 0.117 0.009 0.357 !       2.90 eA-3
C148 0.675 0.194 0.976 !       2.89 eA-3
C149 0.957 0.502 0.942 !       2.89 eA-3
C150 0.642 0.421 0.687 !       2.88 eA-3
C151 0.070 0.828 0.499 !       2.88 eA-3
Q152 0.665 0.095 0.945 !       2.87 eA-3
Q153 0.341 0.918 0.798 !       2.87 eA-3
C154 0.135 0.570 0.820 !       2.87 eA-3
C155 0.952 0.490 0.947 !       2.87 eA-3
C156 0.101 0.185 0.657 !       2.85 eA-3
C157 0.086 0.686 0.672 !       2.85 eA-3
C158 0.749 0.686 0.368 !       2.84 eA-3
C159 0.753 0.235 0.983 !       2.83 eA-3
C160 0.853 0.828 0.988 !       2.83 eA-3
C161 0.592 0.865 0.667 !       2.82 eA-3
C162 0.967 0.481 0.934 !       2.81 eA-3
C163 0.008 0.499 0.927 !       2.81 eA-3
C164 0.641 0.837 0.422 !       2.80 eA-3
C165 0.513 0.685 0.813 !       2.79 eA-3
C166 0.980 0.892 0.851 !       2.75 eA-3
C167 0.829 0.306 0.675 !       2.74 eA-3
C168 0.791 0.713 0.246 !       2.72 eA-3
Q169 0.915 0.586 0.962 !       2.72 eA-3
C170 0.021 0.671 0.309 !       2.70 eA-3
C171 0.655 0.430 0.864 !       2.70 eA-3
C172 0.201 0.547 0.798 !       2.70 eA-3
C173 0.288 0.359 0.535 !       2.70 eA-3
C174 0.180 0.942 0.008 !       2.69 eA-3
C175 0.634 0.768 0.911 !       2.68 eA-3
C176 0.041 0.470 0.914 !       2.66 eA-3
C177 0.322 0.656 0.886 !       2.66 eA-3
C178 0.687 0.010 0.639 !       2.64 eA-3
C179 0.790 0.477 0.959 !       2.64 eA-3
C180 0.375 0.140 0.580 !       2.63 eA-3
C181 0.837 0.142 0.156 !       2.63 eA-3
C182 0.475 0.986 0.910 !       2.63 eA-3
C183 0.812 0.642 0.181 !       2.63 eA-3
C184 0.649 0.291 0.020 !       2.61 eA-3
C185 0.429 0.280 0.832 !       2.61 eA-3
C186 0.234 0.872 0.910 !       2.61 eA-3
C187 0.852 0.203 0.586 !       2.60 eA-3
C188 0.680 0.735 0.354 !       2.60 eA-3
C189 0.281 0.177 0.755 !       2.60 eA-3
C190 0.431 0.289 0.840 !       2.59 eA-3
C191 0.776 0.465 0.976 !       2.58 eA-3
C192 0.804 0.935 0.504 !       2.58 eA-3
C193 0.315 0.679 0.718 !       2.57 eA-3
C194 0.478 0.620 0.663 !       2.56 eA-3
C195 0.880 0.989 0.998 !       2.54 eA-3
C196 0.655 0.233 0.176 !       2.53 eA-3
C197 0.759 0.463 0.983 !       2.51 eA-3
Q198 0.322 0.702 0.143 !       2.51 eA-3
C199 0.118 0.330 0.324 !       2.51 eA-3
(replace by semicolon in column 1 when used as .sqf)
;
_shelx_fab_checksum              13999
loop_
_space_group_symop_operation_xyz
'x, y, z'
'-y, x-y, z'
'-x+y, -x, z'
'-y, -x, z+1/2'
'x, x-y, z+1/2'
'-x+y, y, z+1/2'
'x+2/3, y+1/3, z+1/3'
'-y+2/3, x-y+1/3, z+1/3'
'-x+y+2/3, -x+1/3, z+1/3'
'-y+2/3, -x+1/3, z+5/6'
'x+2/3, x-y+1/3, z+5/6'
'-x+y+2/3, y+1/3, z+5/6'
'x+1/3, y+2/3, z+2/3'
'-y+1/3, x-y+2/3, z+2/3'
'-x+y+1/3, -x+2/3, z+2/3'
'-y+1/3, -x+2/3, z+7/6'
'x+1/3, x-y+2/3, z+7/6'
'-x+y+1/3, y+2/3, z+7/6'
'-x, -y, -z'
'y, -x+y, -z'
'x-y, x, -z'
'y, x, -z-1/2'
'-x, -x+y, -z-1/2'
'x-y, -y, -z-1/2'
'-x+2/3, -y+1/3, -z+1/3'
'y+2/3, -x+y+1/3, -z+1/3'
'x-y+2/3, x+1/3, -z+1/3'
'y+2/3, x+1/3, -z-1/6'
'-x+2/3, -x+y+1/3, -z-1/6'
'x-y+2/3, -y+1/3, -z-1/6'
'-x+1/3, -y+2/3, -z+2/3'
'y+1/3, -x+y+2/3, -z+2/3'
'x-y+1/3, x+2/3, -z+2/3'
'y+1/3, x+2/3, -z+1/6'
'-x+1/3, -x+y+2/3, -z+1/6'
'x-y+1/3, -y+2/3, -z+1/6'
loop_
_atom_site_label
_atom_site_type_symbol
_atom_site_fract_x
_atom_site_fract_y
_atom_site_fract_z
_atom_site_U_iso_or_equiv
_atom_site_adp_type
_atom_site_occupancy
_atom_site_site_symmetry_order
_atom_site_calc_flag
_atom_site_refinement_flags_posn
_atom_site_refinement_flags_adp
_atom_site_refinement_flags_occupancy
_atom_site_disorder_assembly
_atom_site_disorder_group
N5 N 0.0214(5) 0.6560(6) 0.1294(2) 0.089(5) Uani 0.540(4) 1 d D U P A 1
C73 C -0.0064(4) 0.6126(4) 0.13714(18) 0.077(4) Uani 0.540(4) 1 d DG U P A 1
C74 C -0.0491(4) 0.5956(4) 0.1460(2) 0.089(5) Uani 0.540(4) 1 d G U P A 1
H74 H -0.062790 0.614743 0.147296 0.107 Uiso 0.540(4) 1 calc R U P A 1
C75 C -0.0712(4) 0.5499(4) 0.1530(2) 0.111(5) Uani 0.540(4) 1 d G U P A 1
H75 H -0.099791 0.538548 0.158916 0.133 Uiso 0.540(4) 1 calc R U P A 1
C76 C -0.0507(5) 0.5213(4) 0.1511(2) 0.111(6) Uani 0.540(4) 1 d G U P A 1
H76 H -0.065562 0.490753 0.155721 0.134 Uiso 0.540(4) 1 calc R U P A 1
C77 C -0.0081(5) 0.5383(5) 0.1422(2) 0.116(6) Uani 0.540(4) 1 d G U P A 1
H77 H 0.005667 0.519154 0.140906 0.139 Uiso 0.540(4) 1 calc R U P A 1
C78 C 0.0141(4) 0.5840(5) 0.13522(15) 0.105(5) Uani 0.540(4) 1 d G U P A 1
C79 C 0.0572(3) 0.6097(3) 0.12497(16) 0.104(5) Uani 0.540(4) 1 d G U P A 1
C80 C 0.0934(4) 0.6016(4) 0.11946(17) 0.123(6) Uani 0.540(4) 1 d G U P A 1
H80 H 0.091209 0.572182 0.121418 0.147 Uiso 0.540(4) 1 calc R U P A 1
C81 C 0.1329(4) 0.6374(5) 0.11101(17) 0.129(6) Uani 0.540(4) 1 d G U P A 1
H81 H 0.157088 0.632041 0.107321 0.155 Uiso 0.540(4) 1 calc R U P A 1
C82 C 0.1361(4) 0.6814(4) 0.10808(16) 0.120(5) Uani 0.540(4) 1 d G U P A 1
H82 H 0.162510 0.705385 0.102431 0.144 Uiso 0.540(4) 1 calc R U P A 1
C83 C 0.0999(4) 0.6895(3) 0.11360(17) 0.108(6) Uani 0.540(4) 1 d G U P A 1
H83 H 0.102055 0.718869 0.111637 0.129 Uiso 0.540(4) 1 calc R U P A 1
C84 C 0.0604(3) 0.6536(4) 0.12204(16) 0.089(5) Uani 0.540(4) 1 d DG U P A 1
C25 C -0.0199(9) 0.7586(6) 0.12345(19) 0.086(5) Uani 0.540(4) 1 d DG U P A 1
C26 C -0.0129(8) 0.7447(6) 0.13944(17) 0.087(5) Uani 0.540(4) 1 d DG U P A 1
C27 C -0.0003(8) 0.7095(7) 0.1409(2) 0.108(7) Uani 0.540(4) 1 d G U P A 1
H27 H 0.004406 0.700202 0.151584 0.130 Uiso 0.540(4) 1 calc R U P A 1
C28 C 0.0052(9) 0.6882(7) 0.1263(3) 0.123(8) Uani 0.540(4) 1 d G U P A 1
C29 C -0.0018(10) 0.7021(8) 0.1103(3) 0.138(8) Uani 0.540(4) 1 d G U P A 1
H29 H 0.001906 0.687905 0.100609 0.166 Uiso 0.540(4) 1 calc R U P A 1
C30 C -0.0144(9) 0.7373(7) 0.10890(18) 0.124(8) Uani 0.540(4) 1 d G U P A 1
H30 H -0.019093 0.746594 0.098198 0.149 Uiso 0.540(4) 1 calc R U P A 1
C31 C -0.0248(5) 0.8077(5) 0.14288(9) 0.079(4) Uani 0.540(4) 1 d DG U P A 1
C32 C -0.0148(5) 0.7766(4) 0.15178(12) 0.070(3) Uani 0.540(4) 1 d G U P A 1
C33 C -0.0104(4) 0.7796(4) 0.16941(12) 0.076(4) Uani 0.540(4) 1 d G U P A 1
H33 H -0.003725 0.758788 0.175359 0.091 Uiso 0.540(4) 1 calc R U P A 1
C34 C -0.0161(4) 0.8139(4) 0.17815(9) 0.071(3) Uani 0.540(4) 1 d G U P A 1
C35 C -0.0261(5) 0.8450(4) 0.16926(12) 0.084(4) Uani 0.540(4) 1 d G U P A 1
H35 H -0.029945 0.867908 0.175113 0.101 Uiso 0.540(4) 1 calc R U P A 1
C50 C -0.0305(6) 0.8419(5) 0.15163(12) 0.091(5) Uani 0.540(4) 1 d G U P A 1
H50 H -0.037167 0.862786 0.145680 0.109 Uiso 0.540(4) 1 calc R U P A 1
N1 N -0.0222(8) 0.8021(7) 0.12556(19) 0.075(5) Uani 0.540(4) 1 d D U P A 1
N6 N -0.0091(4) 0.8200(4) 0.19561(11) 0.086(3) Uani 0.540(4) 1 d D U P A 1
C85 C -0.0321(3) 0.7858(3) 0.20782(8) 0.079(3) Uani 0.540(4) 1 d DG U P A 1
C86 C -0.0702(3) 0.7395(3) 0.20610(8) 0.111(4) Uani 0.540(4) 1 d G U P A 1
H86 H -0.082733 0.727667 0.195366 0.133 Uiso 0.540(4) 1 calc R U P A 1
C87 C -0.0896(3) 0.7109(2) 0.22041(11) 0.147(7) Uani 0.540(4) 1 d G U P A 1
H87 H -0.115168 0.679897 0.219258 0.176 Uiso 0.540(4) 1 calc R U P A 1
C88 C -0.0709(3) 0.7285(3) 0.23645(9) 0.079(3) Uani 0.540(4) 1 d G U P A 1
H88 H -0.083939 0.709381 0.246030 0.095 Uiso 0.540(4) 1 calc R U P A 1
C89 C -0.0328(3) 0.7748(3) 0.23818(8) 0.094(3) Uani 0.540(4) 1 d G U P A 1
H89 H -0.020275 0.786636 0.248910 0.112 Uiso 0.540(4) 1 calc R U P A 1
C90 C -0.0134(2) 0.8034(2) 0.22386(10) 0.082(3) Uani 0.540(4) 1 d G U P A 1
C91 C 0.0258(3) 0.8507(3) 0.22155(11) 0.079(3) Uani 0.540(4) 1 d G U P A 1
C92 C 0.0595(4) 0.8861(4) 0.23209(8) 0.101(5) Uani 0.540(4) 1 d G U P A 1
H92 H 0.059132 0.880767 0.243742 0.121 Uiso 0.540(4) 1 calc R U P A 1
C93 C 0.0939(4) 0.9295(3) 0.22520(12) 0.149(8) Uani 0.540(4) 1 d G U P A 1
H93 H 0.116409 0.953131 0.232246 0.179 Uiso 0.540(4) 1 calc R U P A 1
C94 C 0.0945(4) 0.9375(3) 0.20778(12) 0.159(8) Uani 0.540(4) 1 d G U P A 1
H94 H 0.117427 0.966460 0.203172 0.191 Uiso 0.540(4) 1 calc R U P A 1
C95 C 0.0608(4) 0.9021(4) 0.19725(8) 0.126(6) Uani 0.540(4) 1 d G U P A 1
H95 H 0.061169 0.907424 0.185592 0.151 Uiso 0.540(4) 1 calc R U P A 1
C96 C 0.0264(3) 0.8587(3) 0.20413(10) 0.075(3) Uani 0.540(4) 1 d DG U P A 1
C36 C 0.0427(3) 0.6531(4) 0.11869(14) 0.064(4) Uani 0.460(4) 1 d G U P A 2
C37 C 0.0809(4) 0.6898(3) 0.10998(14) 0.064(3) Uani 0.460(4) 1 d G U P A 2
H37 H 0.083831 0.719871 0.109400 0.076 Uiso 0.460(4) 1 calc R U P A 2
C38 C 0.1146(3) 0.6814(3) 0.10215(13) 0.066(3) Uani 0.460(4) 1 d G U P A 2
H38 H 0.140117 0.705971 0.096327 0.079 Uiso 0.460(4) 1 calc R U P A 2
C39 C 0.1101(4) 0.6364(4) 0.10302(12) 0.078(4) Uani 0.460(4) 1 d G U P A 2
H39 H 0.132687 0.630855 0.097782 0.093 Uiso 0.460(4) 1 calc R U P A 2
C40 C 0.0719(4) 0.5997(3) 0.11173(14) 0.075(4) Uani 0.460(4) 1 d G U P A 2
H40 H 0.068971 0.569639 0.112312 0.090 Uiso 0.460(4) 1 calc R U P A 2
C41 C 0.0382(3) 0.6081(3) 0.11956(15) 0.081(4) Uani 0.460(4) 1 d G U P A 2
C42 C -0.0045(5) 0.5787(7) 0.13039(19) 0.092(5) Uani 0.460(4) 1 d G U P A 2
C43 C -0.0269(7) 0.5316(6) 0.1360(3) 0.134(8) Uani 0.460(4) 1 d G U P A 2
H43 H -0.014017 0.512308 0.133297 0.161 Uiso 0.460(4) 1 calc R U P A 2
C44 C -0.0685(7) 0.5133(6) 0.1456(3) 0.167(11) Uani 0.460(4) 1 d G U P A 2
H44 H -0.083486 0.481781 0.149322 0.200 Uiso 0.460(4) 1 calc R U P A 2
C45 C -0.0878(5) 0.5421(9) 0.1496(3) 0.175(12) Uani 0.460(4) 1 d G U P A 2
H45 H -0.115603 0.529863 0.156016 0.210 Uiso 0.460(4) 1 calc R U P A 2
C46 C -0.0654(6) 0.5892(8) 0.1440(3) 0.123(8) Uani 0.460(4) 1 d G U P A 2
H46 H -0.078251 0.608473 0.146686 0.147 Uiso 0.460(4) 1 calc R U P A 2
C47 C -0.0238(5) 0.6075(6) 0.1344(2) 0.084(5) Uani 0.460(4) 1 d G U P A 2
N2 N 0.0045(6) 0.6532(8) 0.1277(3) 0.076(4) Uani 0.460(4) 1 d . U P A 2
N3 N -0.0335(4) 0.8330(4) 0.19272(13) 0.069(3) Uani 0.460(4) 1 d . U P A 2
C48 C -0.0708(3) 0.8308(3) 0.20122(10) 0.077(3) Uani 0.460(4) 1 d G U P A 2
C49 C -0.1180(3) 0.8112(4) 0.19601(10) 0.101(5) Uani 0.460(4) 1 d G U P A 2
H49 H -0.127135 0.797528 0.185247 0.122 Uiso 0.460(4) 1 calc R U P A 2
C51 C -0.1515(3) 0.8120(4) 0.20687(13) 0.118(5) Uani 0.460(4) 1 d G U P A 2
H51 H -0.183144 0.798841 0.203379 0.141 Uiso 0.460(4) 1 calc R U P A 2
C52 C -0.1379(3) 0.8323(4) 0.22295(12) 0.133(6) Uani 0.460(4) 1 d G U P A 2
H52 H -0.160331 0.832863 0.230221 0.159 Uiso 0.460(4) 1 calc R U P A 2
C53 C -0.0907(4) 0.8519(4) 0.22817(10) 0.101(4) Uani 0.460(4) 1 d G U P A 2
H53 H -0.081510 0.865570 0.238930 0.121 Uiso 0.460(4) 1 calc R U P A 2
C54 C -0.0571(3) 0.8511(3) 0.21731(11) 0.090(4) Uani 0.460(4) 1 d DG U P A 2
C55 C 0.0051(3) 0.8559(3) 0.20351(11) 0.076(4) Uani 0.460(4) 1 d G U P A 2
C56 C -0.0074(3) 0.8677(3) 0.21895(13) 0.073(3) Uani 0.460(4) 1 d DG U P A 2
C57 C 0.0271(4) 0.8913(4) 0.23140(10) 0.115(5) Uani 0.460(4) 1 d G U P A 2
H57 H 0.018760 0.899224 0.241729 0.138 Uiso 0.460(4) 1 calc R U P A 2
C58 C 0.0742(4) 0.9032(4) 0.22840(13) 0.113(6) Uani 0.460(4) 1 d G U P A 2
H58 H 0.097284 0.919003 0.236723 0.136 Uiso 0.460(4) 1 calc R U P A 2
C59 C 0.0867(3) 0.8914(4) 0.21295(14) 0.100(4) Uani 0.460(4) 1 d G U P A 2
H59 H 0.118138 0.899324 0.210947 0.120 Uiso 0.460(4) 1 calc R U P A 2
C60 C 0.0521(4) 0.8678(3) 0.20051(11) 0.068(3) Uani 0.460(4) 1 d G U P A 2
H60 H 0.060469 0.859868 0.190177 0.082 Uiso 0.460(4) 1 calc R U P A 2
N4 N -0.0347(8) 0.7981(6) 0.12415(17) 0.055(4) Uani 0.460(4) 1 d D U P A 2
C61 C -0.0298(5) 0.8144(5) 0.14050(10) 0.063(4) Uani 0.460(4) 1 d DG U P A 2
C62 C -0.0382(5) 0.8496(4) 0.14691(12) 0.063(3) Uani 0.460(4) 1 d G U P A 2
H62 H -0.043435 0.869002 0.139501 0.076 Uiso 0.460(4) 1 calc R U P A 2
C63 C -0.0387(4) 0.8559(4) 0.16441(13) 0.070(4) Uani 0.460(4) 1 d G U P A 2
H63 H -0.044320 0.879529 0.168704 0.083 Uiso 0.460(4) 1 calc R U P A 2
C64 C -0.0309(4) 0.8270(4) 0.17549(10) 0.073(4) Uani 0.460(4) 1 d G U P A 2
C65 C -0.0226(5) 0.7918(4) 0.16908(13) 0.062(3) Uani 0.460(4) 1 d G U P A 2
H65 H -0.017323 0.772396 0.176489 0.074 Uiso 0.460(4) 1 calc R U P A 2
C66 C -0.0220(4) 0.7855(4) 0.15158(14) 0.067(4) Uani 0.460(4) 1 d DG U P A 2
C67 C -0.0126(6) 0.7533(5) 0.14012(16) 0.052(3) Uani 0.460(4) 1 d DG U P A 2
C68 C -0.0028(5) 0.7163(5) 0.14191(19) 0.055(4) Uani 0.460(4) 1 d G U P A 2
H68 H 0.001325 0.706992 0.152703 0.066 Uiso 0.460(4) 1 calc R U P A 2
C69 C 0.0009(6) 0.6931(5) 0.1276(2) 0.062(4) Uani 0.460(4) 1 d G U P A 2
C70 C -0.0052(6) 0.7070(5) 0.1114(2) 0.060(4) Uani 0.460(4) 1 d G U P A 2
H70 H -0.002692 0.691495 0.101839 0.072 Uiso 0.460(4) 1 calc R U P A 2
C71 C -0.0150(6) 0.7440(6) 0.10965(16) 0.066(5) Uani 0.460(4) 1 d G U P A 2
H71 H -0.019070 0.753294 0.098858 0.080 Uiso 0.460(4) 1 calc R U P A 2
C72 C -0.0187(6) 0.7672(5) 0.12399(18) 0.055(4) Uani 0.460(4) 1 d DG U P A 2
Cu1 Cu 0.17175(2) 0.96872(2) 0.08328(2) 0.0522(2) Uani 1 1 d . . . . .
Cu2 Cu 0.12896(2) 0.97581(2) 0.05564(2) 0.0533(2) Uani 1 1 d . . . . .
O1 O 0.22965(11) 1.01411(12) 0.07067(4) 0.0560(9) Uani 1 1 d . . . . .
O2 O 0.19313(12) 1.01587(14) 0.04669(4) 0.0652(10) Uani 1 1 d . . . . .
O3 O 0.10594(13) 0.92537(13) 0.09090(5) 0.0693(10) Uani 1 1 d . . . . .
O4 O 0.07009(11) 0.93568(13) 0.06799(5) 0.0619(10) Uani 1 1 d . . . . .
O5 O 0.16668(13) 1.02281(13) 0.09181(5) 0.0666(10) Uani 1 1 d . . . . .
O6 O 0.13421(12) 1.03126(12) 0.06799(5) 0.0613(9) Uani 1 1 d . . . . .
O7 O 0.17152(12) 0.91591(13) 0.07159(5) 0.0634(9) Uani 1 1 d . . . . .
O8 O 0.13198(12) 0.91871(13) 0.04863(4) 0.0614(9) Uani 1 1 d . . . . .
O9 O 0.20663(17) 0.96560(16) 0.10592(5) 0.0899(13) Uani 1 1 d . . . . .
O10 O 0.0913(2) 0.9817(2) 0.03468(9) 0.174(3) Uani 1 1 d . . . . .
C1 C 0.22958(18) 1.02680(18) 0.05586(7) 0.0539(12) Uani 1 1 d . . . . .
C2 C 0.27728(16) 1.05717(17) 0.04750(6) 0.0489(11) Uani 1 1 d . . . . .
C3 C 0.31842(19) 1.0727(2) 0.05688(7) 0.0640(14) Uani 1 1 d . . . . .
H3 H 0.316420 1.064339 0.068308 0.077 Uiso 1 1 calc R U . . .
C4 C 0.3625(2) 1.1005(2) 0.04948(8) 0.0819(19) Uani 1 1 d . . . . .
H4 H 0.390117 1.112338 0.056009 0.098 Uiso 1 1 calc R U . . .
C5 C 0.36538(19) 1.1107(2) 0.03224(7) 0.0762(17) Uani 1 1 d . . . . .
H5 H 0.395173 1.128021 0.027085 0.091 Uiso 1 1 calc R U . . .
C6 C 0.32418(18) 1.09547(19) 0.02254(7) 0.0574(13) Uani 1 1 d . . . . .
C7 C 0.28037(16) 1.06884(17) 0.03048(6) 0.0495(11) Uani 1 1 d . . . . .
H7 H 0.252503 1.058625 0.024214 0.059 Uiso 1 1 calc R U . . .
C8 C 0.32733(19) 1.1065(2) 0.00457(8) 0.0658(14) Uani 1 1 d . . . . .
C9 C 0.33032(19) 1.1183(2) -0.00984(8) 0.0676(15) Uani 1 1 d . . . . .
C10 C 0.13546(19) 0.8037(2) 0.02679(7) 0.0669(15) Uani 1 1 d . . . . .
C11 C 0.1567(2) 0.7813(2) 0.03571(9) 0.0854(19) Uani 1 1 d . . . . .
H11 H 0.158950 0.756173 0.030967 0.102 Uiso 1 1 calc R U . . .
C12 C 0.1743(3) 0.7987(3) 0.05214(9) 0.095(2) Uani 1 1 d . . . . .
H12 H 0.186856 0.783400 0.058602 0.114 Uiso 1 1 calc R U . . .
C13 C 0.1736(2) 0.8368(2) 0.05877(8) 0.0789(18) Uani 1 1 d . . . . .
H13 H 0.187184 0.848343 0.069405 0.095 Uiso 1 1 calc R U . . .
C14 C 0.15297(18) 0.8588(2) 0.04994(7) 0.0604(13) Uani 1 1 d . . . . .
C15 C 0.13354(18) 0.84206(19) 0.03407(7) 0.0598(13) Uani 1 1 d . . . . .
H15 H 0.119081 0.856434 0.028185 0.072 Uiso 1 1 calc R U . . .
C16 C 0.15194(18) 0.90071(19) 0.05711(7) 0.0569(13) Uani 1 1 d . . . . .
C17 C 0.06988(19) 0.91834(18) 0.08207(8) 0.0617(14) Uani 1 1 d . . . . .
C18 C 0.02227(18) 0.88662(17) 0.09033(7) 0.0566(13) Uani 1 1 d . . . . .
C19 C 0.0175(2) 0.85826(18) 0.10428(7) 0.0636(15) Uani 1 1 d . . . . .
H19 H 0.044423 0.859516 0.109022 0.076 Uiso 1 1 calc R U . . .
C20 C -0.0261(2) 0.82872(19) 0.11107(7) 0.0628(14) Uani 1 1 d D . . . .
C21 C -0.06635(19) 0.82667(18) 0.10454(7) 0.0617(14) Uani 1 1 d . . . . .
H21 H -0.095971 0.806957 0.109508 0.074 Uiso 1 1 calc R U . . .
C22 C -0.06262(17) 0.85406(17) 0.09053(7) 0.0540(13) Uani 1 1 d . . . . .
C23 C -0.01967(17) 0.88281(17) 0.08351(7) 0.0546(13) Uani 1 1 d . . . . .
H23 H -0.017664 0.900600 0.073909 0.065 Uiso 1 1 calc R U . . .
C24 C 0.14885(17) 1.04243(19) 0.08268(8) 0.0578(13) Uani 1 1 d . . . . .
loop_
_atom_site_aniso_label
_atom_site_aniso_U_11
_atom_site_aniso_U_22
_atom_site_aniso_U_33
_atom_site_aniso_U_23
_atom_site_aniso_U_13
_atom_site_aniso_U_12
N5 0.073(10) 0.069(7) 0.133(12) 0.040(7) 0.041(8) 0.041(7)
C73 0.063(9) 0.050(6) 0.106(10) 0.028(6) 0.002(7) 0.019(6)
C74 0.076(10) 0.037(6) 0.128(12) 0.025(7) 0.018(8) 0.008(6)
C75 0.111(11) 0.038(7) 0.155(14) 0.033(8) 0.053(10) 0.017(7)
C76 0.111(13) 0.056(8) 0.147(14) 0.024(8) 0.022(10) 0.026(8)
C77 0.135(14) 0.064(8) 0.153(16) 0.025(8) 0.037(11) 0.053(10)
C78 0.088(10) 0.058(7) 0.171(14) 0.035(8) 0.017(9) 0.037(8)
C79 0.091(9) 0.076(7) 0.156(14) 0.030(8) 0.018(8) 0.051(7)
C80 0.126(12) 0.097(9) 0.174(16) 0.011(10) 0.024(10) 0.078(9)
C81 0.108(11) 0.129(11) 0.153(15) -0.012(11) 0.018(9) 0.061(10)
C82 0.095(11) 0.123(10) 0.136(15) 0.001(10) 0.027(9) 0.049(9)
C83 0.089(11) 0.090(9) 0.126(14) 0.015(8) 0.038(10) 0.031(7)
C84 0.061(8) 0.064(7) 0.147(13) 0.015(7) 0.022(7) 0.035(6)
C25 0.134(15) 0.068(9) 0.057(7) 0.008(7) -0.005(9) 0.051(9)
C26 0.125(14) 0.084(10) 0.049(6) 0.020(7) 0.011(9) 0.049(10)
C27 0.172(18) 0.079(11) 0.075(11) 0.030(9) 0.015(12) 0.064(11)
C28 0.20(2) 0.092(14) 0.095(12) 0.020(11) 0.025(14) 0.082(13)
C29 0.26(2) 0.081(12) 0.084(11) 0.012(10) 0.016(15) 0.093(13)
C30 0.22(2) 0.104(14) 0.065(8) -0.021(9) -0.027(12) 0.096(13)
C31 0.091(11) 0.077(9) 0.051(6) 0.005(6) 0.005(7) 0.028(8)
C32 0.071(8) 0.076(8) 0.054(5) 0.023(5) 0.019(6) 0.030(7)
C33 0.094(10) 0.077(8) 0.059(5) -0.005(6) 0.009(6) 0.045(7)
C34 0.094(9) 0.087(9) 0.056(6) -0.005(5) 0.001(6) 0.064(7)
C35 0.094(10) 0.120(11) 0.073(7) -0.012(8) -0.007(8) 0.079(9)
C50 0.114(12) 0.118(11) 0.067(7) 0.007(7) -0.001(8) 0.078(9)
N1 0.084(14) 0.095(10) 0.059(6) 0.004(6) 0.000(6) 0.054(10)
N6 0.122(8) 0.092(6) 0.054(5) 0.008(4) 0.015(5) 0.060(5)
C85 0.069(7) 0.098(7) 0.071(6) 0.013(5) 0.011(5) 0.042(5)
C86 0.091(9) 0.119(9) 0.087(7) 0.014(6) -0.007(7) 0.026(6)
C87 0.165(13) 0.103(10) 0.106(9) 0.050(7) -0.028(9) 0.017(9)
C88 0.079(7) 0.076(7) 0.079(6) 0.017(6) 0.020(6) 0.036(5)
C89 0.100(8) 0.124(8) 0.073(6) 0.016(6) 0.024(6) 0.068(6)
C90 0.099(8) 0.090(6) 0.068(5) 0.008(5) 0.019(5) 0.056(5)
C91 0.088(7) 0.100(7) 0.069(6) -0.008(5) -0.001(5) 0.061(5)
C92 0.099(11) 0.124(10) 0.064(7) 0.010(6) 0.002(7) 0.045(7)
C93 0.159(15) 0.120(12) 0.083(8) -0.007(9) 0.015(10) 0.007(9)
C94 0.197(16) 0.107(11) 0.079(8) -0.002(7) 0.009(10) 0.004(9)
C95 0.139(12) 0.109(9) 0.077(8) -0.012(6) 0.022(7) 0.023(8)
C96 0.097(9) 0.084(7) 0.059(6) -0.005(5) 0.022(6) 0.057(5)
C36 0.052(8) 0.061(7) 0.092(10) 0.012(6) -0.003(6) 0.039(6)
C37 0.054(8) 0.078(8) 0.064(8) 0.014(6) 0.004(6) 0.036(6)
C38 0.072(8) 0.086(7) 0.045(7) -0.003(6) -0.001(6) 0.044(7)
C39 0.096(10) 0.104(9) 0.059(8) -0.005(7) -0.007(6) 0.069(8)
C40 0.106(10) 0.078(8) 0.078(9) -0.002(6) -0.011(7) 0.074(7)
C41 0.087(9) 0.088(8) 0.098(10) 0.022(7) 0.002(7) 0.067(7)
C42 0.075(10) 0.069(8) 0.126(12) 0.027(8) -0.010(7) 0.031(8)
C43 0.127(16) 0.070(9) 0.17(2) 0.024(11) -0.014(13) 0.022(10)
C44 0.119(19) 0.105(14) 0.22(2) 0.046(15) 0.003(14) 0.010(11)
C45 0.164(19) 0.093(15) 0.19(2) 0.030(15) 0.055(17) 0.005(13)
C46 0.074(12) 0.111(13) 0.145(18) 0.036(13) 0.027(11) 0.017(10)
C47 0.043(9) 0.079(9) 0.115(13) 0.026(8) 0.004(8) 0.019(7)
N2 0.064(9) 0.081(8) 0.090(10) 0.022(7) 0.018(7) 0.041(7)
N3 0.090(6) 0.110(8) 0.055(5) 0.003(5) -0.003(4) 0.085(6)
C48 0.096(6) 0.102(9) 0.055(6) 0.008(6) 0.009(5) 0.065(7)
C49 0.083(7) 0.162(13) 0.085(9) -0.003(9) 0.012(6) 0.081(9)
C51 0.106(9) 0.180(16) 0.096(10) 0.005(10) 0.018(7) 0.093(11)
C52 0.132(10) 0.214(18) 0.084(9) 0.005(11) 0.017(9) 0.110(13)
C53 0.134(9) 0.144(13) 0.065(8) 0.001(8) 0.020(7) 0.101(11)
C54 0.102(7) 0.103(10) 0.078(7) -0.010(7) 0.008(6) 0.060(8)
C55 0.089(7) 0.076(9) 0.076(8) 0.004(7) 0.006(6) 0.051(8)
C56 0.104(7) 0.066(7) 0.063(6) 0.003(5) -0.004(5) 0.054(7)
C57 0.104(9) 0.123(13) 0.074(9) 0.006(8) 0.001(7) 0.025(10)
C58 0.103(9) 0.104(14) 0.094(10) -0.006(10) -0.008(10) 0.023(13)
C59 0.098(9) 0.097(11) 0.095(10) 0.001(8) -0.012(7) 0.041(9)
C60 0.083(7) 0.059(8) 0.070(8) 0.010(6) 0.004(6) 0.041(7)
N4 0.039(8) 0.039(6) 0.067(7) -0.011(5) 0.004(6) 0.004(5)
C61 0.057(9) 0.065(9) 0.066(7) -0.004(6) 0.010(8) 0.030(8)
C62 0.059(8) 0.074(8) 0.064(7) -0.001(6) 0.014(7) 0.038(7)
C63 0.083(10) 0.071(8) 0.073(8) 0.000(6) 0.006(7) 0.052(7)
C64 0.086(10) 0.092(11) 0.078(8) -0.010(7) -0.009(8) 0.072(9)
C65 0.060(8) 0.061(8) 0.071(7) -0.006(6) 0.010(7) 0.035(7)
C66 0.075(10) 0.057(8) 0.056(6) 0.003(6) 0.019(8) 0.023(7)
C67 0.048(8) 0.032(6) 0.052(7) 0.002(5) 0.012(7) 0.002(5)
C68 0.043(8) 0.056(8) 0.044(7) 0.013(6) 0.018(7) 0.008(6)
C69 0.084(10) 0.032(8) 0.071(9) 0.017(7) 0.025(9) 0.030(7)
C70 0.084(10) 0.049(9) 0.048(7) 0.009(7) 0.029(8) 0.034(8)
C71 0.103(12) 0.036(7) 0.056(8) 0.017(6) 0.024(9) 0.031(7)
C72 0.060(9) 0.032(7) 0.053(7) 0.000(5) 0.014(7) 0.006(6)
Cu1 0.0442(4) 0.0657(4) 0.0566(4) 0.0135(3) -0.0015(3) 0.0349(3)
Cu2 0.0403(3) 0.0636(4) 0.0620(4) 0.0173(3) -0.0014(3) 0.0305(3)
O1 0.0483(19) 0.073(2) 0.048(2) 0.0120(17) 0.0011(15) 0.0308(18)
O2 0.050(2) 0.091(3) 0.055(2) 0.0201(19) 0.0039(17) 0.0354(19)
O3 0.052(2) 0.078(3) 0.088(3) 0.024(2) 0.0022(19) 0.041(2)
O4 0.0395(18) 0.064(2) 0.088(3) 0.027(2) 0.0096(18) 0.0303(17)
O5 0.065(2) 0.071(2) 0.083(3) 0.017(2) 0.0045(19) 0.048(2)
O6 0.055(2) 0.061(2) 0.081(3) 0.014(2) 0.0008(19) 0.0382(18)
O7 0.063(2) 0.073(2) 0.064(2) -0.0007(19) -0.0147(19) 0.041(2)
O8 0.055(2) 0.077(2) 0.062(2) -0.0019(18) -0.0140(17) 0.041(2)
O9 0.112(3) 0.100(3) 0.084(3) 0.016(2) -0.018(3) 0.073(3)
O10 0.123(5) 0.161(6) 0.183(6) 0.078(5) -0.085(4) 0.030(4)
C1 0.054(3) 0.059(3) 0.056(3) 0.004(2) -0.006(3) 0.034(3)
C2 0.045(3) 0.056(3) 0.053(3) -0.001(2) 0.000(2) 0.030(2)
C3 0.054(3) 0.080(4) 0.053(3) -0.002(3) -0.001(3) 0.030(3)
C4 0.046(3) 0.116(5) 0.069(4) -0.001(4) -0.012(3) 0.029(3)
C5 0.042(3) 0.106(5) 0.065(4) 0.002(3) 0.007(3) 0.025(3)
C6 0.049(3) 0.070(3) 0.055(3) 0.003(3) 0.001(2) 0.032(3)
C7 0.040(3) 0.060(3) 0.057(3) 0.001(2) 0.003(2) 0.032(2)
C8 0.051(3) 0.071(4) 0.072(4) 0.004(3) 0.006(3) 0.028(3)
C9 0.052(3) 0.075(4) 0.067(4) 0.006(3) 0.006(3) 0.025(3)
C10 0.060(3) 0.084(4) 0.060(3) 0.005(3) -0.007(3) 0.038(3)
C11 0.100(5) 0.084(4) 0.095(5) -0.008(4) -0.023(4) 0.063(4)
C12 0.131(6) 0.108(5) 0.085(5) -0.009(4) -0.040(4) 0.090(5)
C13 0.100(5) 0.100(5) 0.065(4) -0.010(3) -0.029(3) 0.071(4)
C14 0.056(3) 0.073(4) 0.063(3) 0.004(3) -0.002(3) 0.041(3)
C15 0.062(3) 0.074(4) 0.057(3) -0.001(3) -0.006(3) 0.044(3)
C16 0.047(3) 0.067(3) 0.062(3) 0.004(3) -0.003(3) 0.032(3)
C17 0.051(3) 0.046(3) 0.095(5) 0.000(3) 0.010(3) 0.030(3)
C18 0.052(3) 0.042(3) 0.076(4) -0.001(3) 0.009(3) 0.024(2)
C19 0.071(4) 0.051(3) 0.079(4) 0.003(3) 0.009(3) 0.038(3)
C20 0.067(4) 0.054(3) 0.062(3) 0.007(3) 0.018(3) 0.027(3)
C21 0.049(3) 0.051(3) 0.072(4) -0.001(3) 0.012(3) 0.015(3)
C22 0.044(3) 0.041(3) 0.070(4) -0.003(2) 0.013(2) 0.015(2)
C23 0.047(3) 0.044(3) 0.077(4) -0.002(2) 0.003(3) 0.026(2)
C24 0.043(3) 0.057(3) 0.075(4) 0.015(3) 0.005(3) 0.025(3)
loop_
_atom_type_symbol
_atom_type_description
_atom_type_scat_dispersion_real
_atom_type_scat_dispersion_imag
_atom_type_scat_source
C C 0.0033 0.0016
;
International Tables for Crystallography
(Vol. C, Tables 4.2.6.8 and 6.1.1.4)
;
H H 0.0000 0.0000
;
International Tables for Crystallography
(Vol. C, Table 6.1.1.4)
;
Cu Cu 0.3201 1.2651
;
International Tables for Crystallography
(Vol. C, Tables 4.2.6.8 and 6.1.1.4)
;
N N 0.0061 0.0033
;
International Tables for Crystallography
(Vol. C, Tables 4.2.6.8 and 6.1.1.4)
;
O O 0.0106 0.0060
;
International Tables for Crystallography
(Vol. C, Tables 4.2.6.8 and 6.1.1.4)
;
loop_
_geom_angle_atom_site_label_1
_geom_angle_atom_site_label_2
_geom_angle_atom_site_label_3
_geom_angle
_geom_angle_site_symmetry_3
C73 N5 C28 122.7(14) .
C73 N5 C84 105.5(11) .
C28 N5 C84 129.9(15) .
N5 C73 C74 129.7(9) .
N5 C73 C78 110.3(9) .
C74 C73 C78 120.0 .
C73 C74 C75 120.0 .
C73 C74 H74 120.0 .
C75 C74 H74 120.0 .
C76 C75 C74 120.0 .
C76 C75 H75 120.0 .
C74 C75 H75 120.0 .
C77 C76 C75 120.0 .
C77 C76 H76 120.0 .
C75 C76 H76 120.0 .
C78 C77 C76 120.0 .
C78 C77 H77 120.0 .
C76 C77 H77 120.0 .
C77 C78 C73 120.0 .
C77 C78 C79 131.4(9) .
C73 C78 C79 108.5(9) .
C80 C79 C84 120.0 .
C80 C79 C78 136.0(8) .
C84 C79 C78 103.7(8) .
C79 C80 C81 120.0 .
C79 C80 H80 120.0 .
C81 C80 H80 120.0 .
C82 C81 C80 120.0 .
C82 C81 H81 120.0 .
C80 C81 H81 120.0 .
C81 C82 C83 120.0 .
C81 C82 H82 120.0 .
C83 C82 H82 120.0 .
C84 C83 C82 120.0 .
C84 C83 H83 120.0 .
C82 C83 H83 120.0 .
C83 C84 C79 120.0 .
C83 C84 N5 128.0(9) .
C79 C84 N5 111.9(9) .
C26 C25 C30 120.0 .
C26 C25 N1 107.8(10) .
C30 C25 N1 130.8(10) .
C27 C26 C25 120.0 .
C27 C26 C32 131.7(9) .
C25 C26 C32 107.7(9) .
C28 C27 C26 120.0 .
C28 C27 H27 120.0 .
C26 C27 H27 120.0 .
C27 C28 C29 120.0 .
C27 C28 N5 114.5(17) .
C29 C28 N5 125.3(16) .
C28 C29 C30 120.0 .
C28 C29 H29 120.0 .
C30 C29 H29 120.0 .
C29 C30 C25 120.0 .
C29 C30 H30 120.0 .
C25 C30 H30 120.0 .
N1 C31 C32 110.4(9) .
N1 C31 C50 129.2(9) .
C32 C31 C50 120.0 .
C33 C32 C31 120.0 .
C33 C32 C26 133.1(8) .
C31 C32 C26 106.8(8) .
C32 C33 C34 120.0 .
C32 C33 H33 120.0 .
C34 C33 H33 120.0 .
N6 C34 C33 121.6(8) .
N6 C34 C35 118.2(8) .
C33 C34 C35 120.0 .
C50 C35 C34 120.0 .
C50 C35 H35 120.0 .
C34 C35 H35 120.0 .
C35 C50 C31 120.0 .
C35 C50 H50 120.0 .
C31 C50 H50 120.0 .
C31 N1 C25 106.0(10) .
C31 N1 C20 131.0(14) .
C25 N1 C20 122.7(14) .
C85 N6 C96 105.3(8) .
C85 N6 C34 126.3(10) .
C96 N6 C34 127.8(9) .
N6 C85 C86 129.3(7) .
N6 C85 C90 110.7(7) .
C86 C85 C90 120.0 .
C85 C86 C87 120.0 .
C85 C86 H86 120.0 .
C87 C86 H86 120.0 .
C88 C87 C86 120.0 .
C88 C87 H87 120.0 .
C86 C87 H87 120.0 .
C87 C88 C89 120.0 .
C87 C88 H88 120.0 .
C89 C88 H88 120.0 .
C90 C89 C88 120.0 .
C90 C89 H89 120.0 .
C88 C89 H89 120.0 .
C89 C90 C85 120.0 .
C89 C90 C91 132.8(6) .
C85 C90 C91 107.2(6) .
C92 C91 C96 120.0 .
C92 C91 C90 135.7(7) .
C96 C91 C90 104.3(7) .
C93 C92 C91 120.0 .
C93 C92 H92 120.0 .
C91 C92 H92 120.0 .
C92 C93 C94 120.0 .
C92 C93 H93 120.0 .
C94 C93 H93 120.0 .
C95 C94 C93 120.0 .
C95 C94 H94 120.0 .
C93 C94 H94 120.0 .
C94 C95 C96 120.0 .
C94 C95 H95 120.0 .
C96 C95 H95 120.0 .
N6 C96 C95 127.6(7) .
N6 C96 C91 112.4(7) .
C95 C96 C91 120.0 .
C37 C36 C41 120.0 .
C37 C36 N2 130.0(10) .
C41 C36 N2 110.0(10) .
C36 C37 C38 120.0 .
C36 C37 H37 120.0 .
C38 C37 H37 120.0 .
C39 C38 C37 120.0 .
C39 C38 H38 120.0 .
C37 C38 H38 120.0 .
C38 C39 C40 120.0 .
C38 C39 H39 120.0 .
C40 C39 H39 120.0 .
C41 C40 C39 120.0 .
C41 C40 H40 120.0 .
C39 C40 H40 120.0 .
C40 C41 C36 120.0 .
C40 C41 C42 134.1(9) .
C36 C41 C42 105.9(9) .
C43 C42 C47 120.0 .
C43 C42 C41 133.4(12) .
C47 C42 C41 106.5(12) .
C42 C43 C44 120.0 .
C42 C43 H43 120.0 .
C44 C43 H43 120.0 .
C45 C44 C43 120.0 .
C45 C44 H44 120.0 .
C43 C44 H44 120.0 .
C44 C45 C46 120.0 .
C44 C45 H45 120.0 .
C46 C45 H45 120.0 .
C47 C46 C45 120.0 .
C47 C46 H46 120.0 .
C45 C46 H46 120.0 .
C46 C47 C42 120.0 .
C46 C47 N2 129.5(12) .
C42 C47 N2 110.5(12) .
C69 N2 C47 133.8(15) .
C69 N2 C36 119.0(16) .
C47 N2 C36 107.0(15) .
C48 N3 C64 126.5(10) .
C48 N3 C55 105.6(9) .
C64 N3 C55 125.4(10) .
N3 C48 C49 128.9(8) .
N3 C48 C54 111.1(8) .
C49 C48 C54 120.0 .
C51 C49 C48 120.0 .
C51 C49 H49 120.0 .
C48 C49 H49 120.0 .
C49 C51 C52 120.0 .
C49 C51 H51 120.0 .
C52 C51 H51 120.0 .
C51 C52 C53 120.0 .
C51 C52 H52 120.0 .
C53 C52 H52 120.0 .
C54 C53 C52 120.0 .
C54 C53 H53 120.0 .
C52 C53 H53 120.0 .
C53 C54 C48 120.0 .
C53 C54 C56 133.0(7) .
C48 C54 C56 107.0(7) .
N3 C55 C56 112.1(8) .
N3 C55 C60 127.9(8) .
C56 C55 C60 120.0 .
C55 C56 C57 120.0 .
C55 C56 C54 104.2(8) .
C57 C56 C54 135.8(8) .
C58 C57 C56 120.0 .
C58 C57 H57 120.0 .
C56 C57 H57 120.0 .
C57 C58 C59 120.0 .
C57 C58 H58 120.0 .
C59 C58 H58 120.0 .
C60 C59 C58 120.0 .
C60 C59 H59 120.0 .
C58 C59 H59 120.0 .
C59 C60 C55 120.0 .
C59 C60 H60 120.0 .
C55 C60 H60 120.0 .
C72 N4 C20 121.7(15) .
C72 N4 C61 106.5(9) .
C20 N4 C61 119.2(13) .
N4 C61 C62 128.6(9) .
N4 C61 C66 110.7(9) .
C62 C61 C66 120.0 .
C61 C62 C63 120.0 .
C61 C62 H62 120.0 .
C63 C62 H62 120.0 .
C64 C63 C62 120.0 .
C64 C63 H63 120.0 .
C62 C63 H63 120.0 .
N3 C64 C63 118.5(8) .
N3 C64 C65 121.4(8) .
C63 C64 C65 120.0 .
C66 C65 C64 120.0 .
C66 C65 H65 120.0 .
C64 C65 H65 120.0 .
C65 C66 C61 120.0 .
C65 C66 C67 135.1(8) .
C61 C66 C67 104.9(8) .
C68 C67 C72 120.0 .
C68 C67 C66 137.8(8) .
C72 C67 C66 102.1(8) .
C67 C68 C69 120.0 .
C67 C68 H68 120.0 .
C69 C68 H68 120.0 .
N2 C69 C70 114.3(14) .
N2 C69 C68 125.2(14) .
C70 C69 C68 120.0 .
C69 C70 C71 120.0 .
C69 C70 H70 120.0 .
C71 C70 H70 120.0 .
C70 C71 C72 120.0 .
C70 C71 H71 120.0 .
C72 C71 H71 120.0 .
N4 C72 C71 125.5(10) .
N4 C72 C67 113.8(10) .
C71 C72 C67 120.0 .
O7 Cu1 O5 170.69(15) .
O7 Cu1 O3 89.44(16) .
O5 Cu1 O3 89.35(16) .
O7 Cu1 O1 90.09(15) .
O5 Cu1 O1 88.81(15) .
O3 Cu1 O1 165.71(14) .
O7 Cu1 O9 97.04(15) .
O5 Cu1 O9 92.26(16) .
O3 Cu1 O9 96.99(17) .
O1 Cu1 O9 97.23(16) .
O7 Cu1 Cu2 85.16(10) .
O5 Cu1 Cu2 85.54(11) .
O3 Cu1 Cu2 83.41(11) .
O1 Cu1 Cu2 82.33(10) .
O9 Cu1 Cu2 177.76(12) .
O4 Cu2 O2 170.62(15) .
O4 Cu2 O6 88.38(15) .
O2 Cu2 O6 89.66(16) .
O4 Cu2 O8 90.27(15) .
O2 Cu2 O8 89.25(16) .
O6 Cu2 O8 165.01(15) .
O4 Cu2 O10 91.9(2) .
O2 Cu2 O10 97.4(2) .
O6 Cu2 O10 95.3(3) .
O8 Cu2 O10 99.6(2) .
O4 Cu2 Cu1 84.98(11) .
O2 Cu2 Cu1 85.66(10) .
O6 Cu2 Cu1 82.18(11) .
O8 Cu2 Cu1 82.83(10) .
O10 Cu2 Cu1 176.0(2) .
C1 O1 Cu1 124.2(3) .
C1 O2 Cu2 120.8(3) .
C17 O3 Cu1 121.9(4) .
C17 O4 Cu2 122.0(3) .
C24 O5 Cu1 121.0(4) .
C24 O6 Cu2 125.0(3) .
C16 O7 Cu1 123.1(3) .
C16 O8 Cu2 124.2(3) .
O1 C1 O2 126.7(5) .
O1 C1 C2 117.2(4) .
O2 C1 C2 116.1(4) .
C3 C2 C7 119.6(5) .
C3 C2 C1 119.6(5) .
C7 C2 C1 120.8(4) .
C4 C3 C2 120.5(5) .
C4 C3 H3 119.7 .
C2 C3 H3 119.7 .
C3 C4 C5 119.5(5) .
C3 C4 H4 120.2 .
C5 C4 H4 120.2 .
C4 C5 C6 120.7(5) .
C4 C5 H5 119.6 .
C6 C5 H5 119.6 .
C7 C6 C5 118.3(5) .
C7 C6 C8 121.1(5) .
C5 C6 C8 120.6(5) .
C2 C7 C6 121.2(4) .
C2 C7 H7 119.4 .
C6 C7 H7 119.4 .
C9 C8 C6 175.8(6) .
C8 C9 C10 174.0(7) 21_665
C15 C10 C11 120.2(5) .
C15 C10 C9 121.0(5) 20_455
C11 C10 C9 118.7(6) 20_455
C12 C11 C10 117.1(6) .
C12 C11 H11 121.5 .
C10 C11 H11 121.5 .
C13 C12 C11 122.0(5) .
C13 C12 H12 119.0 .
C11 C12 H12 119.0 .
C12 C13 C14 120.7(6) .
C12 C13 H13 119.7 .
C14 C13 H13 119.7 .
C15 C14 C13 119.7(5) .
C15 C14 C16 119.2(5) .
C13 C14 C16 121.2(5) .
C14 C15 C10 120.3(5) .
C14 C15 H15 119.8 .
C10 C15 H15 119.8 .
O8 C16 O7 124.5(5) .
O8 C16 C14 118.3(5) .
O7 C16 C14 117.2(5) .
O4 C17 O3 127.4(5) .
O4 C17 C18 117.8(5) .
O3 C17 C18 114.8(5) .
C19 C18 C23 117.3(5) .
C19 C18 C17 122.0(5) .
C23 C18 C17 120.6(5) .
C20 C19 C18 120.7(5) .
C20 C19 H19 119.7 .
C18 C19 H19 119.7 .
N4 C20 C19 125.0(10) .
N4 C20 C21 114.0(10) .
C19 C20 C21 121.0(5) .
C19 C20 N1 110.7(10) .
C21 C20 N1 128.3(10) .
C20 C21 C22 119.5(5) .
C20 C21 H21 120.3 .
C22 C21 H21 120.3 .
C23 C22 C21 120.0(5) .
C23 C22 C24 119.3(5) 3_465
C21 C22 C24 120.6(5) 3_465
C22 C23 C18 121.5(5) .
C22 C23 H23 119.3 .
C18 C23 H23 119.3 .
O6 C24 O5 125.9(5) .
O6 C24 C22 117.3(5) 2_675
O5 C24 C22 116.8(5) 2_675
loop_
_geom_bond_atom_site_label_1
_geom_bond_atom_site_label_2
_geom_bond_distance
_geom_bond_site_symmetry_2
N5 C73 1.373(14) .
N5 C28 1.40(2) .
N5 C84 1.425(12) .
C73 C74 1.3900 .
C73 C78 1.3900 .
C74 C75 1.3900 .
C74 H74 0.9300 .
C75 C76 1.3900 .
C75 H75 0.9300 .
C76 C77 1.3900 .
C76 H76 0.9300 .
C77 C78 1.3900 .
C77 H77 0.9300 .
C78 C79 1.455(13) .
C79 C80 1.3900 .
C79 C84 1.3900 .
C80 C81 1.3900 .
C80 H80 0.9300 .
C81 C82 1.3900 .
C81 H81 0.9300 .
C82 C83 1.3900 .
C82 H82 0.9300 .
C83 C84 1.3900 .
C83 H83 0.9300 .
C25 C26 1.3900 .
C25 C30 1.3900 .
C25 N1 1.454(19) .
C26 C27 1.3900 .
C26 C32 1.438(13) .
C27 C28 1.3900 .
C27 H27 0.9300 .
C28 C29 1.3900 .
C29 C30 1.3900 .
C29 H29 0.9300 .
C30 H30 0.9300 .
C31 N1 1.381(16) .
C31 C32 1.3900 .
C31 C50 1.3900 .
C32 C33 1.3900 .
C33 C34 1.3900 .
C33 H33 0.9300 .
C34 N6 1.387(11) .
C34 C35 1.3900 .
C35 C50 1.3900 .
C35 H35 0.9300 .
C50 H50 0.9300 .
N1 C20 1.470(13) .
N6 C85 1.369(10) .
N6 C96 1.377(11) .
C85 C86 1.3900 .
C85 C90 1.3900 .
C86 C87 1.3900 .
C86 H86 0.9300 .
C87 C88 1.3900 .
C87 H87 0.9300 .
C88 C89 1.3900 .
C88 H88 0.9300 .
C89 C90 1.3900 .
C89 H89 0.9300 .
C90 C91 1.428(9) .
C91 C92 1.3900 .
C91 C96 1.3900 .
C92 C93 1.3900 .
C92 H92 0.9300 .
C93 C94 1.3900 .
C93 H93 0.9300 .
C94 C95 1.3900 .
C94 H94 0.9300 .
C95 C96 1.3900 .
C95 H95 0.9300 .
C36 C37 1.3900 .
C36 C41 1.3900 .
C36 N2 1.426(16) .
C37 C38 1.3900 .
C37 H37 0.9300 .
C38 C39 1.3900 .
C38 H38 0.9300 .
C39 C40 1.3900 .
C39 H39 0.9300 .
C40 C41 1.3900 .
C40 H40 0.9300 .
C41 C42 1.490(17) .
C42 C43 1.3900 .
C42 C47 1.3900 .
C43 C44 1.3900 .
C43 H43 0.9300 .
C44 C45 1.3900 .
C44 H44 0.9300 .
C45 C46 1.3900 .
C45 H45 0.9300 .
C46 C47 1.3900 .
C46 H46 0.9300 .
C47 N2 1.39(2) .
N2 C69 1.35(2) .
N3 C48 1.349(12) .
N3 C64 1.375(12) .
N3 C55 1.376(13) .
C48 C49 1.3900 .
C48 C54 1.3900 .
C49 C51 1.3900 .
C49 H49 0.9300 .
C51 C52 1.3900 .
C51 H51 0.9300 .
C52 C53 1.3900 .
C52 H52 0.9300 .
C53 C54 1.3900 .
C53 H53 0.9300 .
C54 C56 1.422(10) .
C55 C56 1.3900 .
C55 C60 1.3900 .
C56 C57 1.3900 .
C57 C58 1.3900 .
C57 H57 0.9300 .
C58 C59 1.3900 .
C58 H58 0.9300 .
C59 C60 1.3900 .
C59 H59 0.9300 .
C60 H60 0.9300 .
N4 C72 1.336(14) .
N4 C20 1.355(13) .
N4 C61 1.366(14) .
C61 C62 1.3900 .
C61 C66 1.3900 .
C62 C63 1.3900 .
C62 H62 0.9300 .
C63 C64 1.3900 .
C63 H63 0.9300 .
C64 C65 1.3900 .
C65 C66 1.3900 .
C65 H65 0.9300 .
C66 C67 1.516(12) .
C67 C68 1.3900 .
C67 C72 1.3900 .
C68 C69 1.3900 .
C68 H68 0.9300 .
C69 C70 1.3900 .
C70 C71 1.3900 .
C70 H70 0.9300 .
C71 C72 1.3900 .
C71 H71 0.9300 .
Cu1 O7 1.935(4) .
Cu1 O5 1.954(4) .
Cu1 O3 1.966(4) .
Cu1 O1 1.972(3) .
Cu1 O9 2.134(4) .
Cu1 Cu2 2.6442(8) .
Cu2 O4 1.943(3) .
Cu2 O2 1.946(3) .
Cu2 O6 1.969(4) .
Cu2 O8 1.975(4) .
Cu2 O10 2.111(4) .
O1 C1 1.233(6) .
O2 C1 1.271(6) .
O3 C17 1.275(6) .
O4 C17 1.238(7) .
O5 C24 1.270(6) .
O6 C24 1.230(6) .
O7 C16 1.274(6) .
O8 C16 1.254(6) .
C1 C2 1.503(7) .
C2 C3 1.377(7) .
C2 C7 1.379(6) .
C3 C4 1.376(8) .
C3 H3 0.9300 .
C4 C5 1.386(8) .
C4 H4 0.9300 .
C5 C6 1.393(7) .
C5 H5 0.9300 .
C6 C7 1.384(7) .
C6 C8 1.446(8) .
C7 H7 0.9300 .
C8 C9 1.182(7) .
C9 C10 1.434(8) 21_665
C10 C15 1.394(7) .
C10 C11 1.408(8) .
C11 C12 1.408(8) .
C11 H11 0.9300 .
C12 C13 1.347(8) .
C12 H12 0.9300 .
C13 C14 1.381(7) .
C13 H13 0.9300 .
C14 C15 1.378(7) .
C14 C16 1.484(7) .
C15 H15 0.9300 .
C17 C18 1.504(7) .
C18 C19 1.386(7) .
C18 C23 1.404(7) .
C19 C20 1.355(7) .
C19 H19 0.9300 .
C20 C21 1.368(8) .
C21 C22 1.379(7) .
C21 H21 0.9300 .
C22 C23 1.343(7) .
C22 C24 1.503(8) 3_465
C23 H23 0.9300 .
loop_
_geom_torsion_atom_site_label_1
_geom_torsion_atom_site_label_2
_geom_torsion_atom_site_label_3
_geom_torsion_atom_site_label_4
_geom_torsion
_geom_torsion_site_symmetry_1
_geom_torsion_site_symmetry_4
C28 N5 C73 C74 -13(2) . .
C84 N5 C73 C74 -179(100) . .
C28 N5 C73 C78 167.0(18) . .
C84 N5 C73 C78 1.2(11) . .
N5 C73 C74 C75 -180(100) . .
C78 C73 C74 C75 0.0 . .
C73 C74 C75 C76 0.0 . .
C74 C75 C76 C77 0.0 . .
C75 C76 C77 C78 0.0 . .
C76 C77 C78 C73 0.0 . .
C76 C77 C78 C79 -177.4(10) . .
N5 C73 C78 C77 179.7(6) . .
C74 C73 C78 C77 0.0 . .
N5 C73 C78 C79 -2.4(10) . .
C74 C73 C78 C79 177.9(8) . .
C77 C78 C79 C80 -6.1(16) . .
C73 C78 C79 C80 176.3(9) . .
C77 C78 C79 C84 -180(100) . .
C73 C78 C79 C84 2.5(9) . .
C84 C79 C80 C81 0.0 . .
C78 C79 C80 C81 -173.1(14) . .
C79 C80 C81 C82 0.0 . .
C80 C81 C82 C83 0.0 . .
C81 C82 C83 C84 0.0 . .
C82 C83 C84 C79 0.0 . .
C82 C83 C84 N5 176.3(14) . .
C80 C79 C84 C83 0.0 . .
C78 C79 C84 C83 175.1(10) . .
C80 C79 C84 N5 -176.8(12) . .
C78 C79 C84 N5 -1.8(10) . .
C73 N5 C84 C83 -176.1(8) . .
C28 N5 C84 C83 20(3) . .
C73 N5 C84 C79 0.4(12) . .
C28 N5 C84 C79 -164(2) . .
C30 C25 C26 C27 0.0 . .
N1 C25 C26 C27 -167.8(19) . .
C30 C25 C26 C32 172.5(18) . .
N1 C25 C26 C32 4.8(16) . .
C25 C26 C27 C28 0.0 . .
C32 C26 C27 C28 -170(2) . .
C26 C27 C28 C29 0.0 . .
C26 C27 C28 N5 175(2) . .
C73 N5 C28 C27 70(2) . .
C84 N5 C28 C27 -128.1(19) . .
C73 N5 C28 C29 -114.9(16) . .
C84 N5 C28 C29 47(3) . .
C27 C28 C29 C30 0.0 . .
N5 C28 C29 C30 -175(2) . .
C28 C29 C30 C25 0.0 . .
C26 C25 C30 C29 0.0 . .
N1 C25 C30 C29 165(2) . .
N1 C31 C32 C33 173.3(14) . .
C50 C31 C32 C33 0.0 . .
N1 C31 C32 C26 -9.0(16) . .
C50 C31 C32 C26 177.7(13) . .
C27 C26 C32 C33 -9(3) . .
C25 C26 C32 C33 179.6(11) . .
C27 C26 C32 C31 173.6(15) . .
C25 C26 C32 C31 2.3(13) . .
C31 C32 C33 C34 0.0 . .
C26 C32 C33 C34 -177.0(17) . .
C32 C33 C34 N6 -175.9(11) . .
C32 C33 C34 C35 0.0 . .
N6 C34 C35 C50 176.0(11) . .
C33 C34 C35 C50 0.0 . .
C34 C35 C50 C31 0.0 . .
N1 C31 C50 C35 -171.9(17) . .
C32 C31 C50 C35 0.0 . .
C32 C31 N1 C25 12(2) . .
C50 C31 N1 C25 -175.7(12) . .
C32 C31 N1 C20 -174.7(17) . .
C50 C31 N1 C20 -2(3) . .
C26 C25 N1 C31 -10(2) . .
C30 C25 N1 C31 -176.1(15) . .
C26 C25 N1 C20 175.7(15) . .
C30 C25 N1 C20 10(3) . .
C33 C34 N6 C85 -57.0(15) . .
C35 C34 N6 C85 127.1(11) . .
C33 C34 N6 C96 112.7(12) . .
C35 C34 N6 C96 -63.2(15) . .
C96 N6 C85 C86 -178.9(6) . .
C34 N6 C85 C86 -7.3(16) . .
C96 N6 C85 C90 3.6(11) . .
C34 N6 C85 C90 175.1(10) . .
N6 C85 C86 C87 -177.4(9) . .
C90 C85 C86 C87 0.0 . .
C85 C86 C87 C88 0.0 . .
C86 C87 C88 C89 0.0 . .
C87 C88 C89 C90 0.0 . .
C88 C89 C90 C85 0.0 . .
C88 C89 C90 C91 -177.8(8) . .
N6 C85 C90 C89 177.8(8) . .
C86 C85 C90 C89 0.0 . .
N6 C85 C90 C91 -3.8(8) . .
C86 C85 C90 C91 178.3(6) . .
C89 C90 C91 C92 0.6(13) . .
C85 C90 C91 C92 -177.4(8) . .
C89 C90 C91 C96 -179.5(5) . .
C85 C90 C91 C96 2.4(6) . .
C96 C91 C92 C93 0.0 . .
C90 C91 C92 C93 179.9(11) . .
C91 C92 C93 C94 0.0 . .
C92 C93 C94 C95 0.0 . .
C93 C94 C95 C96 0.0 . .
C85 N6 C96 C95 177.6(7) . .
C34 N6 C96 C95 6.2(17) . .
C85 N6 C96 C91 -2.0(11) . .
C34 N6 C96 C91 -173.3(10) . .
C94 C95 C96 N6 -179.5(12) . .
C94 C95 C96 C91 0.0 . .
C92 C91 C96 N6 179.6(10) . .
C90 C91 C96 N6 -0.3(9) . .
C92 C91 C96 C95 0.0 . .
C90 C91 C96 C95 -179.9(8) . .
C41 C36 C37 C38 0.0 . .
N2 C36 C37 C38 179(100) . .
C36 C37 C38 C39 0.0 . .
C37 C38 C39 C40 0.0 . .
C38 C39 C40 C41 0.0 . .
C39 C40 C41 C36 0.0 . .
C39 C40 C41 C42 -176.3(12) . .
C37 C36 C41 C40 0.0 . .
N2 C36 C41 C40 -179.3(11) . .
C37 C36 C41 C42 177.2(9) . .
N2 C36 C41 C42 -2.1(10) . .
C40 C41 C42 C43 -2.9(14) . .
C36 C41 C42 C43 -180(100) . .
C40 C41 C42 C47 180(100) . .
C36 C41 C42 C47 3.1(9) . .
C47 C42 C43 C44 0.0 . .
C41 C42 C43 C44 -177.0(10) . .
C42 C43 C44 C45 0.0 . .
C43 C44 C45 C46 0.0 . .
C44 C45 C46 C47 0.0 . .
C45 C46 C47 C42 0.0 . .
C45 C46 C47 N2 -179(100) . .
C43 C42 C47 C46 0.0 . .
C41 C42 C47 C46 177.8(8) . .
C43 C42 C47 N2 179.3(7) . .
C41 C42 C47 N2 -3.0(10) . .
C46 C47 N2 C69 -3(2) . .
C42 C47 N2 C69 178(2) . .
C46 C47 N2 C36 -179(100) . .
C42 C47 N2 C36 1.7(11) . .
C37 C36 N2 C69 5(2) . .
C41 C36 N2 C69 -176.2(15) . .
C37 C36 N2 C47 -179(100) . .
C41 C36 N2 C47 0.3(11) . .
C64 N3 C48 C49 17.4(16) . .
C55 N3 C48 C49 179.9(6) . .
C64 N3 C48 C54 -163.4(10) . .
C55 N3 C48 C54 -0.9(11) . .
N3 C48 C49 C51 179.2(10) . .
C54 C48 C49 C51 0.0 . .
C48 C49 C51 C52 0.0 . .
C49 C51 C52 C53 0.0 . .
C51 C52 C53 C54 0.0 . .
C52 C53 C54 C48 0.0 . .
C52 C53 C54 C56 -179.7(9) . .
N3 C48 C54 C53 -179.3(8) . .
C49 C48 C54 C53 0.0 . .
N3 C48 C54 C56 0.5(9) . .
C49 C48 C54 C56 179.8(7) . .
C48 N3 C55 C56 1.0(11) . .
C64 N3 C55 C56 163.7(9) . .
C48 N3 C55 C60 -178.6(7) . .
C64 N3 C55 C60 -15.9(16) . .
N3 C55 C56 C57 -179.6(10) . .
C60 C55 C56 C57 0.0 . .
N3 C55 C56 C54 -0.7(8) . .
C60 C55 C56 C54 178.9(8) . .
C53 C54 C56 C55 179.9(6) . .
C48 C54 C56 C55 0.1(7) . .
C53 C54 C56 C57 -1.4(14) . .
C48 C54 C56 C57 178.8(8) . .
C55 C56 C57 C58 0.0 . .
C54 C56 C57 C58 -178.5(11) . .
C56 C57 C58 C59 0.0 . .
C57 C58 C59 C60 0.0 . .
C58 C59 C60 C55 0.0 . .
N3 C55 C60 C59 179.6(11) . .
C56 C55 C60 C59 0.0 . .
C72 N4 C61 C62 174.8(10) . .
C20 N4 C61 C62 32(2) . .
C72 N4 C61 C66 -14.8(18) . .
C20 N4 C61 C66 -157.4(13) . .
N4 C61 C62 C63 169.6(14) . .
C66 C61 C62 C63 0.0 . .
C61 C62 C63 C64 0.0 . .
C48 N3 C64 C63 55.8(15) . .
C55 N3 C64 C63 -103.4(11) . .
C48 N3 C64 C65 -121.7(10) . .
C55 N3 C64 C65 79.1(13) . .
C62 C63 C64 N3 -177.6(11) . .
C62 C63 C64 C65 0.0 . .
N3 C64 C65 C66 177.5(11) . .
C63 C64 C65 C66 0.0 . .
C64 C65 C66 C61 0.0 . .
C64 C65 C66 C67 177.2(12) . .
N4 C61 C66 C65 -171.3(12) . .
C62 C61 C66 C65 0.0 . .
N4 C61 C66 C67 10.8(13) . .
C62 C61 C66 C67 -177.9(8) . .
C65 C66 C67 C68 3(2) . .
C61 C66 C67 C68 -179.1(13) . .
C65 C66 C67 C72 179.8(8) . .
C61 C66 C67 C72 -2.7(8) . .
C72 C67 C68 C69 0.0 . .
C66 C67 C68 C69 175.9(17) . .
C47 N2 C69 C70 -114.7(17) . .
C36 N2 C69 C70 60.7(18) . .
C47 N2 C69 C68 57(2) . .
C36 N2 C69 C68 -127.4(14) . .
C67 C68 C69 N2 -171.5(18) . .
C67 C68 C69 C70 0.0 . .
N2 C69 C70 C71 172.4(16) . .
C68 C69 C70 C71 0.0 . .
C69 C70 C71 C72 0.0 . .
C20 N4 C72 C71 -35(3) . .
C61 N4 C72 C71 -176.6(11) . .
C20 N4 C72 C67 154.7(13) . .
C61 N4 C72 C67 13.2(19) . .
C70 C71 C72 N4 -169.6(19) . .
C70 C71 C72 C67 0.0 . .
C68 C67 C72 N4 170.8(17) . .
C66 C67 C72 N4 -6.4(14) . .
C68 C67 C72 C71 0.0 . .
C66 C67 C72 C71 -177.2(12) . .
Cu1 O1 C1 O2 5.0(8) . .
Cu1 O1 C1 C2 -173.1(3) . .
Cu2 O2 C1 O1 0.8(7) . .
Cu2 O2 C1 C2 178.9(3) . .
O1 C1 C2 C3 -5.3(7) . .
O2 C1 C2 C3 176.4(5) . .
O1 C1 C2 C7 173.4(5) . .
O2 C1 C2 C7 -4.9(7) . .
C7 C2 C3 C4 1.3(8) . .
C1 C2 C3 C4 179.9(5) . .
C2 C3 C4 C5 -3.4(10) . .
C3 C4 C5 C6 3.6(10) . .
C4 C5 C6 C7 -1.6(9) . .
C4 C5 C6 C8 179.6(6) . .
C3 C2 C7 C6 0.8(7) . .
C1 C2 C7 C6 -177.9(4) . .
C5 C6 C7 C2 -0.7(8) . .
C8 C6 C7 C2 178.2(5) . .
C15 C10 C11 C12 1.5(9) . .
C9 C10 C11 C12 178.3(6) 20_455 .
C10 C11 C12 C13 -3.7(11) . .
C11 C12 C13 C14 3.5(12) . .
C12 C13 C14 C15 -1.0(10) . .
C12 C13 C14 C16 180.0(6) . .
C13 C14 C15 C10 -1.2(8) . .
C16 C14 C15 C10 177.9(5) . .
C11 C10 C15 C14 0.9(8) . .
C9 C10 C15 C14 -175.8(5) 20_455 .
Cu2 O8 C16 O7 2.3(7) . .
Cu2 O8 C16 C14 -177.8(3) . .
Cu1 O7 C16 O8 2.1(7) . .
Cu1 O7 C16 C14 -177.8(3) . .
C15 C14 C16 O8 2.1(8) . .
C13 C14 C16 O8 -178.8(5) . .
C15 C14 C16 O7 -178.0(5) . .
C13 C14 C16 O7 1.1(8) . .
Cu2 O4 C17 O3 4.2(8) . .
Cu2 O4 C17 C18 -178.3(3) . .
Cu1 O3 C17 O4 1.4(8) . .
Cu1 O3 C17 C18 -176.2(3) . .
O4 C17 C18 C19 167.1(5) . .
O3 C17 C18 C19 -15.0(7) . .
O4 C17 C18 C23 -9.4(7) . .
O3 C17 C18 C23 168.4(5) . .
C23 C18 C19 C20 -0.9(8) . .
C17 C18 C19 C20 -177.6(5) . .
C72 N4 C20 C19 -52(2) . .
C61 N4 C20 C19 85.2(18) . .
C72 N4 C20 C21 126.3(17) . .
C61 N4 C20 C21 -96.8(16) . .
C18 C19 C20 N4 176.8(10) . .
C18 C19 C20 C21 -1.1(8) . .
C18 C19 C20 N1 179.4(9) . .
C31 N1 C20 C19 104(2) . .
C25 N1 C20 C19 -83(2) . .
C31 N1 C20 C21 -75(2) . .
C25 N1 C20 C21 97(2) . .
N4 C20 C21 C22 -176.2(9) . .
C19 C20 C21 C22 1.9(8) . .
N1 C20 C21 C22 -178.6(11) . .
C20 C21 C22 C23 -0.6(8) . .
C20 C21 C22 C24 177.7(5) . 3_465
C21 C22 C23 C18 -1.4(7) . .
C24 C22 C23 C18 -179.8(4) 3_465 .
C19 C18 C23 C22 2.2(7) . .
C17 C18 C23 C22 178.9(5) . .
Cu2 O6 C24 O5 6.3(7) . .
Cu2 O6 C24 C22 -174.4(3) . 2_675
Cu1 O5 C24 O6 -1.6(7) . .
Cu1 O5 C24 C22 179.1(3) . 2_675
