#------------------------------------------------------------------------------
#$Date: 2019-11-17 05:02:21 +0200 (Sun, 17 Nov 2019) $
#$Revision: 228013 $
#$URL: file:///home/coder/svn-repositories/cod/cif/7/12/16/7121692.cif $
#------------------------------------------------------------------------------
#
# This file is available in the Crystallography Open Database (COD),
# http://www.crystallography.net/
#
# All data on this site have been placed in the public domain by the
# contributors.
#
data_7121692
loop_
_publ_author_name
'Martin, N. P.'
'M\"arz, J'
'Feuchter, H.'
'Duval, S.'
'Roussel, P.'
'Henry, N.'
'Ikeda-Ohno, A'
'Loiseau, T.'
'Volkringer, C.'
_publ_section_title
;
 Synthesis and structural characterization of the first neptunium based
 metal-organic frameworks incorporating {Np<sub>6</sub>O<sub>8</sub>}
 hexanuclear clusters.
;
_journal_issue                   51
_journal_name_full
'Chemical communications (Cambridge, England)'
_journal_page_first              6979
_journal_page_last               6982
_journal_paper_doi               10.1039/c8cc03121e
_journal_volume                  54
_journal_year                    2018
_chemical_formula_moiety         'C192 Np12 O76'
_chemical_formula_sum            'C192 Np12 O76'
_chemical_formula_weight         6365.92
_space_group_crystal_system      cubic
_space_group_IT_number           225
_space_group_name_Hall           '-F 4 2 3'
_space_group_name_H-M_alt        'F m -3 m'
_symmetry_space_group_name_Hall  '-F 4 2 3'
_symmetry_space_group_name_H-M   'F m -3 m'
_audit_creation_date             2017-07-05
_audit_creation_method
;
Olex2 1.2
(compiled 2016.09.09 svn.r3337 for OlexSys, GUI svn.r5227)
;
_audit_update_record
;
2018-04-17 deposited with the CCDC.
2018-05-16 downloaded from the CCDC.
;
_cell_angle_alpha                90
_cell_angle_beta                 90
_cell_angle_gamma                90
_cell_formula_units_Z            2
_cell_length_a                   33.3917(9)
_cell_length_b                   33.3917(9)
_cell_length_c                   33.3917(9)
_cell_measurement_reflns_used    8329
_cell_measurement_temperature    100(2)
_cell_measurement_theta_max      25.953
_cell_measurement_theta_min      2.440
_cell_volume                     37231.9(17)
_computing_cell_refinement       'SAINT v8.37A (Bruker, 2015)'
_computing_data_reduction        'SAINT v8.37A (Bruker, 2015)'
_computing_molecular_graphics    'Olex2 (Dolomanov et al., 2009)'
_computing_publication_material  'Olex2 (Dolomanov et al., 2009)'
_computing_structure_refinement  'XL (Sheldrick, 2008)'
_diffrn_ambient_temperature      100.0
_diffrn_detector                 'Bruker APEX2 area detector'
_diffrn_detector_area_resol_mean 7.9
_diffrn_detector_type            'CCD area detector'
_diffrn_measured_fraction_theta_full 0.996
_diffrn_measured_fraction_theta_max 0.996
_diffrn_measurement_device       'three-circle diffractometer'
_diffrn_measurement_device_type  'Bruker SMART APEX2 area detector'
_diffrn_measurement_method       '\f and \w scans'
_diffrn_radiation_monochromator  'mirror optics'
_diffrn_radiation_probe          x-ray
_diffrn_radiation_type           MoK\a
_diffrn_radiation_wavelength     0.71073
_diffrn_reflns_av_R_equivalents  0.0688
_diffrn_reflns_av_unetI/netI     0.0209
_diffrn_reflns_Laue_measured_fraction_full 0.996
_diffrn_reflns_Laue_measured_fraction_max 0.996
_diffrn_reflns_limit_h_max       27
_diffrn_reflns_limit_h_min       -41
_diffrn_reflns_limit_k_max       41
_diffrn_reflns_limit_k_min       -41
_diffrn_reflns_limit_l_max       41
_diffrn_reflns_limit_l_min       -33
_diffrn_reflns_number            32772
_diffrn_reflns_point_group_measured_fraction_full 0.996
_diffrn_reflns_point_group_measured_fraction_max 0.996
_diffrn_reflns_theta_full        26.000
_diffrn_reflns_theta_max         26.355
_diffrn_reflns_theta_min         2.440
_diffrn_source                   'microfocus sealed X-ray tube'
_diffrn_source_type              'Incoatec I\ms'
_diffrn_standards_number         0
_exptl_absorpt_coefficient_mu    1.682
_exptl_absorpt_correction_T_max  0.7454
_exptl_absorpt_correction_T_min  0.6607
_exptl_absorpt_correction_type   multi-scan
_exptl_absorpt_process_details
;
SADABS-2016/2 (Bruker,2016/2) was used for absorption correction.
wR2(int) was 0.0680 before and 0.0607 after correction.
The Ratio of minimum to maximum transmission is 0.8864.
The \l/2 correction factor is Not present.
;
_exptl_crystal_colour            brown
_exptl_crystal_colour_primary    brown
_exptl_crystal_density_diffrn    0.568
_exptl_crystal_description       octahedral
_exptl_crystal_F_000             5752
_exptl_crystal_size_max          0.254
_exptl_crystal_size_mid          0.136
_exptl_crystal_size_min          0.124
_refine_diff_density_max         2.132
_refine_diff_density_min         -2.191
_refine_diff_density_rms         0.161
_refine_ls_extinction_method     none
_refine_ls_goodness_of_fit_ref   1.074
_refine_ls_hydrogen_treatment    undef
_refine_ls_matrix_type           full
_refine_ls_number_parameters     30
_refine_ls_number_reflns         1929
_refine_ls_number_restraints     11
_refine_ls_restrained_S_all      1.076
_refine_ls_R_factor_all          0.0840
_refine_ls_R_factor_gt           0.0643
_refine_ls_shift/su_max          0.001
_refine_ls_shift/su_mean         0.000
_refine_ls_structure_factor_coef Fsqd
_refine_ls_weighting_details
'w=1/[\s^2^(Fo^2^)+(0.1179P)^2^+835.8544P] where P=(Fo^2^+2Fc^2^)/3'
_refine_ls_weighting_scheme      calc
_refine_ls_wR_factor_gt          0.1864
_refine_ls_wR_factor_ref         0.2113
_reflns_Friedel_coverage         0.000
_reflns_number_gt                1521
_reflns_number_total             1929
_reflns_threshold_expression     'I > 2\s(I)'
_iucr_refine_instructions_details
;

    nm34fm3m_a_sq.res created by SHELXL-2014/7

TITL NM34Fm3m_a.res in Fm-3m
REM Old TITL NM34Fm3m in Fm-3m
REM SHELXT solution in Fm-3m
REM R1 0.190, Rweak 0.016, Alpha 0.028, Orientation as input
REM Formula found by SHELXT: C37 N22 Np6 O24
CELL 0.71073 33.3917 33.3917 33.3917 90 90 90
ZERR 2 0.0009 0.0009 0.0009 0 0 0
LATT 4
SYMM -X,-Y,+Z
SYMM -X,+Y,-Z
SYMM +X,-Y,-Z
SYMM +Z,+X,+Y
SYMM +Z,-X,-Y
SYMM -Z,-X,+Y
SYMM -Z,+X,-Y
SYMM +Y,+Z,+X
SYMM -Y,+Z,-X
SYMM +Y,-Z,-X
SYMM -Y,-Z,+X
SYMM +Y,+X,-Z
SYMM -Y,-X,-Z
SYMM +Y,-X,+Z
SYMM -Y,+X,+Z
SYMM +X,+Z,-Y
SYMM -X,+Z,+Y
SYMM -X,-Z,-Y
SYMM +X,-Z,+Y
SYMM +Z,+Y,-X
SYMM +Z,-Y,+X
SYMM -Z,+Y,+X
SYMM -Z,-Y,-X
SFAC C Np O
UNIT 384 24 152
DFIX 1.5 C1 C2
DFIX 1.39 C2 C3
DFIX 1.39 C3 C4
DFIX 1.39 C4 C5
DFIX 1.5 C5 C6
DFIX 2.5 C1 C3
DFIX 2.5 C4 C6
DFIX 1.39 C6 C8
DFIX 1.39 C6 C7
DFIX 2.5 C5 C7
DFIX 2.5 C5 C8
 
L.S. 5 0 18
PLAN  20
TEMP -173.15
BOND $H
MORE -1
CONF
ABIN
fmap 2
acta 52
REM <olex2.extras>
REM <HklSrc "%.\\nm34fm3m_a_sq.hkl">
REM </olex2.extras>
 
WGHT    0.117900  835.854431
FVAR       0.06732   0.57182
NP1   2    0.579729    0.500000    0.500000    10.12500    0.01921    0.05368 =
         0.05368    0.00000    0.00000    0.00000
O2    3    0.537333    0.537333    0.462667    10.16667    0.08588    0.08588 =
         0.08588   -0.04409   -0.04409    0.04409
O1    3    0.611606    0.563809    0.500000    10.50000    0.06043    0.10324 =
         0.14970    0.00000    0.00000   -0.04884
C1    1    0.598409    0.598409    0.500000    10.25000    0.11400
PART 2
O3W   3    0.665356    0.500000    0.500000    10.12500    0.42157    0.22244 =
         0.22244    0.00000    0.00000    0.00000
PART 0
C2    1    0.630415    0.630415    0.500000    10.25000   10.10000
C4    1    0.646284    0.701748    0.500000    10.50000   10.10000
C5    1    0.687012    0.687012    0.500000    10.12500   10.10000
C6    1    0.719034    0.719034    0.500000    10.12500   10.10000
C3    1    0.616937    0.670914    0.500000    10.50000   10.10000
PART 2
C8    1    0.732230    0.732230    0.537734   -20.25000   10.10000
PART 0
PART 1
C7    1    0.708979    0.759127    0.500000    20.25000   10.10000
HKLF 4
 
REM  NM34Fm3m_a.res in Fm-3m
REM R1 =  0.0643 for    1521 Fo > 4sig(Fo)  and  0.0840 for all    1929 data
REM     30 parameters refined using     11 restraints
 
END  
     
WGHT      0.1179    835.7655 

REM Highest difference peak  2.132,  deepest hole -2.191,  1-sigma level  0.161
Q1    1   0.7005  0.5000  0.5000  10.12500  0.05    1.21
Q2    1   0.5800  0.6594  0.5000  10.50000  0.05    1.10
Q3    1   0.6206  0.6695  0.4687  11.00000  0.05    0.89
Q4    1   0.6491  0.7011  0.5323  11.00000  0.05    0.85
Q5    1   0.6885  0.6885  0.4689  10.50000  0.05    0.78
Q6    1   0.6299  0.6299  0.4705  10.50000  0.05    0.75
Q7    1   0.6136  0.5874  0.5000  10.50000  0.05    0.65
Q8    1   0.6583  0.5000  0.5000  10.12500  0.05    0.60
Q9    1   0.5465  0.5465  0.4535  10.16667  0.05    0.59
Q10   1   0.5867  0.6107  0.4863  11.00000  0.05    0.55
Q11   1   0.7245  0.7165  0.5315  11.00000  0.05    0.51
Q12   1   0.7117  0.7324  0.5282  11.00000  0.05    0.50
Q13   1   0.5804  0.5804  0.4196  10.16667  0.05    0.48
Q14   1   0.5879  0.6898  0.5000  10.50000  0.05    0.46
Q15   1   0.6211  0.5782  0.5000  10.50000  0.05    0.46
Q16   1   0.5908  0.5345  0.5000  10.50000  0.05    0.45
Q17   1   0.7119  0.7558  0.5341  11.00000  0.05    0.44
Q18   1   0.7352  0.7352  0.5779  10.50000  0.05    0.42
Q19   1   0.5781  0.6918  0.5000  10.50000  0.05    0.42
Q20   1   0.6415  0.6087  0.5000  10.50000  0.05    0.41

  REM The information below was added by Olex2.
  REM
  REM R1 = 0.0643 for 1521 Fo > 4sig(Fo) and 0.0840 for all 32772 data
  REM n/a parameters refined using n/a restraints
  REM Highest difference peak 2.13, deepest hole -2.19
  REM Mean Shift 0, Max Shift -0.001.
  
  REM +++ Tabular Listing of Refinement Information +++
  REM R1_all = 0.0840
  REM R1_gt = 0.0643
  REM wR_ref = 0.2113
  REM GOOF = 1.074
  REM Shift_max = -0.001
  REM Shift_mean = 0
  REM Reflections_all = 32772
  REM Reflections_gt = 1521
  REM Parameters = n/a
  REM Hole = -2.19
  REM Peak = 2.13
  REM Flack = n/a
  
  
;
_cod_data_source_file            c8cc03121e2.cif
_cod_data_source_block           nm34fm3m_a_sq
_cod_depositor_comments
'Adding full bibliography for 7121688--7121693.cif.'
_cod_original_cell_volume        37232(3)
_cod_database_code               7121692
_shelx_space_group_comment
;
The symmetry employed for this shelxl refinement is uniquely defined
by the following loop, which should always be used as a source of
symmetry information in preference to the above space-group names.
They are only intended as comments.
;
_olex2_refinement_description
;
1. Restrained distances
 C1-C2
 1.5 with sigma of 0.02
 C2-C3
 1.39 with sigma of 0.02
 C3-C4
 1.39 with sigma of 0.02
 C4-C5
 1.39 with sigma of 0.02
 C5-C6
 1.5 with sigma of 0.02
 C1-C3
 2.5 with sigma of 0.02
 C4-C6
 2.5 with sigma of 0.02
 C6-C8
 1.39 with sigma of 0.02
 C6-C7
 1.39 with sigma of 0.02
 C5-C7
 2.5 with sigma of 0.02
 C5-C8
 2.5 with sigma of 0.02
2. Others
 Sof(C8)=0.25*(1-FVAR(2))
 Sof(C7)=0.25*FVAR(2)
 Fixed Sof: C5(0.125) C6(0.125)
 Fixed Uiso: C2(0.1) C4(0.1) C5(0.1) C6(0.1) C3(0.1) C8(0.1) C7(0.1)
;
_shelx_fab_checksum              94946
_shelx_fab_file
;
    1    3    3   -108.67      0.00
    3    3    3    263.31      0.00
    0    0    4   -461.33      0.00
    0    2    4    196.54      0.00
    2    2    4    -37.12      0.00
    0    4    4    -77.47      0.00
    2    4    4     84.60      0.00
    4    4    4     52.50      0.00
    1    1    5    254.63      0.00
    1    3    5   -201.15      0.00
    3    3    5    177.05      0.00
    1    5    5   -209.00      0.00
    3    5    5     64.10      0.00
    5    5    5   -100.42      0.00
    0    0    6   -207.77      0.00
    0    2    6     20.82      0.00
    2    2    6    -17.40      0.00
    0    4    6     89.42      0.00
    2    4    6    -71.38      0.00
    4    4    6    -43.88      0.00
    0    6    6     96.35      0.00
    2    6    6     27.50      0.00
    4    6    6    -46.89      0.00
    6    6    6    -93.51      0.00
    1    1    7     70.75      0.00
    1    3    7     56.45      0.00
    3    3    7    -33.30      0.00
    1    5    7     -2.34      0.00
    3    5    7      7.64      0.00
    5    5    7     77.49      0.00
    1    7    7      8.25      0.00
    3    7    7     44.59      0.00
    5    7    7     19.59      0.00
    7    7    7     24.19      0.00
    0    2    8    -64.26      0.00
    2    2    8     36.15      0.00
    0    4    8    -37.74      0.00
    2    4    8     31.45      0.00
    4    4    8     71.96      0.00
    0    6    8     31.62      0.00
    2    6    8      6.97      0.00
    4    6    8    -24.31      0.00
    6    6    8      8.44      0.00
    0    8    8     11.33      0.00
    2    8    8    -65.12      0.00
    4    8    8    -16.28      0.00
    6    8    8     13.28      0.00
    8    8    8     10.92      0.00
    1    1    9     18.76      0.00
    1    3    9     -9.21      0.00
    3    3    9    -41.13      0.00
    1    5    9     34.17      0.00
    3    5    9    -34.85      0.00
    5    5    9    -49.76      0.00
    1    7    9     12.08      0.00
    3    7    9     -3.88      0.00
    5    7    9    -44.31      0.00
    7    7    9    -21.94      0.00
    1    9    9    -43.60      0.00
    3    9    9    -21.25      0.00
    5    9    9    -18.22      0.00
    7    9    9     16.17      0.00
    9    9    9    -30.93      0.00
    0    2   10      8.26      0.00
    2    2   10    -39.21      0.00
    0    4   10   -123.54      0.00
    2    4   10    -14.22      0.00
    4    4   10     17.52      0.00
    0    6   10    -84.00      0.00
    2    6   10    -16.66      0.00
    4    6   10     64.28      0.00
    6    6   10     48.98      0.00
    0    8   10     39.89      0.00
    2    8   10      7.09      0.00
    4    8   10      7.26      0.00
    6    8   10     -9.11      0.00
    8    8   10    -27.73      0.00
    0   10   10    101.04      0.00
    2   10   10     32.71      0.00
    4   10   10    -80.27      0.00
    6   10   10    -41.43      0.00
    8   10   10     16.97      0.00
   10   10   10     33.15      0.00
    1    1   11     15.17      0.00
    1    3   11     12.52      0.00
    3    3   11     10.06      0.00
    1    5   11     62.20      0.00
    3    5   11    -28.24      0.00
    5    5   11    -85.52      0.00
    1    7   11     42.12      0.00
    3    7   11      9.39      0.00
    5    7   11     -3.68      0.00
    7    7   11     16.94      0.00
    1    9   11    -10.20      0.00
    3    9   11      4.73      0.00
    5    9   11     14.20      0.00
    7    9   11     20.54      0.00
    9    9   11     10.96      0.00
    1   11   11    -41.12      0.00
    3   11   11     18.07      0.00
    5   11   11     46.45      0.00
    7   11   11     13.83      0.00
    9   11   11    -36.37      0.00
   11   11   11     11.43      0.00
    0    0   12    -15.16      0.00
    0    2   12     49.08      0.00
    2    2   12      6.82      0.00
    0    4   12     15.40      0.00
    2    4   12    -17.47      0.00
    4    4   12      2.57      0.00
    0    6   12    -24.63      0.00
    2    6   12    -12.50      0.00
    4    6   12      2.19      0.00
    6    6   12      8.69      0.00
    0    8   12    -16.37      0.00
    2    8   12     -4.67      0.00
    4    8   12     -5.49      0.00
    6    8   12    -10.94      0.00
    8    8   12     -5.66      0.00
    0   10   12     18.84      0.00
    2   10   12      1.76      0.00
    4   10   12    -13.73      0.00
    6   10   12    -26.75      0.00
    8   10   12     21.63      0.00
   10   10   12     16.45      0.00
    0   12   12      8.01      0.00
    2   12   12    -19.66      0.00
    4   12   12    -19.59      0.00
    6   12   12      0.85      0.00
    8   12   12     -5.19      0.00
   10   12   12     -9.07      0.00
   12   12   12     -6.82      0.00
    1    1   13     17.30      0.00
    1    3   13    -27.00      0.00
    3    3   13     57.84      0.00
    1    5   13     -8.46      0.00
    3    5   13     19.92      0.00
    5    5   13    -19.87      0.00
    1    7   13     -1.40      0.00
    3    7   13     -7.00      0.00
    5    7   13     -9.13      0.00
    7    7   13      5.83      0.00
    1    9   13     -5.33      0.00
    3    9   13    -16.58      0.00
    5    9   13     10.57      0.00
    7    9   13     -3.92      0.00
    9    9   13    -14.87      0.00
    1   11   13      8.78      0.00
    3   11   13      5.44      0.00
    5   11   13     -6.22      0.00
    7   11   13     -7.93      0.00
    9   11   13     -3.20      0.00
   11   11   13      5.48      0.00
    1   13   13      8.95      0.00
    3   13   13      0.25      0.00
    5   13   13      2.30      0.00
    7   13   13      2.13      0.00
    9   13   13     -2.15      0.00
   11   13   13     -4.40      0.00
   13   13   13    -26.26      0.00
    0    0   14   -103.57      0.00
    0    2   14     11.73      0.00
    2    2   14      7.61      0.00
    0    4   14      1.04      0.00
    2    4   14      0.62      0.00
    4    4   14     22.94      0.00
    0    6   14     34.05      0.00
    2    6   14     16.92      0.00
    4    6   14     20.78      0.00
    6    6   14     -3.93      0.00
    0    8   14      9.75      0.00
    2    8   14      6.30      0.00
    4    8   14     -4.57      0.00
    6    8   14      1.04      0.00
    8    8   14     10.17      0.00
    0   10   14      5.65      0.00
    2   10   14     -4.42      0.00
    4   10   14     26.39      0.00
    6   10   14      9.07      0.00
    8   10   14      2.82      0.00
   10   10   14    -12.09      0.00
    0   12   14      5.17      0.00
    2   12   14      3.22      0.00
    4   12   14     10.90      0.00
    6   12   14      6.84      0.00
    8   12   14     -2.68      0.00
   10   12   14     -3.58      0.00
   12   12   14      6.59      0.00
    0   14   14     24.84      0.00
    2   14   14      4.39      0.00
    4   14   14      3.27      0.00
    6   14   14      0.16      0.00
    8   14   14    -11.13      0.00
   10   14   14      2.18      0.00
   12   14   14     -0.03      0.00
   14   14   14     11.62      0.00
    1    1   15     10.77      0.00
    1    3   15    -13.38      0.00
    3    3   15    -13.66      0.00
    1    5   15    -32.76      0.00
    3    5   15     -5.11      0.00
    5    5   15     32.33      0.00
    1    7   15     -4.72      0.00
    3    7   15     19.87      0.00
    5    7   15     26.89      0.00
    7    7   15     -0.78      0.00
    1    9   15      8.18      0.00
    3    9   15      5.30      0.00
    5    9   15    -17.88      0.00
    7    9   15    -15.75      0.00
    9    9   15    -15.84      0.00
    1   11   15     16.33      0.00
    3   11   15    -13.99      0.00
    5   11   15    -18.57      0.00
    7   11   15      7.76      0.00
    9   11   15     14.21      0.00
   11   11   15      9.98      0.00
    1   13   15     -8.66      0.00
    3   13   15     -8.36      0.00
    5   13   15      4.39      0.00
    7   13   15     11.86      0.00
    9   13   15      3.94      0.00
   11   13   15     -6.11      0.00
   13   13   15     -1.07      0.00
    1   15   15    -14.31      0.00
    3   15   15     10.00      0.00
    5   15   15     -4.14      0.00
    7   15   15    -32.32      0.00
    9   15   15      2.77      0.00
   11   15   15     -4.45      0.00
   13   15   15     -0.95      0.00
   15   15   15      8.22      0.00
    0    0   16     -5.61      0.00
    0    2   16     -7.39      0.00
    2    2   16    -19.35      0.00
    0    4   16    -37.34      0.00
    2    4   16      9.07      0.00
    4    4   16    -28.61      0.00
    0    6   16     54.57      0.00
    2    6   16     -6.07      0.00
    4    6   16    -42.00      0.00
    6    6   16    -17.53      0.00
    0    8   16    -12.61      0.00
    2    8   16     -8.30      0.00
    4    8   16     -2.43      0.00
    6    8   16      0.95      0.00
    8    8   16      7.53      0.00
    0   10   16    -31.24      0.00
    2   10   16    -22.08      0.00
    4   10   16     14.73      0.00
    6   10   16     15.27      0.00
    8   10   16      0.65      0.00
   10   10   16    -30.62      0.00
    0   12   16    -25.70      0.00
    2   12   16     -6.81      0.00
    4   12   16     15.14      0.00
    6   12   16      3.54      0.00
    8   12   16    -11.70      0.00
   10   12   16     -1.60      0.00
   12   12   16      3.55      0.00
    0   14   16      3.23      0.00
    2   14   16     -2.04      0.00
    4   14   16    -15.96      0.00
    6   14   16     -9.98      0.00
    8   14   16    -11.67      0.00
   10   14   16     -0.74      0.00
   12   14   16     -5.65      0.00
   14   14   16      1.25      0.00
    0   16   16      3.19      0.00
    2   16   16    -11.77      0.00
    4   16   16     -0.07      0.00
    6   16   16    -20.78      0.00
    8   16   16      1.49      0.00
   10   16   16      9.94      0.00
   12   16   16     10.12      0.00
   14   16   16     -7.00      0.00
   16   16   16     -2.71      0.00
    1    1   17     23.24      0.00
    1    3   17      7.68      0.00
    3    3   17     -5.39      0.00
    1    5   17    -14.07      0.00
    3    5   17     11.09      0.00
    5    5   17     12.30      0.00
    1    7   17    -11.95      0.00
    3    7   17      7.77      0.00
    5    7   17     10.34      0.00
    7    7   17     13.78      0.00
    1    9   17     17.20      0.00
    3    9   17     -6.73      0.00
    5    9   17    -17.38      0.00
    7    9   17      1.29      0.00
    9    9   17     12.09      0.00
    1   11   17     12.88      0.00
    3   11   17     17.59      0.00
    5   11   17     -8.01      0.00
    7   11   17     -6.04      0.00
    9   11   17     -3.18      0.00
   11   11   17      9.10      0.00
    1   13   17      2.23      0.00
    3   13   17     -3.62      0.00
    5   13   17     -0.98      0.00
    7   13   17     -5.43      0.00
    9   13   17      0.03      0.00
   11   13   17      0.17      0.00
   13   13   17     -3.40      0.00
    1   15   17      4.94      0.00
    3   15   17     -8.91      0.00
    5   15   17     10.91      0.00
    7   15   17      0.72      0.00
    9   15   17     -7.29      0.00
   11   15   17     -0.53      0.00
   13   15   17     -1.67      0.00
   15   15   17      7.05      0.00
    1   17   17    -40.30      0.00
    3   17   17      6.61      0.00
    5   17   17     14.49      0.00
    7   17   17      6.67      0.00
    9   17   17     -1.56      0.00
   11   17   17     -6.46      0.00
   13   17   17     -9.71      0.00
   15   17   17      0.19      0.00
   17   17   17     14.50      0.00
    0    0   18    -11.26      0.00
    0    2   18    -11.38      0.00
    2    2   18      6.95      0.00
    0    4   18     37.09      0.00
    2    4   18      4.83      0.00
    4    4   18     -1.67      0.00
    0    6   18      9.08      0.00
    2    6   18     10.02      0.00
    4    6   18      5.07      0.00
    6    6   18     -7.40      0.00
    0    8   18     -3.42      0.00
    2    8   18     -2.85      0.00
    4    8   18     12.91      0.00
    6    8   18      3.23      0.00
    8    8   18      5.97      0.00
    0   10   18     -6.71      0.00
    2   10   18     15.85      0.00
    4   10   18      0.57      0.00
    6   10   18      6.72      0.00
    8   10   18     -4.15      0.00
   10   10   18     -0.09      0.00
    0   12   18      1.10      0.00
    2   12   18      0.69      0.00
    4   12   18      8.91      0.00
    6   12   18      1.88      0.00
    8   12   18      7.84      0.00
   10   12   18     -8.20      0.00
   12   12   18      1.92      0.00
    0   14   18      2.87      0.00
    2   14   18     -6.45      0.00
    4   14   18      8.03      0.00
    6   14   18      5.21      0.00
    8   14   18      4.74      0.00
   10   14   18    -16.25      0.00
   12   14   18     -3.41      0.00
   14   14   18      1.36      0.00
    0   16   18      2.78      0.00
    2   16   18      1.19      0.00
    4   16   18     -3.68      0.00
    6   16   18      1.34      0.00
    8   16   18     -1.61      0.00
   10   16   18      2.44      0.00
   12   16   18      8.57      0.00
   14   16   18      7.20      0.00
   16   16   18      2.84      0.00
    0   18   18      5.16      0.00
    2   18   18     -8.09      0.00
    4   18   18     -8.25      0.00
    6   18   18     -4.15      0.00
    8   18   18     -5.55      0.00
   10   18   18      1.08      0.00
   12   18   18      1.74      0.00
   14   18   18      1.52      0.00
   16   18   18      0.70      0.00
   18   18   18     -4.61      0.00
    1    1   19      0.63      0.00
    1    3   19    -19.79      0.00
    3    3   19      2.15      0.00
    1    5   19     -4.29      0.00
    3    5   19      1.61      0.00
    5    5   19      6.57      0.00
    1    7   19      1.69      0.00
    3    7   19    -13.14      0.00
    5    7   19     -7.01      0.00
    7    7   19     -0.35      0.00
    1    9   19    -11.83      0.00
    3    9   19     -4.19      0.00
    5    9   19     -1.66      0.00
    7    9   19      4.58      0.00
    9    9   19      7.60      0.00
    1   11   19      0.03      0.00
    3   11   19     -2.60      0.00
    5   11   19      0.74      0.00
    7   11   19     -1.73      0.00
    9   11   19     -4.81      0.00
   11   11   19     -0.70      0.00
    1   13   19     -5.65      0.00
    3   13   19    -17.60      0.00
    5   13   19     -1.39      0.00
    7   13   19      1.63      0.00
    9   13   19    -16.77      0.00
   11   13   19      3.70      0.00
   13   13   19      2.69      0.00
    1   15   19      1.66      0.00
    3   15   19      6.10      0.00
    5   15   19      0.50      0.00
    7   15   19     -3.04      0.00
    9   15   19     -5.52      0.00
   11   15   19      6.61      0.00
   13   15   19      9.52      0.00
   15   15   19      4.89      0.00
    1   17   19     -4.83      0.00
    3   17   19     -2.58      0.00
    5   17   19      2.54      0.00
    7   17   19     -0.20      0.00
    9   17   19     -2.77      0.00
   11   17   19    -12.03      0.00
   13   17   19     -0.66      0.00
   15   17   19      3.63      0.00
   17   17   19      7.94      0.00
    1   19   19      4.96      0.00
    3   19   19      2.66      0.00
    5   19   19     -4.33      0.00
    7   19   19      6.45      0.00
    9   19   19     -7.16      0.00
   11   19   19     -4.02      0.00
   13   19   19      4.35      0.00
   15   19   19     11.06      0.00
   17   19   19     -4.28      0.00
   19   19   19     15.24      0.00
    0    0   20     55.09      0.00
    0    2   20     -7.42      0.00
    2    2   20      0.11      0.00
    0    4   20      4.93      0.00
    2    4   20     -9.68      0.00
    4    4   20      2.09      0.00
    0    6   20    -21.84      0.00
    2    6   20     -1.20      0.00
    4    6   20      2.20      0.00
    6    6   20      9.77      0.00
    0    8   20      9.61      0.00
    2    8   20     -1.65      0.00
    4    8   20     -2.42      0.00
    6    8   20     -2.58      0.00
    8    8   20     -5.85      0.00
    0   10   20      4.11      0.00
    2   10   20      2.86      0.00
    4   10   20     -6.37      0.00
    6   10   20     -2.83      0.00
    8   10   20     -1.41      0.00
   10   10   20      1.12      0.00
    0   12   20      0.25      0.00
    2   12   20    -11.69      0.00
    4   12   20     -0.14      0.00
    6   12   20     -3.38      0.00
    8   12   20      9.72      0.00
   10   12   20     -0.36      0.00
   12   12   20      5.79      0.00
    0   14   20     -6.72      0.00
    2   14   20    -16.64      0.00
    4   14   20     -2.11      0.00
    6   14   20     -0.50      0.00
    8   14   20      9.52      0.00
   10   14   20     -8.42      0.00
   12   14   20    -10.83      0.00
   14   14   20     -9.03      0.00
    0   16   20     -3.97      0.00
    2   16   20      2.75      0.00
    4   16   20     -2.98      0.00
    6   16   20     -2.30      0.00
    8   16   20     -2.42      0.00
   10   16   20     -4.21      0.00
   12   16   20      8.02      0.00
   14   16   20      6.21      0.00
   16   16   20     -7.28      0.00
    0   18   20      5.60      0.00
    2   18   20      5.43      0.00
    4   18   20      5.55      0.00
    6   18   20      4.03      0.00
    8   18   20     -2.60      0.00
   10   18   20     -3.78      0.00
   12   18   20      1.76      0.00
   14   18   20     -0.96      0.00
   16   18   20     -0.67      0.00
   18   18   20      6.05      0.00
    0   20   20     13.43      0.00
    2   20   20      0.14      0.00
    4   20   20    -12.45      0.00
    6   20   20     -4.62      0.00
    8   20   20    -10.52      0.00
   10   20   20     -2.92      0.00
   12   20   20      3.31      0.00
   14   20   20     -0.02      0.00
   16   20   20     -6.25      0.00
   18   20   20     -0.45      0.00
   20   20   20     -9.51      0.00
    1    1   21      3.60      0.00
    1    3   21     13.46      0.00
    3    3   21      0.37      0.00
    1    5   21     12.40      0.00
    3    5   21      1.98      0.00
    5    5   21     -6.18      0.00
    1    7   21      5.04      0.00
    3    7   21      0.05      0.00
    5    7   21      2.45      0.00
    7    7   21      4.95      0.00
    1    9   21      2.49      0.00
    3    9   21     -1.16      0.00
    5    9   21      6.28      0.00
    7    9   21     10.08      0.00
    9    9   21      1.25      0.00
    1   11   21      0.57      0.00
    3   11   21      8.56      0.00
    5   11   21     10.49      0.00
    7   11   21     -6.63      0.00
    9   11   21      4.08      0.00
   11   11   21     -3.27      0.00
    1   13   21     -2.89      0.00
    3   13   21      0.30      0.00
    5   13   21     -6.09      0.00
    7   13   21     -7.49      0.00
    9   13   21     -5.65      0.00
   11   13   21     -3.25      0.00
   13   13   21     -6.82      0.00
    1   15   21     10.57      0.00
    3   15   21    -18.40      0.00
    5   15   21     -2.80      0.00
    7   15   21     -3.35      0.00
    9   15   21    -14.76      0.00
   11   15   21     11.14      0.00
   13   15   21      5.60      0.00
   15   15   21      5.75      0.00
    1   17   21     -0.44      0.00
    3   17   21      7.61      0.00
    5   17   21     -2.98      0.00
    7   17   21     -1.16      0.00
    9   17   21     -1.44      0.00
   11   17   21      2.27      0.00
   13   17   21     -9.07      0.00
   15   17   21     -1.07      0.00
   17   17   21     -5.81      0.00
    1   19   21     -3.43      0.00
    3   19   21      3.12      0.00
    5   19   21      3.06      0.00
    7   19   21      7.61      0.00
    9   19   21      7.30      0.00
   11   19   21      3.62      0.00
   13   19   21     -3.18      0.00
   15   19   21     -6.76      0.00
   17   19   21     -3.22      0.00
   19   19   21      4.16      0.00
    1   21   21     -3.25      0.00
    3   21   21     -0.01      0.00
    5   21   21     -7.12      0.00
    7   21   21      6.28      0.00
    9   21   21      2.59      0.00
   11   21   21    -21.30      0.00
   13   21   21     -2.10      0.00
   15   21   21     -9.53      0.00
   17   21   21      6.72      0.00
   19   21   21     11.97      0.00
   21   21   21    -27.11      0.00
    0    0   22      9.17      0.00
    0    2   22      1.82      0.00
    2    2   22     -2.51      0.00
    0    4   22    -13.29      0.00
    2    4   22     -4.77      0.00
    4    4   22      4.66      0.00
    0    6   22    -17.14      0.00
    2    6   22     -8.48      0.00
    4    6   22      5.81      0.00
    6    6   22      2.03      0.00
    0    8   22     -2.09      0.00
    2    8   22      9.24      0.00
    4    8   22     -2.51      0.00
    6    8   22      1.03      0.00
    8    8   22     -5.05      0.00
    0   10   22     10.90      0.00
    2   10   22      3.06      0.00
    4   10   22     -8.52      0.00
    6   10   22    -15.93      0.00
    8   10   22     -2.95      0.00
   10   10   22     -1.41      0.00
    0   12   22      5.07      0.00
    2   12   22     11.05      0.00
    4   12   22     -7.41      0.00
    6   12   22    -19.68      0.00
    8   12   22     -2.92      0.00
   10   12   22      0.53      0.00
   12   12   22      5.90      0.00
    0   14   22      7.13      0.00
    2   14   22     -3.81      0.00
    4   14   22    -15.59      0.00
    6   14   22      1.71      0.00
    8   14   22      0.48      0.00
   10   14   22     -4.29      0.00
   12   14   22      8.23      0.00
   14   14   22     -9.52      0.00
    0   16   22    -10.63      0.00
    2   16   22    -24.70      0.00
    4   16   22     17.21      0.00
    6   16   22      4.10      0.00
    8   16   22      1.57      0.00
   10   16   22     -6.28      0.00
   12   16   22     -9.97      0.00
   14   16   22    -14.18      0.00
   16   16   22     27.63      0.00
    0   18   22      2.72      0.00
    2   18   22      3.31      0.00
    4   18   22      2.23      0.00
    6   18   22      1.84      0.00
    8   18   22      0.85      0.00
   10   18   22     -3.00      0.00
   12   18   22     -2.19      0.00
   14   18   22     10.74      0.00
   16   18   22      8.78      0.00
   18   18   22     -0.24      0.00
    0   20   22    -21.23      0.00
    2   20   22      4.54      0.00
    4   20   22      5.61      0.00
    6   20   22     -2.45      0.00
    8   20   22      2.62      0.00
   10   20   22     -7.85      0.00
   12   20   22     -2.13      0.00
   14   20   22      9.68      0.00
   16   20   22      3.22      0.00
   18   20   22     -2.87      0.00
   20   20   22     -6.46      0.00
    0   22   22     20.82      0.00
    2   22   22      7.91      0.00
    4   22   22    -12.72      0.00
    6   22   22     -5.47      0.00
    8   22   22     -3.58      0.00
   10   22   22     -7.98      0.00
   12   22   22     14.88      0.00
   14   22   22     -1.82      0.00
   16   22   22      7.70      0.00
   18   22   22      3.37      0.00
   20   22   22     -3.72      0.00
   22   22   22     22.13      0.00
    1    1   23    -23.64      0.00
    1    3   23     -2.13      0.00
    3    3   23      1.63      0.00
    1    5   23     10.65      0.00
    3    5   23    -20.90      0.00
    5    5   23    -18.51      0.00
    1    7   23      6.74      0.00
    3    7   23     -4.16      0.00
    5    7   23    -10.81      0.00
    7    7   23     -7.89      0.00
    1    9   23     -7.45      0.00
    3    9   23      6.47      0.00
    5    9   23     -5.53      0.00
    7    9   23      2.51      0.00
    9    9   23      2.35      0.00
    1   11   23    -10.62      0.00
    3   11   23      0.04      0.00
    5   11   23      0.15      0.00
    7   11   23      2.21      0.00
    9   11   23     -1.56      0.00
   11   11   23    -14.17      0.00
    1   13   23     -3.51      0.00
    3   13   23      3.49      0.00
    5   13   23      1.97      0.00
    7   13   23     -2.10      0.00
    9   13   23     -0.68      0.00
   11   13   23    -13.19      0.00
   13   13   23      5.16      0.00
    1   15   23     -2.08      0.00
    3   15   23     -1.52      0.00
    5   15   23      3.81      0.00
    7   15   23      8.05      0.00
    9   15   23     -0.93      0.00
   11   15   23      1.59      0.00
   13   15   23     -0.53      0.00
   15   15   23     15.91      0.00
    1   17   23      9.38      0.00
    3   17   23    -15.09      0.00
    5   17   23     -5.97      0.00
    7   17   23     -7.80      0.00
    9   17   23    -15.98      0.00
   11   17   23     18.18      0.00
   13   17   23      1.90      0.00
   15   17   23      3.25      0.00
   17   17   23    -20.19      0.00
    1   19   23     13.50      0.00
    3   19   23     -7.21      0.00
    5   19   23     -4.46      0.00
    7   19   23     -9.30      0.00
    9   19   23      2.66      0.00
   11   19   23      3.15      0.00
   13   19   23      9.88      0.00
   15   19   23      4.64      0.00
   17   19   23     -1.12      0.00
   19   19   23     10.02      0.00
    1   21   23     -1.78      0.00
    3   21   23      4.25      0.00
    5   21   23      7.83      0.00
    7   21   23     -0.63      0.00
    9   21   23     -1.34      0.00
   11   21   23     -4.12      0.00
   13   21   23     -4.82      0.00
   15   21   23      8.55      0.00
   17   21   23      4.00      0.00
   19   21   23      1.42      0.00
   21   21   23     -8.67      0.00
    1   23   23    -14.32      0.00
    3   23   23      5.23      0.00
    5   23   23     -1.24      0.00
    7   23   23      4.66      0.00
    9   23   23    -10.48      0.00
   11   23   23    -11.05      0.00
   13   23   23     -1.78      0.00
   15   23   23      3.02      0.00
   17   23   23     11.90      0.00
   19   23   23     10.72      0.00
   21   23   23     11.65      0.00
   23   23   23      4.68      0.00
    0    0   24     10.26      0.00
    0    2   24      2.58      0.00
    2    2   24      4.66      0.00
    0    4   24     -3.32      0.00
    2    4   24      8.93      0.00
    4    4   24      0.44      0.00
    0    6   24      6.67      0.00
    2    6   24     -1.14      0.00
    4    6   24    -11.17      0.00
    6    6   24      6.00      0.00
    0    8   24      8.50      0.00
    2    8   24      9.99      0.00
    4    8   24      2.54      0.00
    6    8   24      8.64      0.00
    8    8   24     21.33      0.00
    0   10   24      3.24      0.00
    2   10   24     -0.41      0.00
    4   10   24      6.63      0.00
    6   10   24     -2.49      0.00
    8   10   24      2.71      0.00
   10   10   24     -3.46      0.00
    0   12   24      1.78      0.00
    2   12   24      4.39      0.00
    4   12   24      0.01      0.00
    6   12   24      2.98      0.00
    8   12   24      4.32      0.00
   10   12   24      3.55      0.00
   12   12   24      3.86      0.00
    0   14   24      8.39      0.00
    2   14   24      7.51      0.00
    4   14   24      2.75      0.00
    6   14   24     -1.24      0.00
    8   14   24      2.02      0.00
   10   14   24      1.20      0.00
   12   14   24      4.11      0.00
   14   14   24      1.64      0.00
    0   16   24     -3.06      0.00
    2   16   24      2.82      0.00
    4   16   24      0.94      0.00
    6   16   24      4.27      0.00
    8   16   24    -10.30      0.00
   10   16   24     -3.66      0.00
   12   16   24     -0.65      0.00
   14   16   24     12.50      0.00
   16   16   24      6.01      0.00
    0   18   24     -5.04      0.00
    2   18   24     -4.79      0.00
    4   18   24      9.82      0.00
    6   18   24      2.76      0.00
    8   18   24      0.93      0.00
   10   18   24    -10.03      0.00
   12   18   24     -3.87      0.00
   14   18   24     -1.19      0.00
   16   18   24     -3.49      0.00
   18   18   24      2.17      0.00
    0   20   24     -1.34      0.00
    2   20   24     -6.81      0.00
    4   20   24     13.66      0.00
    6   20   24      0.96      0.00
    8   20   24      9.60      0.00
   10   20   24     -3.47      0.00
   12   20   24      3.55      0.00
   14   20   24     -7.19      0.00
   16   20   24     -9.85      0.00
   18   20   24     -2.68      0.00
   20   20   24     16.02      0.00
    0   22   24     14.21      0.00
    2   22   24      4.57      0.00
    4   22   24     -5.54      0.00
    6   22   24      3.33      0.00
    8   22   24      5.67      0.00
   10   22   24      8.12      0.00
   12   22   24     -2.85      0.00
   14   22   24      2.20      0.00
   16   22   24     -6.33      0.00
   18   22   24      3.52      0.00
   20   22   24     11.11      0.00
   22   22   24      2.80      0.00
    0   24   24     13.64      0.00
    2   24   24      2.11      0.00
    4   24   24    -16.11      0.00
    6   24   24     -1.94      0.00
    8   24   24     -6.60      0.00
   10   24   24     -4.00      0.00
   12   24   24     11.38      0.00
   14   24   24      3.24      0.00
   16   24   24      1.81      0.00
   18   24   24     -5.40      0.00
   20   24   24      6.40      0.00
   22   24   24    -16.64      0.00
   24   24   24      3.81      0.00
    1    1   25      4.29      0.00
    1    3   25     -0.01      0.00
    3    3   25      1.24      0.00
    1    5   25      0.35      0.00
    3    5   25     -0.11      0.00
    5    5   25     -2.28      0.00
    1    7   25     -4.19      0.00
    3    7   25      5.67      0.00
    5    7   25      5.04      0.00
    7    7   25     12.46      0.00
    1    9   25      8.36      0.00
    3    9   25     10.71      0.00
    5    9   25      9.66      0.00
    7    9   25     -7.89      0.00
    9    9   25     -4.66      0.00
    1   11   25      6.00      0.00
    3   11   25      4.09      0.00
    5   11   25     -3.62      0.00
    7   11   25      0.63      0.00
    9   11   25     -1.49      0.00
   11   11   25     -2.66      0.00
    1   13   25     -0.99      0.00
    3   13   25      2.98      0.00
    5   13   25     -0.84      0.00
    7   13   25     -0.20      0.00
    9   13   25      1.51      0.00
   11   13   25      5.36      0.00
   13   13   25      0.89      0.00
    1   15   25      1.72      0.00
    3   15   25     -4.90      0.00
    5   15   25      3.31      0.00
    7   15   25      1.24      0.00
    9   15   25      1.52      0.00
   11   15   25      4.21      0.00
   13   15   25      1.05      0.00
   15   15   25     -6.03      0.00
    1   17   25     -0.14      0.00
    3   17   25     -4.08      0.00
    5   17   25      9.15      0.00
    7   17   25     -7.11      0.00
    9   17   25      9.73      0.00
   11   17   25     -0.05      0.00
   13   17   25     -9.41      0.00
   15   17   25     -6.25      0.00
   17   17   25     -0.42      0.00
    1   19   25      1.91      0.00
    3   19   25      6.68      0.00
    5   19   25      2.08      0.00
    7   19   25      0.22      0.00
    9   19   25     -2.99      0.00
   11   19   25     -5.14      0.00
   13   19   25      4.38      0.00
   15   19   25     15.72      0.00
   17   19   25     -5.64      0.00
   19   19   25    -12.46      0.00
    1   21   25      0.60      0.00
    3   21   25      1.69      0.00
    5   21   25      5.62      0.00
    7   21   25     12.16      0.00
    9   21   25     -4.40      0.00
   11   21   25      3.11      0.00
   13   21   25      6.46      0.00
   15   21   25      6.28      0.00
   17   21   25     -9.99      0.00
   19   21   25     -0.37      0.00
   21   21   25     -9.54      0.00
    1   23   25      2.91      0.00
    3   23   25      5.64      0.00
    5   23   25     -0.59      0.00
    7   23   25      8.98      0.00
    9   23   25      0.53      0.00
   11   23   25      0.34      0.00
   13   23   25      5.06      0.00
   15   23   25      1.80      0.00
   17   23   25     -4.59      0.00
   19   23   25     18.03      0.00
   21   23   25     -2.59      0.00
   23   23   25     -6.73      0.00
    1   25   25      1.43      0.00
    3   25   25     -4.07      0.00
    5   25   25      9.36      0.00
    7   25   25      6.46      0.00
    9   25   25      2.93      0.00
   11   25   25     -5.14      0.00
   13   25   25    -12.44      0.00
   15   25   25     -3.21      0.00
   17   25   25     11.01      0.00
   19   25   25     -6.71      0.00
   21   25   25      1.11      0.00
    0    0   26    -23.14      0.00
    0    2   26     -4.07      0.00
    2    2   26     -8.68      0.00
    0    4   26      2.64      0.00
    2    4   26      1.33      0.00
    4    4   26     -4.68      0.00
    0    6   26     -8.11      0.00
    2    6   26     -8.34      0.00
    4    6   26      0.56      0.00
    6    6   26      2.44      0.00
    0    8   26     -1.90      0.00
    2    8   26     -7.93      0.00
    4    8   26      5.30      0.00
    6    8   26      2.17      0.00
    8    8   26      0.79      0.00
    0   10   26      1.53      0.00
    2   10   26     -1.77      0.00
    4   10   26     -0.94      0.00
    6   10   26    -10.55      0.00
    8   10   26     -2.82      0.00
   10   10   26     -3.61      0.00
    0   12   26     -7.91      0.00
    2   12   26      2.69      0.00
    4   12   26      4.63      0.00
    6   12   26     -0.25      0.00
    8   12   26     -4.40      0.00
   10   12   26      0.81      0.00
   12   12   26     -5.76      0.00
    0   14   26     -4.68      0.00
    2   14   26      1.22      0.00
    4   14   26      0.20      0.00
    6   14   26    -11.64      0.00
    8   14   26     -5.80      0.00
   10   14   26     -8.54      0.00
   12   14   26      0.23      0.00
   14   14   26     -0.02      0.00
    0   16   26     11.61      0.00
    2   16   26     -2.69      0.00
    4   16   26     -4.50      0.00
    6   16   26      6.10      0.00
    8   16   26    -16.94      0.00
   10   16   26      3.18      0.00
   12   16   26      8.85      0.00
   14   16   26      3.92      0.00
   16   16   26     -2.52      0.00
    0   18   26      5.84      0.00
    2   18   26     -1.97      0.00
    4   18   26     11.89      0.00
    6   18   26     -1.29      0.00
    8   18   26     16.96      0.00
   10   18   26     -5.80      0.00
   12   18   26     -1.59      0.00
   14   18   26      0.90      0.00
   16   18   26     -6.84      0.00
   18   18   26    -11.74      0.00
    0   20   26     -2.45      0.00
    2   20   26     -2.30      0.00
    4   20   26    -11.24      0.00
    6   20   26     -0.41      0.00
    8   20   26      9.75      0.00
   10   20   26     -4.08      0.00
   12   20   26     -5.98      0.00
   14   20   26     -4.28      0.00
   16   20   26      7.51      0.00
   18   20   26     14.40      0.00
   20   20   26     -7.06      0.00
    0   22   26      4.05      0.00
    2   22   26     -0.90      0.00
    4   22   26      3.21      0.00
    6   22   26      7.86      0.00
    8   22   26     -4.84      0.00
   10   22   26      7.20      0.00
   12   22   26     -3.92      0.00
   14   22   26      0.98      0.00
   16   22   26      3.87      0.00
   18   22   26      6.31      0.00
   20   22   26      0.06      0.00
   22   22   26      7.97      0.00
    0   24   26      2.72      0.00
    2   24   26      3.02      0.00
    4   24   26      1.63      0.00
    6   24   26      3.09      0.00
    8   24   26     -3.57      0.00
   10   24   26     -3.58      0.00
   12   24   26      2.35      0.00
   14   24   26      5.82      0.00
   16   24   26      0.10      0.00
   18   24   26     -8.54      0.00
   20   24   26     -2.95      0.00
   22   24   26      2.94      0.00
    0   26   26    -15.31      0.00
    2   26   26      2.12      0.00
    4   26   26      3.11      0.00
    6   26   26     -0.42      0.00
    8   26   26      1.06      0.00
   10   26   26    -10.55      0.00
   12   26   26      4.67      0.00
   14   26   26      5.94      0.00
   16   26   26    -13.56      0.00
   18   26   26    -22.64      0.00
    1    1   27      6.83      0.00
    1    3   27    -10.03      0.00
    3    3   27     12.96      0.00
    1    5   27     10.32      0.00
    3    5   27      9.85      0.00
    5    5   27      2.75      0.00
    1    7   27     -0.67      0.00
    3    7   27     -1.10      0.00
    5    7   27      3.36      0.00
    7    7   27      4.01      0.00
    1    9   27      0.76      0.00
    3    9   27      2.14      0.00
    5    9   27     -8.54      0.00
    7    9   27     -1.06      0.00
    9    9   27      3.91      0.00
    1   11   27      2.44      0.00
    3   11   27     -4.42      0.00
    5   11   27      1.29      0.00
    7   11   27     -0.22      0.00
    9   11   27      5.02      0.00
   11   11   27      6.63      0.00
    1   13   27      5.16      0.00
    3   13   27     -6.55      0.00
    5   13   27      2.68      0.00
    7   13   27     -3.45      0.00
    9   13   27      3.63      0.00
   11   13   27     -3.83      0.00
   13   13   27     -2.21      0.00
    1   15   27     -6.99      0.00
    3   15   27      1.89      0.00
    5   15   27      4.65      0.00
    7   15   27      6.03      0.00
    9   15   27     -4.44      0.00
   11   15   27    -10.57      0.00
   13   15   27     -7.86      0.00
   15   15   27      5.55      0.00
    1   17   27      6.18      0.00
    3   17   27      1.85      0.00
    5   17   27      3.44      0.00
    7   17   27      1.05      0.00
    9   17   27     -2.94      0.00
   11   17   27     -4.43      0.00
   13   17   27      1.17      0.00
   15   17   27      0.55      0.00
   17   17   27     -2.32      0.00
    1   19   27      3.10      0.00
    3   19   27      8.43      0.00
    5   19   27      0.63      0.00
    7   19   27     -0.24      0.00
    9   19   27     -4.65      0.00
   11   19   27      7.24      0.00
   13   19   27      5.80      0.00
   15   19   27     -4.85      0.00
   17   19   27      3.23      0.00
   19   19   27      4.97      0.00
    1   21   27      4.51      0.00
    3   21   27     -6.33      0.00
    5   21   27     -7.75      0.00
    7   21   27     -3.49      0.00
    9   21   27     -8.92      0.00
   11   21   27     -4.11      0.00
   13   21   27      1.83      0.00
   15   21   27      2.94      0.00
   17   21   27      8.76      0.00
   19   21   27    -13.25      0.00
   21   21   27     16.98      0.00
    1   23   27      4.10      0.00
    3   23   27     -0.10      0.00
    5   23   27     -1.92      0.00
    7   23   27     -3.80      0.00
    9   23   27     -4.21      0.00
   11   23   27     -1.38      0.00
   13   23   27      5.16      0.00
   15   23   27     -1.93      0.00
   17   23   27     -4.83      0.00
   19   23   27    -10.77      0.00
   21   23   27     27.63      0.00
    1   25   27      9.50      0.00
    3   25   27     -6.36      0.00
    5   25   27     -8.99      0.00
    7   25   27      2.31      0.00
    9   25   27      1.77      0.00
   11   25   27      5.72      0.00
   13   25   27      4.98      0.00
   15   25   27     -6.37      0.00
   17   25   27    -23.11      0.00
   19   25   27     -5.49      0.00
    1   27   27     -3.79      0.00
    3   27   27     -9.54      0.00
    5   27   27     10.76      0.00
    7   27   27     -0.14      0.00
    9   27   27     -0.80      0.00
   11   27   27     -6.44      0.00
   13   27   27    -17.44      0.00
   15   27   27      4.84      0.00
    0    0   28    -12.13      0.00
    0    2   28     15.24      0.00
    2    2   28      4.97      0.00
    0    4   28     10.60      0.00
    2    4   28      2.69      0.00
    4    4   28     10.78      0.00
    0    6   28     35.66      0.00
    2    6   28     -1.23      0.00
    4    6   28      0.51      0.00
    6    6   28      0.26      0.00
    0    8   28     -8.24      0.00
    2    8   28     -2.01      0.00
    4    8   28      8.88      0.00
    6    8   28      3.51      0.00
    8    8   28      0.85      0.00
    0   10   28      3.30      0.00
    2   10   28      1.61      0.00
    4   10   28     -9.10      0.00
    6   10   28      1.65      0.00
    8   10   28     11.66      0.00
   10   10   28     -4.35      0.00
    0   12   28     -1.21      0.00
    2   12   28      6.04      0.00
    4   12   28      4.51      0.00
    6   12   28     -1.75      0.00
    8   12   28     -2.29      0.00
   10   12   28     -4.12      0.00
   12   12   28      5.18      0.00
    0   14   28     10.92      0.00
    2   14   28      0.66      0.00
    4   14   28     -6.30      0.00
    6   14   28     -3.68      0.00
    8   14   28    -11.90      0.00
   10   14   28     -1.01      0.00
   12   14   28      6.37      0.00
   14   14   28      1.74      0.00
    0   16   28      5.98      0.00
    2   16   28    -11.23      0.00
    4   16   28      1.65      0.00
    6   16   28     -5.70      0.00
    8   16   28     14.03      0.00
   10   16   28     -5.97      0.00
   12   16   28      5.84      0.00
   14   16   28    -15.20      0.00
   16   16   28     -8.33      0.00
    0   18   28     23.24      0.00
    2   18   28      2.66      0.00
    4   18   28     -6.04      0.00
    6   18   28     -1.96      0.00
    8   18   28      1.00      0.00
   10   18   28     13.64      0.00
   12   18   28      3.52      0.00
   14   18   28    -14.11      0.00
   16   18   28      3.03      0.00
   18   18   28    -15.81      0.00
    0   20   28      1.55      0.00
    2   20   28      3.28      0.00
    4   20   28     -1.23      0.00
    6   20   28      7.87      0.00
    8   20   28     -8.23      0.00
   10   20   28     -3.39      0.00
   12   20   28      4.08      0.00
   14   20   28     16.09      0.00
   16   20   28      2.52      0.00
   18   20   28     -7.91      0.00
   20   20   28      2.65      0.00
    0   22   28     -4.05      0.00
    2   22   28     -1.15      0.00
    4   22   28     -0.84      0.00
    6   22   28      1.33      0.00
    8   22   28      2.62      0.00
   10   22   28    -15.41      0.00
   12   22   28      5.48      0.00
   14   22   28     -0.10      0.00
   16   22   28    -17.40      0.00
   18   22   28      9.93      0.00
   20   22   28     16.31      0.00
    0   24   28     -7.86      0.00
    2   24   28     -2.54      0.00
    4   24   28      3.98      0.00
    6   24   28     15.55      0.00
    8   24   28    -16.09      0.00
   10   24   28     -0.41      0.00
   12   24   28     -9.94      0.00
   14   24   28      3.40      0.00
   16   24   28     -4.11      0.00
   18   24   28     21.25      0.00
    0   26   28     17.72      0.00
    2   26   28     -0.68      0.00
    4   26   28     -9.63      0.00
    6   26   28      5.51      0.00
    8   26   28     -0.33      0.00
   10   26   28      0.82      0.00
   12   26   28      1.20      0.00
   14   26   28      4.31      0.00
   16   26   28    -10.11      0.00
    0   28   28      8.00      0.00
    2   28   28    -17.90      0.00
    4   28   28     28.54      0.00
    6   28   28      6.84      0.00
    8   28   28      5.37      0.00
   10   28   28     -7.96      0.00
   12   28   28    -11.54      0.00
    1    1   29      3.24      0.00
    1    3   29      2.04      0.00
    3    3   29     -8.91      0.00
    1    5   29     -3.67      0.00
    3    5   29     -1.24      0.00
    5    5   29      0.48      0.00
    1    7   29      0.45      0.00
    3    7   29    -10.06      0.00
    5    7   29      1.11      0.00
    7    7   29      1.21      0.00
    1    9   29      0.86      0.00
    3    9   29     -6.20      0.00
    5    9   29     -4.78      0.00
    7    9   29     -2.68      0.00
    9    9   29     -5.86      0.00
    1   11   29      1.75      0.00
    3   11   29      4.28      0.00
    5   11   29     -6.13      0.00
    7   11   29     -2.09      0.00
    9   11   29      0.64      0.00
   11   11   29     -7.63      0.00
    1   13   29     -0.25      0.00
    3   13   29     -1.48      0.00
    5   13   29    -17.76      0.00
    7   13   29    -12.75      0.00
    9   13   29      0.15      0.00
   11   13   29      5.53      0.00
   13   13   29      0.72      0.00
    1   15   29      0.87      0.00
    3   15   29    -14.92      0.00
    5   15   29      4.20      0.00
    7   15   29     -4.95      0.00
    9   15   29    -15.00      0.00
   11   15   29     13.08      0.00
   13   15   29      1.27      0.00
   15   15   29    -22.38      0.00
    1   17   29      0.46      0.00
    3   17   29     -5.02      0.00
    5   17   29     -2.94      0.00
    7   17   29      1.75      0.00
    9   17   29     -8.29      0.00
   11   17   29     -7.69      0.00
   13   17   29      1.13      0.00
   15   17   29      4.66      0.00
   17   17   29     -3.72      0.00
    1   19   29      1.05      0.00
    3   19   29      1.00      0.00
    5   19   29     -3.41      0.00
    7   19   29      6.07      0.00
    9   19   29      5.05      0.00
   11   19   29      2.77      0.00
   13   19   29     -1.99      0.00
   15   19   29      1.16      0.00
   17   19   29     -2.75      0.00
   19   19   29      0.80      0.00
    1   21   29     -4.83      0.00
    3   21   29      4.28      0.00
    5   21   29     -8.32      0.00
    7   21   29      4.35      0.00
    9   21   29      1.98      0.00
   11   21   29     -3.34      0.00
   13   21   29      9.75      0.00
   15   21   29    -10.26      0.00
   17   21   29      2.29      0.00
   19   21   29      7.07      0.00
   21   21   29     11.27      0.00
    1   23   29     14.98      0.00
    3   23   29    -21.19      0.00
    5   23   29     -0.22      0.00
    7   23   29     -4.97      0.00
    9   23   29     11.21      0.00
   11   23   29     -2.73      0.00
   13   23   29      7.35      0.00
   15   23   29    -23.92      0.00
   17   23   29      0.27      0.00
   19   23   29     -4.33      0.00
    1   25   29      0.85      0.00
    3   25   29     -8.90      0.00
    5   25   29     21.86      0.00
    7   25   29     14.68      0.00
    9   25   29    -17.69      0.00
   11   25   29     -1.49      0.00
   13   25   29      1.57      0.00
   15   25   29     10.78      0.00
    1   27   29    -15.46      0.00
    3   27   29     -5.87      0.00
    5   27   29     18.40      0.00
    7   27   29     15.07      0.00
    9   27   29    -30.60      0.00
   11   27   29     19.91      0.00
   13   27   29    -19.11      0.00
    1   29   29     12.84      0.00
    3   29   29     -8.87      0.00
    5   29   29      7.76      0.00
    7   29   29      4.76      0.00
    0    0   30     -3.97      0.00
    0    2   30     -6.84      0.00
    2    2   30     -5.29      0.00
    0    4   30      1.06      0.00
    2    4   30     -0.82      0.00
    4    4   30     -6.32      0.00
    0    6   30     -4.00      0.00
    2    6   30      1.82      0.00
    4    6   30     -4.92      0.00
    6    6   30      0.91      0.00
    0    8   30      4.05      0.00
    2    8   30     -0.02      0.00
    4    8   30     -1.27      0.00
    6    8   30     -4.63      0.00
    8    8   30     -4.79      0.00
    0   10   30      7.05      0.00
    2   10   30      4.49      0.00
    4   10   30      4.44      0.00
    6   10   30     -0.32      0.00
    8   10   30     -5.31      0.00
   10   10   30     18.26      0.00
    0   12   30      3.61      0.00
    2   12   30     -6.26      0.00
    4   12   30      1.08      0.00
    6   12   30     -2.11      0.00
    8   12   30      7.15      0.00
   10   12   30     -6.04      0.00
   12   12   30      9.25      0.00
    0   14   30     -2.67      0.00
    2   14   30    -12.17      0.00
    4   14   30     -2.93      0.00
    6   14   30      0.60      0.00
    8   14   30      0.36      0.00
   10   14   30    -11.79      0.00
   12   14   30      0.23      0.00
   14   14   30     -5.14      0.00
    0   16   30      1.09      0.00
    2   16   30     -5.67      0.00
    4   16   30      1.66      0.00
    6   16   30     -0.17      0.00
    8   16   30      2.61      0.00
   10   16   30     -1.96      0.00
   12   16   30     11.90      0.00
   14   16   30     -2.27      0.00
   16   16   30     -6.81      0.00
    0   18   30      7.57      0.00
    2   18   30      2.70      0.00
    4   18   30     -1.57      0.00
    6   18   30     -5.62      0.00
    8   18   30     -8.50      0.00
   10   18   30      2.99      0.00
   12   18   30     -0.41      0.00
   14   18   30      3.95      0.00
   16   18   30     -0.04      0.00
   18   18   30      5.23      0.00
    0   20   30      8.40      0.00
    2   20   30     -9.06      0.00
    4   20   30     -0.41      0.00
    6   20   30     -5.48      0.00
    8   20   30      0.96      0.00
   10   20   30    -10.17      0.00
   12   20   30      3.03      0.00
   14   20   30      3.92      0.00
   16   20   30      4.84      0.00
   18   20   30      5.05      0.00
   20   20   30      8.10      0.00
    0   22   30     -3.19      0.00
    2   22   30      8.30      0.00
    4   22   30     -3.97      0.00
    6   22   30     11.89      0.00
    8   22   30     -4.33      0.00
   10   22   30      7.74      0.00
   12   22   30    -15.49      0.00
   14   22   30     -3.85      0.00
   16   22   30     -0.15      0.00
   18   22   30     -2.62      0.00
    0   24   30      8.37      0.00
    2   24   30      0.68      0.00
    4   24   30      8.22      0.00
    6   24   30     13.23      0.00
    8   24   30      2.88      0.00
   10   24   30     -2.19      0.00
   12   24   30      4.07      0.00
   14   24   30     10.97      0.00
   16   24   30    -34.44      0.00
    0   26   30      3.77      0.00
    2   26   30    -13.20      0.00
    4   26   30     -3.85      0.00
    6   26   30      2.31      0.00
    8   26   30      2.17      0.00
   10   26   30     16.79      0.00
   12   26   30     -1.54      0.00
    0   28   30     25.47      0.00
    2   28   30    -17.86      0.00
    4   28   30    -39.14      0.00
    6   28   30     13.30      0.00
    1    1   31    -11.12      0.00
    1    3   31      7.64      0.00
    3    3   31      3.24      0.00
    1    5   31      2.73      0.00
    3    5   31      2.73      0.00
    5    5   31      1.94      0.00
    1    7   31      1.07      0.00
    3    7   31      6.12      0.00
    5    7   31      4.59      0.00
    7    7   31      8.45      0.00
    1    9   31      3.77      0.00
    3    9   31      4.75      0.00
    5    9   31     10.36      0.00
    7    9   31      6.44      0.00
    9    9   31      9.35      0.00
    1   11   31     13.60      0.00
    3   11   31      3.19      0.00
    5   11   31     -1.72      0.00
    7   11   31      4.60      0.00
    9   11   31      7.62      0.00
   11   11   31     31.44      0.00
    1   13   31     -3.86      0.00
    3   13   31      3.07      0.00
    5   13   31      2.47      0.00
    7   13   31      0.05      0.00
    9   13   31     -4.03      0.00
   11   13   31     -1.05      0.00
   13   13   31     10.23      0.00
    1   15   31     -0.76      0.00
    3   15   31      2.89      0.00
    5   15   31      6.09      0.00
    7   15   31     -0.81      0.00
    9   15   31      4.00      0.00
   11   15   31    -12.71      0.00
   13   15   31     16.77      0.00
   15   15   31     -5.43      0.00
    1   17   31      1.74      0.00
    3   17   31     -1.10      0.00
    5   17   31      9.12      0.00
    7   17   31      7.15      0.00
    9   17   31     -0.84      0.00
   11   17   31      3.24      0.00
   13   17   31     -1.12      0.00
   15   17   31      5.72      0.00
   17   17   31      7.43      0.00
    1   19   31     -6.93      0.00
    3   19   31     -5.53      0.00
    5   19   31     -0.37      0.00
    7   19   31     13.32      0.00
    9   19   31      3.37      0.00
   11   19   31     -2.90      0.00
   13   19   31      2.18      0.00
   15   19   31    -10.05      0.00
   17   19   31     -4.51      0.00
   19   19   31     18.11      0.00
    1   21   31      2.80      0.00
    3   21   31      0.92      0.00
    5   21   31      6.05      0.00
    7   21   31     -4.45      0.00
    9   21   31      3.49      0.00
   11   21   31     -0.96      0.00
   13   21   31     -9.62      0.00
   15   21   31     -2.30      0.00
   17   21   31      5.01      0.00
    1   23   31     26.05      0.00
    3   23   31      5.56      0.00
    5   23   31      6.66      0.00
    7   23   31     -0.02      0.00
    9   23   31    -12.66      0.00
   11   23   31     21.67      0.00
   13   23   31     -7.62      0.00
   15   23   31     -5.80      0.00
    1   25   31     16.78      0.00
    3   25   31     22.65      0.00
    5   25   31    -22.08      0.00
    7   25   31     -1.73      0.00
    9   25   31      9.93      0.00
   11   25   31      5.68      0.00
    1   27   31    -23.45      0.00
    3   27   31    -11.27      0.00
    5   27   31     -7.74      0.00
    7   27   31      6.15      0.00
    0    0   32     21.27      0.00
    0    2   32    -24.16      0.00
    2    2   32     -4.15      0.00
    0    4   32      2.22      0.00
    2    4   32      3.22      0.00
    4    4   32      1.14      0.00
    0    6   32    -12.30      0.00
    2    6   32      5.63      0.00
    4    6   32     -5.18      0.00
    6    6   32      0.50      0.00
    0    8   32      1.69      0.00
    2    8   32      6.18      0.00
    4    8   32      0.77      0.00
    6    8   32     -0.03      0.00
    8    8   32     -5.82      0.00
    0   10   32     -5.63      0.00
    2   10   32     -1.28      0.00
    4   10   32      3.35      0.00
    6   10   32      3.91      0.00
    8   10   32      4.68      0.00
   10   10   32      1.58      0.00
    0   12   32     23.16      0.00
    2   12   32    -12.39      0.00
    4   12   32     -0.82      0.00
    6   12   32      0.78      0.00
    8   12   32      6.98      0.00
   10   12   32     -3.37      0.00
   12   12   32     -8.10      0.00
    0   14   32     -8.71      0.00
    2   14   32    -11.20      0.00
    4   14   32      9.64      0.00
    6   14   32     -1.03      0.00
    8   14   32      5.02      0.00
   10   14   32     -5.47      0.00
   12   14   32     20.29      0.00
   14   14   32    -15.08      0.00
    0   16   32      7.66      0.00
    2   16   32      4.80      0.00
    4   16   32     -7.24      0.00
    6   16   32      2.88      0.00
    8   16   32     -0.48      0.00
   10   16   32     -1.47      0.00
   12   16   32     17.39      0.00
   14   16   32    -13.46      0.00
   16   16   32    -10.92      0.00
    0   18   32     -1.43      0.00
    2   18   32      1.69      0.00
    4   18   32      9.90      0.00
    6   18   32     -7.81      0.00
    8   18   32      0.67      0.00
   10   18   32      1.41      0.00
   12   18   32     -1.28      0.00
   14   18   32      9.59      0.00
   16   18   32      1.32      0.00
   18   18   32     -1.24      0.00
    0   20   32      0.02      0.00
    2   20   32     -4.58      0.00
    4   20   32      6.65      0.00
    6   20   32     -3.74      0.00
    8   20   32     -4.93      0.00
   10   20   32     10.78      0.00
   12   20   32      6.12      0.00
   14   20   32      8.50      0.00
   16   20   32      0.49      0.00
    0   22   32     11.93      0.00
    2   22   32     -0.39      0.00
    4   22   32      2.90      0.00
    6   22   32      2.81      0.00
    8   22   32      4.44      0.00
   10   22   32      4.27      0.00
   12   22   32    -12.21      0.00
   14   22   32     -2.84      0.00
    0   24   32     -0.30      0.00
    2   24   32     19.09      0.00
    4   24   32     -7.28      0.00
    6   24   32      1.54      0.00
    8   24   32     -7.78      0.00
   10   24   32    -12.02      0.00
    0   26   32      8.27      0.00
    2   26   32      9.53      0.00
    4   26   32    -17.75      0.00
    6   26   32     -0.10      0.00
    1    1   33     -7.59      0.00
    1    3   33    -14.84      0.00
    3    3   33      3.55      0.00
    1    5   33     -3.06      0.00
    3    5   33    -10.25      0.00
    5    5   33     -2.45      0.00
    1    7   33    -10.43      0.00
    3    7   33      0.98      0.00
    5    7   33      1.84      0.00
    7    7   33     -3.92      0.00
    1    9   33     -3.27      0.00
    3    9   33      1.94      0.00
    5    9   33     -4.40      0.00
    7    9   33     -6.92      0.00
    9    9   33     -4.46      0.00
    1   11   33     -2.69      0.00
    3   11   33      0.11      0.00
    5   11   33     -2.42      0.00
    7   11   33     -8.51      0.00
    9   11   33     -7.77      0.00
   11   11   33    -29.29      0.00
    1   13   33     -6.81      0.00
    3   13   33     -2.06      0.00
    5   13   33      1.89      0.00
    7   13   33     -4.85      0.00
    9   13   33     -0.24      0.00
   11   13   33      3.40      0.00
   13   13   33     19.16      0.00
    1   15   33      2.92      0.00
    3   15   33    -12.61      0.00
    5   15   33      0.65      0.00
    7   15   33      1.71      0.00
    9   15   33     -3.91      0.00
   11   15   33      2.60      0.00
   13   15   33     -8.84      0.00
   15   15   33    -17.93      0.00
    1   17   33      5.61      0.00
    3   17   33      1.24      0.00
    5   17   33     -0.38      0.00
    7   17   33     -6.61      0.00
    9   17   33     -3.82      0.00
   11   17   33      9.53      0.00
   13   17   33     -0.91      0.00
   15   17   33     -1.26      0.00
   17   17   33    -14.21      0.00
    1   19   33      5.34      0.00
    3   19   33      2.26      0.00
    5   19   33      2.88      0.00
    7   19   33     -8.00      0.00
    9   19   33      5.53      0.00
   11   19   33     -3.64      0.00
   13   19   33      0.92      0.00
   15   19   33      5.42      0.00
   17   19   33      0.59      0.00
    1   21   33     10.33      0.00
    3   21   33     -0.62      0.00
    5   21   33     -5.72      0.00
    7   21   33     -4.84      0.00
    9   21   33     -4.81      0.00
   11   21   33      1.86      0.00
   13   21   33     18.54      0.00
    1   23   33    -35.55      0.00
    3   23   33     11.41      0.00
    5   23   33     -6.13      0.00
    7   23   33     18.01      0.00
    9   23   33    -15.64      0.00
   11   23   33    -23.89      0.00
    1   25   33    -22.96      0.00
    3   25   33      5.32      0.00
    5   25   33      7.22      0.00
    0    0   34    -10.19      0.00
    0    2   34     -6.59      0.00
    2    2   34     -9.24      0.00
    0    4   34     21.59      0.00
    2    4   34      2.17      0.00
    4    4   34      5.65      0.00
    0    6   34     -1.43      0.00
    2    6   34     -2.71      0.00
    4    6   34     -1.38      0.00
    6    6   34      6.12      0.00
    0    8   34     -5.23      0.00
    2    8   34      6.26      0.00
    4    8   34      0.45      0.00
    6    8   34      6.26      0.00
    8    8   34      5.18      0.00
    0   10   34      1.57      0.00
    2   10   34     -3.70      0.00
    4   10   34      6.11      0.00
    6   10   34     -6.75      0.00
    8   10   34      0.10      0.00
   10   10   34     -6.09      0.00
    0   12   34     -4.41      0.00
    2   12   34      5.19      0.00
    4   12   34     16.83      0.00
    6   12   34    -13.30      0.00
    8   12   34     -9.76      0.00
   10   12   34      1.28      0.00
   12   12   34      8.24      0.00
    0   14   34     -1.27      0.00
    2   14   34    -10.18      0.00
    4   14   34      4.42      0.00
    6   14   34     13.70      0.00
    8   14   34      2.53      0.00
   10   14   34     -9.68      0.00
   12   14   34     -4.17      0.00
   14   14   34     -2.08      0.00
    0   16   34      6.97      0.00
    2   16   34      4.25      0.00
    4   16   34     11.16      0.00
    6   16   34      8.43      0.00
    8   16   34     -6.95      0.00
   10   16   34    -12.53      0.00
   12   16   34     -4.83      0.00
   14   16   34     13.47      0.00
   16   16   34     15.21      0.00
    0   18   34     -6.88      0.00
    2   18   34      6.69      0.00
    4   18   34      2.48      0.00
    6   18   34     -3.58      0.00
    8   18   34      6.41      0.00
   10   18   34     -8.38      0.00
   12   18   34      1.54      0.00
   14   18   34     -4.67      0.00
   16   18   34    -17.02      0.00
    0   20   34      9.59      0.00
    2   20   34     14.84      0.00
    4   20   34     -3.70      0.00
    6   20   34      0.34      0.00
    8   20   34     -7.45      0.00
   10   20   34      8.18      0.00
   12   20   34    -10.62      0.00
    0   22   34     10.38      0.00
    2   22   34    -17.47      0.00
    4   22   34     16.10      0.00
    6   22   34     -1.05      0.00
    8   22   34     -6.18      0.00
   10   22   34    -10.32      0.00
    0   24   34     -2.06      0.00
    2   24   34     -4.74      0.00
    1    1   35      5.22      0.00
    1    3   35      3.42      0.00
    3    3   35      7.59      0.00
    1    5   35      2.91      0.00
    3    5   35     10.20      0.00
    5    5   35     10.13      0.00
    1    7   35     -7.06      0.00
    3    7   35      6.28      0.00
    5    7   35      5.04      0.00
    7    7   35     -0.51      0.00
    1    9   35     -2.97      0.00
    3    9   35      3.86      0.00
    5    9   35      2.65      0.00
    7    9   35      1.22      0.00
    9    9   35      3.07      0.00
    1   11   35      2.43      0.00
    3   11   35     -2.83      0.00
    5   11   35      7.87      0.00
    7   11   35    -19.70      0.00
    9   11   35     10.88      0.00
   11   11   35    -10.90      0.00
    1   13   35      4.07      0.00
    3   13   35     -6.99      0.00
    5   13   35      9.04      0.00
    7   13   35     10.13      0.00
    9   13   35      2.12      0.00
   11   13   35     -7.33      0.00
   13   13   35     -7.05      0.00
    1   15   35      4.83      0.00
    3   15   35     12.68      0.00
    5   15   35      2.42      0.00
    7   15   35     -5.40      0.00
    9   15   35     -1.28      0.00
   11   15   35      6.98      0.00
   13   15   35      2.40      0.00
   15   15   35      1.95      0.00
    1   17   35      3.29      0.00
    3   17   35     10.85      0.00
    5   17   35    -12.24      0.00
    7   17   35     -6.18      0.00
    9   17   35     15.19      0.00
   11   17   35      1.50      0.00
   13   17   35     25.41      0.00
   15   17   35    -33.36      0.00
    1   19   35    -15.65      0.00
    3   19   35      3.57      0.00
    5   19   35     14.39      0.00
    7   19   35    -12.80      0.00
    9   19   35    -14.40      0.00
   11   19   35    -32.85      0.00
    1   21   35      4.23      0.00
    3   21   35     -0.97      0.00
    5   21   35     10.04      0.00
    7   21   35     -0.35      0.00
    0    0   36     10.74      0.00
    0    2   36      4.00      0.00
    2    2   36     -7.62      0.00
    0    4   36     -7.87      0.00
    2    4   36      2.14      0.00
    4    4   36      0.59      0.00
    0    6   36     -0.99      0.00
    2    6   36    -13.92      0.00
    4    6   36     13.80      0.00
    6    6   36    -17.51      0.00
    0    8   36    -15.84      0.00
    2    8   36     -1.01      0.00
    4    8   36     13.55      0.00
    6    8   36     -5.20      0.00
    8    8   36    -24.74      0.00
    0   10   36    -12.01      0.00
    2   10   36     -2.26      0.00
    4   10   36    -12.68      0.00
    6   10   36     -2.87      0.00
    8   10   36    -15.60      0.00
   10   10   36      5.80      0.00
    0   12   36    -11.42      0.00
    2   12   36      4.04      0.00
    4   12   36     -1.33      0.00
    6   12   36    -13.05      0.00
    8   12   36     -0.98      0.00
   10   12   36      4.09      0.00
   12   12   36     -4.40      0.00
    0   14   36     10.90      0.00
    2   14   36     -1.54      0.00
    4   14   36      0.85      0.00
    6   14   36    -12.94      0.00
    8   14   36      5.68      0.00
   10   14   36     -0.82      0.00
   12   14   36     -0.65      0.00
   14   14   36     -6.69      0.00
    0   16   36      1.74      0.00
    2   16   36     -1.11      0.00
    4   16   36      7.99      0.00
    6   16   36     -4.35      0.00
    8   16   36      5.84      0.00
   10   16   36      4.60      0.00
   12   16   36     -3.46      0.00
    0   18   36     14.05      0.00
    2   18   36     -7.68      0.00
    4   18   36    -31.25      0.00
    6   18   36      1.30      0.00
    8   18   36    -15.84      0.00
   10   18   36      4.49      0.00
    0   20   36     -6.46      0.00
    2   20   36     -7.55      0.00
    4   20   36     -3.50      0.00
    6   20   36    -21.03      0.00
    1    1   37    -11.42      0.00
    1    3   37     -0.36      0.00
    3    3   37      0.45      0.00
    1    5   37     -2.48      0.00
    3    5   37     -1.58      0.00
    5    5   37     -4.88      0.00
    1    7   37      3.76      0.00
    3    7   37     -1.53      0.00
    5    7   37     -2.37      0.00
    7    7   37    -25.74      0.00
    1    9   37      3.07      0.00
    3    9   37     -1.09      0.00
    5    9   37     -4.09      0.00
    7    9   37     -5.13      0.00
    9    9   37      1.60      0.00
    1   11   37    -13.54      0.00
    3   11   37      4.60      0.00
    5   11   37     -2.61      0.00
    7   11   37      0.03      0.00
    9   11   37     -0.65      0.00
   11   11   37     -2.67      0.00
    1   13   37     -2.51      0.00
    3   13   37     -1.84      0.00
    5   13   37     10.29      0.00
    7   13   37     -6.96      0.00
    9   13   37      1.98      0.00
   11   13   37     -6.06      0.00
   13   13   37     -3.12      0.00
    1   15   37     -2.27      0.00
    3   15   37     -4.61      0.00
    5   15   37      3.26      0.00
    7   15   37     -1.79      0.00
    9   15   37     -5.96      0.00
   11   15   37    -13.44      0.00
    1   17   37      5.72      0.00
    3   17   37      0.97      0.00
    5   17   37     -8.47      0.00
    7   17   37    -20.91      0.00
    9   17   37     26.59      0.00
    1   19   37     26.32      0.00
    3   19   37     -4.15      0.00
    0    0   38      1.75      0.00
    0    2   38     10.11      0.00
    2    2   38      2.78      0.00
    0    4   38    -10.78      0.00
    2    4   38      1.45      0.00
    4    4   38     10.32      0.00
    0    6   38     -4.95      0.00
    2    6   38     -1.35      0.00
    4    6   38     -5.93      0.00
    6    6   38     15.64      0.00
    0    8   38     -3.01      0.00
    2    8   38      8.22      0.00
    4    8   38      0.76      0.00
    6    8   38      7.19      0.00
    8    8   38      3.94      0.00
    0   10   38      2.31      0.00
    2   10   38     14.98      0.00
    4   10   38      5.04      0.00
    6   10   38     -5.66      0.00
    8   10   38     11.39      0.00
   10   10   38      3.68      0.00
    0   12   38      5.00      0.00
    2   12   38      1.99      0.00
    4   12   38      2.64      0.00
    6   12   38      1.78      0.00
    8   12   38     -3.54      0.00
   10   12   38      4.53      0.00
   12   12   38      2.48      0.00
    0   14   38      8.87      0.00
    2   14   38     -8.43      0.00
    4   14   38     -5.94      0.00
    6   14   38     -1.14      0.00
    8   14   38     -3.19      0.00
   10   14   38      7.88      0.00
    0   16   38      4.50      0.00
    2   16   38     -8.77      0.00
    4   16   38     -8.60      0.00
    6   16   38     -7.29      0.00
    1    1   39     -0.40      0.00
    1    3   39      2.09      0.00
    3    3   39     -3.74      0.00
    1    5   39      2.26      0.00
    3    5   39      1.50      0.00
    5    5   39    -13.42      0.00
    1    7   39     -4.15      0.00
    3    7   39      6.22      0.00
    5    7   39    -12.73      0.00
    7    7   39      3.79      0.00
    1    9   39     -2.50      0.00
    3    9   39     -2.24      0.00
    5    9   39      9.79      0.00
    7    9   39     -1.47      0.00
    9    9   39      6.45      0.00
    1   11   39      7.48      0.00
    3   11   39      1.81      0.00
    5   11   39     -6.05      0.00
    7   11   39     -4.84      0.00
    9   11   39     -4.83      0.00
    1   13   39    -10.28      0.00
    3   13   39     -1.95      0.00
    5   13   39     -2.94      0.00
    7   13   39     -7.18      0.00
    0    0   40     -4.31      0.00
    0    2   40    -13.64      0.00
    2    2   40      5.11      0.00
    0    4   40     -2.62      0.00
    2    4   40      1.59      0.00
    4    4   40     -3.97      0.00
    0    6   40    -10.29      0.00
    2    6   40      7.54      0.00
    4    6   40     -1.81      0.00
    6    6   40     -2.09      0.00
    0    8   40      5.38      0.00
    2    8   40      0.25      0.00
    4    8   40    -28.84      0.00
    6    8   40    -21.84      0.00
    8    8   40     -8.96      0.00
    0   10   40    -10.44      0.00
    2   10   40    -10.82      0.00
    4   10   40      3.86      0.00
    6   10   40      0.71      0.00
    1    1   41     -4.35      0.00
    1    3   41     -4.77      0.00
    3    3   41     15.77      0.00
    1    5   41      9.88      0.00
    3    5   41     -6.14      0.00
    5    5   41     13.92      0.00
    1    7   41     10.19      0.00
    3    7   41     -3.62      0.00
    1    1    1    269.52      0.00
    0    0    2   -226.16      0.00
    0    2    2     89.94      0.00
    2    2    2   -173.73      0.00
    1    1    3     67.75      0.00
    0    0    8    526.67      0.00
    0    0   10    466.04      0.00
   23   25   25    -17.99      0.00
   25   25   25      5.99      0.00
   24   24   26    -10.81      0.00
   20   26   26     -5.37      0.00
   22   26   26      2.51      0.00
   23   23   27      0.22      0.00
   21   25   27     14.35      0.00
   23   25   27     -7.17      0.00
   17   27   27     -0.55      0.00
   19   27   27     13.85      0.00
   21   27   27    -24.21      0.00
   22   22   28      4.66      0.00
   20   24   28    -23.09      0.00
   22   24   28     -4.69      0.00
   18   26   28     -3.35      0.00
   20   26   28      8.90      0.00
   14   28   28     -7.87      0.00
   16   28   28     29.81      0.00
   18   28   28    -14.38      0.00
   21   23   29    -12.07      0.00
   23   23   29     -7.43      0.00
   17   25   29     -3.27      0.00
   19   25   29      3.66      0.00
   15   27   29      7.12      0.00
   17   27   29      5.42      0.00
    9   29   29      7.96      0.00
   11   29   29      4.54      0.00
   13   29   29      3.74      0.00
   20   22   30    -17.62      0.00
   22   22   30     -6.68      0.00
   18   24   30     -0.29      0.00
   20   24   30      7.88      0.00
   14   26   30    -13.69      0.00
   16   26   30     -0.08      0.00
   18   26   30     15.76      0.00
    8   28   30     -4.00      0.00
   10   28   30     -2.93      0.00
   12   28   30     14.31      0.00
   14   28   30     -6.97      0.00
    0   30   30      1.88      0.00
    2   30   30     -0.35      0.00
    4   30   30      8.67      0.00
    6   30   30     -5.33      0.00
    8   30   30      0.60      0.00
   10   30   30    -11.22      0.00
   19   21   31      2.38      0.00
   21   21   31      2.60      0.00
   17   23   31    -12.35      0.00
   19   23   31     -1.68      0.00
   13   25   31     17.57      0.00
   15   25   31     -8.83      0.00
   17   25   31      1.75      0.00
    9   27   31     -8.31      0.00
   11   27   31     -9.73      0.00
   13   27   31     11.59      0.00
    1   29   31     -1.27      0.00
    3   29   31    -19.52      0.00
    5   29   31     -4.04      0.00
    7   29   31     -0.62      0.00
    9   29   31     -2.10      0.00
   18   20   32    -11.89      0.00
   20   20   32     -0.09      0.00
   16   22   32     -0.46      0.00
   18   22   32     -1.78      0.00
   12   24   32     12.20      0.00
   14   24   32      1.56      0.00
   16   24   32     -4.57      0.00
    8   26   32     15.99      0.00
   10   26   32     -0.68      0.00
   12   26   32     -4.78      0.00
   14   26   32     12.36      0.00
    0   28   32    -45.06      0.00
    2   28   32    -11.14      0.00
    4   28   32     20.95      0.00
    6   28   32      5.22      0.00
    8   28   32    -22.86      0.00
   19   19   33    -27.23      0.00
   15   21   33     -5.46      0.00
   17   21   33     -6.52      0.00
   19   21   33      2.21      0.00
   13   23   33     -3.34      0.00
   15   23   33     -1.05      0.00
    7   25   33     -1.85      0.00
    9   25   33    -27.54      0.00
   11   25   33     13.43      0.00
   13   25   33      5.15      0.00
    1   27   33      5.09      0.00
    3   27   33      3.84      0.00
    5   27   33     -2.69      0.00
    7   27   33      0.27      0.00
    9   27   33     14.48      0.00
   18   18   34      1.64      0.00
   14   20   34     -3.93      0.00
   16   20   34     -9.24      0.00
   18   20   34      9.42      0.00
   12   22   34     13.33      0.00
   14   22   34     -2.86      0.00
   16   22   34     -7.83      0.00
    4   24   34    -15.16      0.00
    6   24   34    -14.52      0.00
    8   24   34      1.25      0.00
   10   24   34     -4.74      0.00
   12   24   34     -3.06      0.00
    0   26   34    -44.10      0.00
    2   26   34      0.30      0.00
    4   26   34     15.89      0.00
    6   26   34     20.36      0.00
    8   26   34    -17.12      0.00
   17   17   35     16.77      0.00
   13   19   35      0.25      0.00
   15   19   35      6.71      0.00
   17   19   35      1.84      0.00
    9   21   35     -0.29      0.00
   11   21   35      7.48      0.00
   13   21   35    -22.76      0.00
   15   21   35     11.67      0.00
    1   23   35     10.02      0.00
    3   23   35      4.85      0.00
    5   23   35      6.25      0.00
    7   23   35      5.03      0.00
    9   23   35     -5.19      0.00
   11   23   35      9.54      0.00
    1   25   35     18.40      0.00
    3   25   35     -5.03      0.00
    5   25   35    -21.79      0.00
    7   25   35      5.23      0.00
   14   16   36     -0.87      0.00
   16   16   36    -11.99      0.00
   12   18   36    -14.06      0.00
   14   18   36     -7.17      0.00
   16   18   36      9.38      0.00
    8   20   36     -4.07      0.00
   10   20   36     -3.02      0.00
   12   20   36     -9.94      0.00
   14   20   36      1.64      0.00
    0   22   36      3.99      0.00
    2   22   36      8.25      0.00
    4   22   36     -3.34      0.00
    6   22   36     -2.95      0.00
    8   22   36      7.12      0.00
   10   22   36     11.50      0.00
    0   24   36     23.13      0.00
    2   24   36      6.77      0.00
    4   24   36     11.27      0.00
   13   15   37     14.50      0.00
   15   15   37    -22.10      0.00
   11   17   37    -11.08      0.00
   13   17   37     -2.59      0.00
   15   17   37      5.85      0.00
    5   19   37    -34.11      0.00
    7   19   37    -15.01      0.00
    9   19   37      2.30      0.00
   11   19   37     14.11      0.00
   13   19   37    -14.37      0.00
    1   21   37     -5.13      0.00
    3   21   37     -5.59      0.00
    5   21   37    -11.19      0.00
    7   21   37      1.17      0.00
    9   21   37      5.63      0.00
    1   23   37      6.77      0.00
   12   14   38     -6.51      0.00
   14   14   38      8.33      0.00
    8   16   38      0.67      0.00
   10   16   38      4.91      0.00
   12   16   38      2.92      0.00
   14   16   38     -1.09      0.00
    0   18   38     -5.47      0.00
    2   18   38     27.74      0.00
    4   18   38     17.00      0.00
    6   18   38     -8.78      0.00
    8   18   38      4.18      0.00
   10   18   38      5.47      0.00
    0   20   38     13.38      0.00
    2   20   38     10.18      0.00
    4   20   38      3.48      0.00
    6   20   38      9.09      0.00
   11   11   39     12.85      0.00
    9   13   39      9.19      0.00
   11   13   39     -1.92      0.00
   13   13   39      4.50      0.00
    1   15   39    -13.76      0.00
    3   15   39    -11.93      0.00
    5   15   39    -13.89      0.00
    7   15   39     -6.60      0.00
    9   15   39      2.23      0.00
   11   15   39     -5.91      0.00
    1   17   39      0.39      0.00
    3   17   39     -5.18      0.00
    5   17   39     -6.24      0.00
    7   17   39      8.81      0.00
    9   17   39     -7.25      0.00
    1   19   39     11.33      0.00
    3   19   39     20.19      0.00
    8   10   40     -9.22      0.00
   10   10   40     -2.90      0.00
    0   12   40     14.10      0.00
    2   12   40     -9.43      0.00
    4   12   40    -14.41      0.00
    6   12   40    -15.86      0.00
    8   12   40      5.46      0.00
   10   12   40      3.47      0.00
   12   12   40    -17.08      0.00
    0   14   40    -29.66      0.00
    2   14   40     -6.50      0.00
    4   14   40      9.01      0.00
    6   14   40      1.90      0.00
    8   14   40    -10.08      0.00
   10   14   40    -16.16      0.00
    0   16   40    -10.53      0.00
    2   16   40      6.27      0.00
    4   16   40    -27.72      0.00
    6   16   40    -18.44      0.00
    5    7   41     -5.69      0.00
    7    7   41    -12.22      0.00
    1    9   41    -18.44      0.00
    3    9   41      5.79      0.00
    5    9   41     -6.84      0.00
    7    9   41     -4.97      0.00
    9    9   41    -11.45      0.00
    1   11   41      3.24      0.00
    3   11   41     -0.42      0.00
    5   11   41     -7.73      0.00
    7   11   41     -5.00      0.00
    9   11   41      0.98      0.00
    1   13   41      5.70      0.00
    3   13   41      1.62      0.00
    5   13   41    -10.06      0.00
    7   13   41      1.79      0.00
    0    0    0      0.00      0.00
# SQUEEZE RESULTS (Version = 110516)
# Note: Data are Listed for all Voids in the P1 Unit Cell
# i.e. Centre of Gravity, Solvent Accessible Volume,
# Recovered number of Electrons in the Void and
# Details about the Squeezed Material
loop_
  _platon_squeeze_void_nr
  _platon_squeeze_void_average_x
  _platon_squeeze_void_average_y
  _platon_squeeze_void_average_z
  _platon_squeeze_void_volume
  _platon_squeeze_void_count_electrons
  _platon_squeeze_void_content
   1 -0.002 -0.005 -0.002     28672      3122 ' '
# Missing Reflections Below sin(th)/lambda = 0.25
loop_
  _platon_missing_refln_index_h
  _platon_missing_refln_index_k
  _platon_missing_refln_index_l
  _platon_missing_refln_theta
    1    1    1     1.056
    0    0    2     1.220
    0    2    2     1.725
    2    2    2     2.113
    1    1    3     2.023
    0    0    8     4.884
    0    0   10     6.109
_platon_squeeze_void_probe_radius                  1.20
_platon_squeeze_details
)
TITL NM34Fm3m_a.res in Fm-3m
CELL   33.3917   33.3917   33.3917     90.00     90.00     90.00
SPGR Fm-3m
# Solvent Accessible Volume =     28596
# Note: Atoms in Void as Cxxx and Qxxx all others
Q101 0.911 0.417 0.083 !       2.16 eA-3
Q102 0.206 0.500 0.000 !       1.75 eA-3
C103 0.105 0.396 0.104 !       1.36 eA-3
Q104 0.079 0.503 0.156 !       1.22 eA-3
C105 0.626 0.126 0.126 !       1.02 eA-3
Q106 0.079 0.500 0.000 !       0.92 eA-3
Q107 0.869 0.369 0.025 !       0.83 eA-3
Q108 0.470 0.164 0.127 !       0.83 eA-3
C109 0.340 0.500 0.000 !       0.73 eA-3
Q110 0.201 0.149 0.470 !       0.72 eA-3
C111 0.199 0.392 0.108 !       0.72 eA-3
C112 0.460 0.500 0.000 !       0.71 eA-3
Q113 0.686 0.313 0.470 !       0.71 eA-3
C114 0.396 0.502 0.102 !       0.70 eA-3
C115 0.368 0.336-0.002 !       0.66 eA-3
Q116 0.375 0.128 0.086 !       0.66 eA-3
Q117 0.389 0.016 0.016 !       0.64 eA-3
C118 0.659 0.334 0.260 !       0.62 eA-3
Q119 0.945 0.460 0.045 !       0.61 eA-3
C120 0.826 0.387 0.112 !       0.60 eA-3
Q121 1.000 0.501 0.156 !       0.60 eA-3
C122 0.500 0.106 0.321 !       0.57 eA-3
Q123 0.240 0.500 0.000 !       0.57 eA-3
C124 0.225 0.159 0.215 !       0.56 eA-3
C125 0.132 0.498 0.391 !       0.55 eA-3
C126 0.219 0.382 0.391 !       0.54 eA-3
Q127 0.907 0.497 0.039 !       0.54 eA-3
C128 0.741 0.180 0.180 !       0.53 eA-3
C129 0.603 0.098 0.236 !       0.53 eA-3
C130 0.688 0.135 0.106 !       0.53 eA-3
C131 0.483 0.353 0.017 !       0.52 eA-3
C132 0.409 0.500 0.000 !       0.52 eA-3
C133 0.242 0.094 0.375 !       0.51 eA-3
Q134 0.102 0.011 0.325 !       0.51 eA-3
C135 0.690 0.313 0.123 !       0.51 eA-3
C136 0.719 0.393 0.363 !       0.51 eA-3
C137 0.092 0.291 0.397 !       0.50 eA-3
)
;
_shelx_shelxl_version_number     2014/7
_olex2_submission_special_instructions 'No special instructions were received'
loop_
_space_group_symop_operation_xyz
'x, y, z'
'-x, -y, z'
'-x, y, -z'
'x, -y, -z'
'z, x, y'
'z, -x, -y'
'-z, -x, y'
'-z, x, -y'
'y, z, x'
'-y, z, -x'
'y, -z, -x'
'-y, -z, x'
'y, x, -z'
'-y, -x, -z'
'y, -x, z'
'-y, x, z'
'x, z, -y'
'-x, z, y'
'-x, -z, -y'
'x, -z, y'
'z, y, -x'
'z, -y, x'
'-z, y, x'
'-z, -y, -x'
'x, y+1/2, z+1/2'
'-x, -y+1/2, z+1/2'
'-x, y+1/2, -z+1/2'
'x, -y+1/2, -z+1/2'
'z, x+1/2, y+1/2'
'z, -x+1/2, -y+1/2'
'-z, -x+1/2, y+1/2'
'-z, x+1/2, -y+1/2'
'y, z+1/2, x+1/2'
'-y, z+1/2, -x+1/2'
'y, -z+1/2, -x+1/2'
'-y, -z+1/2, x+1/2'
'y, x+1/2, -z+1/2'
'-y, -x+1/2, -z+1/2'
'y, -x+1/2, z+1/2'
'-y, x+1/2, z+1/2'
'x, z+1/2, -y+1/2'
'-x, z+1/2, y+1/2'
'-x, -z+1/2, -y+1/2'
'x, -z+1/2, y+1/2'
'z, y+1/2, -x+1/2'
'z, -y+1/2, x+1/2'
'-z, y+1/2, x+1/2'
'-z, -y+1/2, -x+1/2'
'x+1/2, y, z+1/2'
'-x+1/2, -y, z+1/2'
'-x+1/2, y, -z+1/2'
'x+1/2, -y, -z+1/2'
'z+1/2, x, y+1/2'
'z+1/2, -x, -y+1/2'
'-z+1/2, -x, y+1/2'
'-z+1/2, x, -y+1/2'
'y+1/2, z, x+1/2'
'-y+1/2, z, -x+1/2'
'y+1/2, -z, -x+1/2'
'-y+1/2, -z, x+1/2'
'y+1/2, x, -z+1/2'
'-y+1/2, -x, -z+1/2'
'y+1/2, -x, z+1/2'
'-y+1/2, x, z+1/2'
'x+1/2, z, -y+1/2'
'-x+1/2, z, y+1/2'
'-x+1/2, -z, -y+1/2'
'x+1/2, -z, y+1/2'
'z+1/2, y, -x+1/2'
'z+1/2, -y, x+1/2'
'-z+1/2, y, x+1/2'
'-z+1/2, -y, -x+1/2'
'x+1/2, y+1/2, z'
'-x+1/2, -y+1/2, z'
'-x+1/2, y+1/2, -z'
'x+1/2, -y+1/2, -z'
'z+1/2, x+1/2, y'
'z+1/2, -x+1/2, -y'
'-z+1/2, -x+1/2, y'
'-z+1/2, x+1/2, -y'
'y+1/2, z+1/2, x'
'-y+1/2, z+1/2, -x'
'y+1/2, -z+1/2, -x'
'-y+1/2, -z+1/2, x'
'y+1/2, x+1/2, -z'
'-y+1/2, -x+1/2, -z'
'y+1/2, -x+1/2, z'
'-y+1/2, x+1/2, z'
'x+1/2, z+1/2, -y'
'-x+1/2, z+1/2, y'
'-x+1/2, -z+1/2, -y'
'x+1/2, -z+1/2, y'
'z+1/2, y+1/2, -x'
'z+1/2, -y+1/2, x'
'-z+1/2, y+1/2, x'
'-z+1/2, -y+1/2, -x'
'-x, -y, -z'
'x, y, -z'
'x, -y, z'
'-x, y, z'
'-z, -x, -y'
'-z, x, y'
'z, x, -y'
'z, -x, y'
'-y, -z, -x'
'y, -z, x'
'-y, z, x'
'y, z, -x'
'-y, -x, z'
'y, x, z'
'-y, x, -z'
'y, -x, -z'
'-x, -z, y'
'x, -z, -y'
'x, z, y'
'-x, z, -y'
'-z, -y, x'
'-z, y, -x'
'z, -y, -x'
'z, y, x'
'-x, -y+1/2, -z+1/2'
'x, y+1/2, -z+1/2'
'x, -y+1/2, z+1/2'
'-x, y+1/2, z+1/2'
'-z, -x+1/2, -y+1/2'
'-z, x+1/2, y+1/2'
'z, x+1/2, -y+1/2'
'z, -x+1/2, y+1/2'
'-y, -z+1/2, -x+1/2'
'y, -z+1/2, x+1/2'
'-y, z+1/2, x+1/2'
'y, z+1/2, -x+1/2'
'-y, -x+1/2, z+1/2'
'y, x+1/2, z+1/2'
'-y, x+1/2, -z+1/2'
'y, -x+1/2, -z+1/2'
'-x, -z+1/2, y+1/2'
'x, -z+1/2, -y+1/2'
'x, z+1/2, y+1/2'
'-x, z+1/2, -y+1/2'
'-z, -y+1/2, x+1/2'
'-z, y+1/2, -x+1/2'
'z, -y+1/2, -x+1/2'
'z, y+1/2, x+1/2'
'-x+1/2, -y, -z+1/2'
'x+1/2, y, -z+1/2'
'x+1/2, -y, z+1/2'
'-x+1/2, y, z+1/2'
'-z+1/2, -x, -y+1/2'
'-z+1/2, x, y+1/2'
'z+1/2, x, -y+1/2'
'z+1/2, -x, y+1/2'
'-y+1/2, -z, -x+1/2'
'y+1/2, -z, x+1/2'
'-y+1/2, z, x+1/2'
'y+1/2, z, -x+1/2'
'-y+1/2, -x, z+1/2'
'y+1/2, x, z+1/2'
'-y+1/2, x, -z+1/2'
'y+1/2, -x, -z+1/2'
'-x+1/2, -z, y+1/2'
'x+1/2, -z, -y+1/2'
'x+1/2, z, y+1/2'
'-x+1/2, z, -y+1/2'
'-z+1/2, -y, x+1/2'
'-z+1/2, y, -x+1/2'
'z+1/2, -y, -x+1/2'
'z+1/2, y, x+1/2'
'-x+1/2, -y+1/2, -z'
'x+1/2, y+1/2, -z'
'x+1/2, -y+1/2, z'
'-x+1/2, y+1/2, z'
'-z+1/2, -x+1/2, -y'
'-z+1/2, x+1/2, y'
'z+1/2, x+1/2, -y'
'z+1/2, -x+1/2, y'
'-y+1/2, -z+1/2, -x'
'y+1/2, -z+1/2, x'
'-y+1/2, z+1/2, x'
'y+1/2, z+1/2, -x'
'-y+1/2, -x+1/2, z'
'y+1/2, x+1/2, z'
'-y+1/2, x+1/2, -z'
'y+1/2, -x+1/2, -z'
'-x+1/2, -z+1/2, y'
'x+1/2, -z+1/2, -y'
'x+1/2, z+1/2, y'
'-x+1/2, z+1/2, -y'
'-z+1/2, -y+1/2, x'
'-z+1/2, y+1/2, -x'
'z+1/2, -y+1/2, -x'
'z+1/2, y+1/2, x'
loop_
_atom_site_label
_atom_site_type_symbol
_atom_site_fract_x
_atom_site_fract_y
_atom_site_fract_z
_atom_site_U_iso_or_equiv
_atom_site_adp_type
_atom_site_occupancy
_atom_site_site_symmetry_order
_atom_site_calc_flag
_atom_site_refinement_flags_posn
_atom_site_refinement_flags_adp
_atom_site_refinement_flags_occupancy
_atom_site_disorder_assembly
_atom_site_disorder_group
Np1 Np 0.57973(2) 0.5000 0.5000 0.0422(3) Uani 1 8 d S T P . .
O2 O 0.5373(3) 0.5373(3) 0.4627(3) 0.086(6) Uani 1 6 d S T P A .
O1 O 0.6116(3) 0.5638(3) 0.5000 0.104(3) Uani 1 2 d S T P A .
C1 C 0.5984(4) 0.5984(4) 0.5000 0.114(8) Uiso 1 4 d DS T P . .
O3W O 0.6654(19) 0.5000 0.5000 0.29(3) Uani 1 8 d S T P A 2
C2 C 0.6304(4) 0.6304(4) 0.5000 0.100 Uiso 1 4 d DS T P A .
C4 C 0.6463(4) 0.7017(4) 0.5000 0.100 Uiso 1 2 d DS T P A .
C5 C 0.6870(5) 0.6870(5) 0.5000 0.100 Uiso 0.5 4 d DS T P A .
C6 C 0.7190(5) 0.7190(5) 0.5000 0.100 Uiso 0.5 4 d DS T P . .
C3 C 0.6169(4) 0.6709(4) 0.5000 0.100 Uiso 1 2 d DS T P . .
C8 C 0.7322(8) 0.7322(8) 0.5377(9) 0.100 Uiso 0.21(2) 2 d DS T P B 2
C7 C 0.7090(12) 0.7591(6) 0.5000 0.100 Uiso 0.29(2) 2 d DS T P B 1
loop_
_atom_site_aniso_label
_atom_site_aniso_U_11
_atom_site_aniso_U_22
_atom_site_aniso_U_33
_atom_site_aniso_U_23
_atom_site_aniso_U_13
_atom_site_aniso_U_12
Np1 0.0192(4) 0.0537(4) 0.0537(4) 0.000 0.000 0.000
O2 0.086(6) 0.086(6) 0.086(6) -0.044(6) -0.044(6) 0.044(6)
O1 0.060(5) 0.103(8) 0.150(10) 0.000 0.000 -0.049(5)
O3W 0.42(8) 0.22(3) 0.22(3) 0.000 0.000 0.000
loop_
_atom_type_symbol
_atom_type_description
_atom_type_scat_dispersion_real
_atom_type_scat_dispersion_imag
_atom_type_scat_source
C C 0.0033 0.0016 'International Tables Vol C Tables 4.2.6.8 and 6.1.1.4'
Np Np -11.4937 4.1493 'International Tables Vol C Tables 4.2.6.8 and 6.1.1.4'
O O 0.0106 0.0060 'International Tables Vol C Tables 4.2.6.8 and 6.1.1.4'
loop_
_geom_angle_atom_site_label_1
_geom_angle_atom_site_label_2
_geom_angle_atom_site_label_3
_geom_angle
_geom_angle_site_symmetry_1
_geom_angle_site_symmetry_3
Np1 Np1 Np1 60.0 101_666 9
Np1 Np1 Np1 90.0 105_666 9
Np1 Np1 Np1 60.0 105_666 101_666
O2 Np1 Np1 33.6(2) 98_556 9
O2 Np1 Np1 33.6(2) 4_566 101_666
O2 Np1 Np1 87.0(4) . 101_666
O2 Np1 Np1 87.0(4) 98_556 105_666
O2 Np1 Np1 87.0(4) 99_565 9
O2 Np1 Np1 33.6(2) 99_565 101_666
O2 Np1 Np1 33.6(2) . 105_666
O2 Np1 Np1 87.0(4) 98_556 101_666
O2 Np1 Np1 33.6(2) 99_565 105_666
O2 Np1 Np1 87.0(4) . 9
O2 Np1 Np1 87.0(4) 4_566 105_666
O2 Np1 Np1 33.6(2) 4_566 9
O2 Np1 O2 102.5(9) . 4_566
O2 Np1 O2 66.9(5) . 99_565
O2 Np1 O2 102.5(9) 99_565 98_556
O2 Np1 O2 66.9(5) 99_565 4_566
O2 Np1 O2 66.9(5) . 98_556
O2 Np1 O2 66.9(5) 4_566 98_556
O2 Np1 O1 140.63(14) 98_556 99_565
O2 Np1 O1 140.63(14) 99_565 115
O2 Np1 O1 77.7(4) 99_565 99_565
O2 Np1 O1 140.63(14) . 99_565
O2 Np1 O1 77.7(4) 98_556 115
O2 Np1 O1 77.7(4) . 17_556
O2 Np1 O1 140.63(14) . 115
O2 Np1 O1 77.7(4) . .
O2 Np1 O1 77.7(4) 4_566 115
O2 Np1 O1 140.63(14) 99_565 .
O2 Np1 O1 77.7(4) 4_566 99_565
O2 Np1 O1 140.63(14) 4_566 .
O2 Np1 O1 140.63(14) 4_566 17_556
O2 Np1 O1 77.7(4) 98_556 .
O2 Np1 O1 140.63(14) 98_556 17_556
O2 Np1 O1 77.7(4) 99_565 17_556
O2 Np1 O3W 128.8(5) 4_566 .
O2 Np1 O3W 128.8(5) 99_565 .
O2 Np1 O3W 128.8(5) 98_556 .
O2 Np1 O3W 128.8(5) . .
O1 Np1 Np1 71.5(3) 99_565 101_666
O1 Np1 Np1 161.5(3) 115 105_666
O1 Np1 Np1 108.42(18) 99_565 9
O1 Np1 Np1 108.42(18) . 105_666
O1 Np1 Np1 71.5(3) 115 9
O1 Np1 Np1 71.5(3) 17_556 105_666
O1 Np1 Np1 108.42(18) . 9
O1 Np1 Np1 108.42(18) 99_565 105_666
O1 Np1 Np1 161.5(3) 17_556 9
O1 Np1 Np1 161.5(3) . 101_666
O1 Np1 Np1 108.42(18) 115 101_666
O1 Np1 Np1 108.42(18) 17_556 101_666
O1 Np1 O1 78.5(2) . 115
O1 Np1 O1 78.5(2) 17_556 99_565
O1 Np1 O1 78.5(2) . 17_556
O1 Np1 O1 126.9(5) . 99_565
O1 Np1 O1 78.5(2) 115 99_565
O1 Np1 O1 126.9(5) 115 17_556
O1 Np1 O3W 63.5(3) . .
O1 Np1 O3W 63.5(3) 99_565 .
O1 Np1 O3W 63.5(3) 115 .
O1 Np1 O3W 63.5(3) 17_556 .
O3W Np1 Np1 135.001(3) . 101_666
O3W Np1 Np1 135.0 . 9
O3W Np1 Np1 135.001(1) . 105_666
Np1 O2 Np1 112.7(4) 105_666 5
Np1 O2 Np1 112.7(4) 105_666 .
Np1 O2 Np1 112.7(4) 5 .
C1 O1 Np1 132.6(10) . .
O1 C1 O1 131.8(18) 13_556 .
O1 C1 C2 114.1(9) . .
O1 C1 C2 114.1(9) 13_556 .
C3 C2 C1 116.6(9) 13_556 .
C3 C2 C1 116.6(9) . .
C3 C2 C3 126.8(18) . 13_556
C3 C4 C5 113.7(16) . .
C4 C5 C4 129.8(19) . 13_556
C4 C5 C6 115.1(10) . .
C4 C5 C6 115.1(10) 13_556 .
C8 C6 C5 116.3(18) . .
C8 C6 C5 116.3(18) 98_556 .
C8 C6 C8 127(4) 98_556 .
C7 C6 C5 120.9(17) . .
C7 C6 C5 120.9(17) 13_556 .
C7 C6 C7 118(3) . 13_556
C4 C3 C2 118.0(15) . .
C6 C8 C8 116.3(19) . 74_665
C6 C7 C7 120.9(17) . 181_665
loop_
_geom_bond_atom_site_label_1
_geom_bond_atom_site_label_2
_geom_bond_distance
_geom_bond_site_symmetry_2
Np1 Np1 3.7650(8) 9
Np1 Np1 3.7650(8) 105_666
Np1 Np1 3.7650(8) 101_666
Np1 O2 2.261(5) 99_565
Np1 O2 2.261(5) .
Np1 O2 2.261(5) 4_566
Np1 O2 2.261(5) 98_556
Np1 O1 2.382(9) 115
Np1 O1 2.382(9) 99_565
Np1 O1 2.382(9) .
Np1 O1 2.382(9) 17_556
Np1 O3W 2.86(6) .
O2 Np1 2.261(5) 5
O2 Np1 2.261(5) 105_666
O1 C1 1.237(13) .
C1 O1 1.236(13) 13_556
C1 C2 1.511(16) .
C2 C3 1.425(12) 13_556
C2 C3 1.425(12) .
C4 C5 1.446(12) .
C4 C3 1.421(14) .
C5 C4 1.446(12) 13_556
C5 C6 1.512(17) .
C6 C8 1.406(18) .
C6 C8 1.406(18) 98_556
C6 C7 1.380(18) 13_556
C6 C7 1.380(18) .
C8 C8 1.68(7) 74_665
C7 C7 1.51(7) 181_665
loop_
_geom_torsion_atom_site_label_1
_geom_torsion_atom_site_label_2
_geom_torsion_atom_site_label_3
_geom_torsion_atom_site_label_4
_geom_torsion
_geom_torsion_site_symmetry_1
_geom_torsion_site_symmetry_4
Np1 O1 C1 O1 0.0 . 13_556
Np1 O1 C1 C2 180.0 . .
O1 C1 C2 C3 180.0 13_556 13_556
O1 C1 C2 C3 180.0 . .
O1 C1 C2 C3 0.0 . 13_556
O1 C1 C2 C3 0.0 13_556 .
C1 C2 C3 C4 180.0 . .
C4 C5 C6 C8 -90.000(3) 13_556 .
C4 C5 C6 C8 90.000(3) . .
C4 C5 C6 C8 90.000(2) 13_556 98_556
C4 C5 C6 C8 -90.000(2) . 98_556
C4 C5 C6 C7 180.0 13_556 .
C4 C5 C6 C7 0.0 13_556 13_556
C4 C5 C6 C7 0.0 . .
C4 C5 C6 C7 180.0 . 13_556
C5 C4 C3 C2 0.0 . .
C5 C6 C8 C8 180.000(5) . 74_665
C5 C6 C7 C7 180.0 . 181_665
C3 C2 C3 C4 0.0 13_556 .
C3 C4 C5 C4 0.0 . 13_556
C3 C4 C5 C6 180.0 . .
C8 C6 C8 C8 0.000(4) 98_556 74_665
C7 C6 C7 C7 0.0 13_556 181_665
