#------------------------------------------------------------------------------
#$Date: 2018-02-28 05:06:44 +0200 (Wed, 28 Feb 2018) $
#$Revision: 206679 $
#$URL: file:///home/coder/svn-repositories/cod/cif/7/12/13/7121341.cif $
#------------------------------------------------------------------------------
#
# This file is available in the Crystallography Open Database (COD),
# http://www.crystallography.net/
#
# All data on this site have been placed in the public domain by the
# contributors.
#
data_7121341
loop_
_publ_author_name
'Zhou, Mi'
'Ju, Zhanfeng'
'Yuan, Daqiang'
_publ_section_title
;
 A new metal-organic framework constructed from cationic nodes and
 cationic linkers for highly efficient anion exchange
;
_journal_name_full               'Chemical Communications'
_journal_paper_doi               10.1039/C8CC01225C
_journal_year                    2018
_chemical_formula_sum            'C15 H14 Cu In0.5 N3 O6.67'
_chemical_formula_weight         463.91
_space_group_crystal_system      hexagonal
_space_group_IT_number           194
_space_group_name_Hall           '-P 6c 2c'
_space_group_name_H-M_alt        'P 63/m m c'
_symmetry_space_group_name_Hall  '-P 6c 2c'
_symmetry_space_group_name_H-M   'P 63/m m c'
_atom_sites_solution_hydrogens   geom
_audit_creation_method           SHELXL-2017/1
_audit_update_record
;
2018-02-06 deposited with the CCDC.
2018-02-27 downloaded from the CCDC.
;
_cell_angle_alpha                90
_cell_angle_beta                 90
_cell_angle_gamma                120
_cell_formula_units_Z            12
_cell_length_a                   22.8847(5)
_cell_length_b                   22.8847(5)
_cell_length_c                   30.1026(6)
_cell_measurement_reflns_used    9951
_cell_measurement_temperature    293(2)
_cell_measurement_theta_max      73.2080
_cell_measurement_theta_min      3.6600
_cell_volume                     13652.9(5)
_computing_cell_refinement       'CrysAlisPro 1.171.39.6a (Rigaku OD, 2015)'
_computing_data_collection       'CrysAlisPro 1.171.39.6a (Rigaku OD, 2015)'
_computing_data_reduction        'CrysAlisPro 1.171.39.6a (Rigaku OD, 2015)'
_computing_structure_refinement  'SHELXL-2017/1 (Sheldrick, 2017)'
_computing_structure_solution    'SHELXT 2014/5 (Sheldrick, 2014)'
_diffrn_ambient_temperature      293(2)
_diffrn_detector_area_resol_mean 10.5594
_diffrn_measured_fraction_theta_full 0.996
_diffrn_measured_fraction_theta_max 0.988
_diffrn_measurement_device_type  'SuperNova, Dual, Cu at home/near, Atlas'
_diffrn_radiation_type           CuK\a
_diffrn_radiation_wavelength     1.54184
_diffrn_reflns_av_R_equivalents  0.1001
_diffrn_reflns_av_unetI/netI     0.0520
_diffrn_reflns_Laue_measured_fraction_full 0.996
_diffrn_reflns_Laue_measured_fraction_max 0.988
_diffrn_reflns_limit_h_max       22
_diffrn_reflns_limit_h_min       -28
_diffrn_reflns_limit_k_max       26
_diffrn_reflns_limit_k_min       -28
_diffrn_reflns_limit_l_max       21
_diffrn_reflns_limit_l_min       -36
_diffrn_reflns_number            31829
_diffrn_reflns_point_group_measured_fraction_full 0.996
_diffrn_reflns_point_group_measured_fraction_max 0.988
_diffrn_reflns_theta_full        67.684
_diffrn_reflns_theta_max         73.424
_diffrn_reflns_theta_min         4.462
_diffrn_source                   'micro-focus sealed X-ray tube'
_exptl_absorpt_coefficient_mu    2.801
_exptl_absorpt_correction_T_max  1.00000
_exptl_absorpt_correction_T_min  0.04628
_exptl_absorpt_correction_type   multi-scan
_exptl_absorpt_process_details
;
CrysAlisPro 1.171.39.6a (Rigaku Oxford Diffraction, 2015)
Empirical absorption correction using spherical harmonics,
 implemented in SCALE3 ABSPACK scaling algorithm.
;
_exptl_crystal_colour            black
_exptl_crystal_density_diffrn    0.677
_exptl_crystal_description       block
_exptl_crystal_F_000             2782
_exptl_crystal_size_max          0.22
_exptl_crystal_size_mid          0.11
_exptl_crystal_size_min          0.09
_refine_diff_density_max         1.002
_refine_diff_density_min         -0.831
_refine_diff_density_rms         0.076
_refine_ls_extinction_method     none
_refine_ls_goodness_of_fit_ref   1.037
_refine_ls_hydrogen_treatment    constr
_refine_ls_matrix_type           full
_refine_ls_number_parameters     201
_refine_ls_number_reflns         4987
_refine_ls_number_restraints     162
_refine_ls_restrained_S_all      1.216
_refine_ls_R_factor_all          0.0712
_refine_ls_R_factor_gt           0.0604
_refine_ls_shift/su_max          0.003
_refine_ls_shift/su_mean         0.000
_refine_ls_structure_factor_coef Fsqd
_refine_ls_weighting_details
'w=1/[\s^2^(Fo^2^)+(0.1385P)^2^+1.7929P] where P=(Fo^2^+2Fc^2^)/3'
_refine_ls_weighting_scheme      calc
_refine_ls_wR_factor_gt          0.1780
_refine_ls_wR_factor_ref         0.1948
_reflns_Friedel_coverage         0.000
_reflns_number_gt                3962
_reflns_number_total             4987
_reflns_threshold_expression     'I > 2\s(I)'
_cod_data_source_file            c8cc01225c2.cif
_cod_data_source_block           rac-FJI-Y6
_cod_original_cell_volume        13652.9(7)
_cod_original_formula_sum        'C15 H14 Cu In0.50 N3 O6.67'
_cod_database_code               7121341
_shelx_shelxl_version_number     2017/1
_shelx_space_group_comment
;
The symmetry employed for this shelxl refinement is uniquely defined
by the following loop, which should always be used as a source of
symmetry information in preference to the above space-group names.
They are only intended as comments.
;
_shelx_res_file
;
TITL F:\ZM2017~2\struct\tmp\zm20171218Inw_a.res in P6(3)/mmc
    E:\MEASUR~1\xrd\201712~1.18\Inwxx\InMOF-w\b.res
    created by SHELXL-2017/1 at 22:28:04 on 09-Jan-2018
CELL 1.54184 22.8847 22.8847 30.1026 90.000 90.000 120.000
ZERR 12.0000 0.0005 0.0005 0.0006 0.000 0.000 0.000
LATT 1
SYMM X-Y, X, 0.5+Z
SYMM -Y, X-Y, Z
SYMM -X, -Y, 0.5+Z
SYMM -X+Y, -X, Z
SYMM Y, -X+Y, 0.5+Z
SYMM X-Y, -Y, -Z
SYMM -X, -X+Y, -Z
SYMM Y, X, -Z
SYMM -Y, -X, 0.5-Z
SYMM -X+Y, Y, 0.5-Z
SYMM X, X-Y, 0.5-Z
SFAC C H N O CU IN
UNIT 180 168 36 80.0004 12 6
BOND $H
ISOR 0.005 $C $N $O Cu1
ABIN
EQIV $1 Y,X,1-Z
EQIV $2 1-X,1-Y,1-Z
FREE C9 C16_$1
FREE C9 C15_$1
FREE C10 C16_$1
FREE C10 C14_$1
FREE C11 C15_$1
FREE C10 C15_$1
FREE C10 C13_$1
FREE C11 C14_$1
FREE C11 C15_$2
FREE C12 C15_$1
FREE O5 C11_$1
FREE O4 C14_$1
FREE C12 C13_$1
FREE N2 C12_$1
FREE N1 C13_$1
FREE N1 N2_$1
FREE Cu1 N1_$1
FREE C1 N1_$1
FREE C6 N2_$1
FREE Cu1 N2_$1
FREE Cu1 Cu1_$1
FREE Cu1 O4_$1
FREE O4 O5_$1
FREE Cu1 O4_$2
FREE C1 C6_$1
FREE C2 C5_$1
FREE C3 C4_$1
FREE C3 C5_$1
FREE C1 C5_$1
FREE C2 C4_$1
FREE C4 C4_$1
FREE C2 C6_$1
FREE C6 C6_$1
FREE C10 C14_$2
FREE H9 C16_$1
FREE C12 N2_$1
FREE H12 C13_$1
FREE C13 C12_$1
FREE C13 N1_$1
FREE C13 C10_$1
FREE C12 H13_$1
FREE H12 H13_$1
FREE C16 C9_$1
FREE C16 C10_$1
FREE H9 H16_$1
FREE C9 H16_$1
FREE C6 C1_$1
FREE C6 C2_$1
FREE C1 H6_$1
FREE C6 H6_$1
FREE H1 H6_$1
FREE C4 C3_$1
FREE C4 C2_$1
FREE C5 C2_$1
FREE C5 C1_$1
FREE C5 C3_$1
FREE H2B H5B_$1
FREE H3A H4A_$1
FREE H3A H4B_$1
FREE H3B H4B_$1
FREE H3A C4_$1
FREE C3 H4B_$1
FREE C4 H4B_$1
FREE C3 H4A_$1
FREE H2B H5A_$1
FREE H2B C5_$1
FREE C2 H6_$1
FREE O4 O5_$2
FREE O4 C14_$2
FREE O5 C11_$2
FREE H2A H5B_$1
FREE C2 H5B_$1
OMIT -1   6   5
OMIT -1   4   5
OMIT 0   1   2
OMIT -9  18   2
OMIT -2   4   2
OMIT 0   4   6
OMIT 0   3   5
OMIT -1   2   0
OMIT -2 5 0
OMIT 0 2 1
ACTA
FMAP 2 1 53
PLAN 20 0 0
LIST 4 1
L.S. 20 0 73
WGHT    0.138500    1.792900
FVAR       0.19745
AFIX   9
C1    1    0.326602    0.318232    0.464790    10.50000    0.20400    0.20099 =
         0.20657    0.00694   -0.00683    0.10010
AFIX  13
H1    2    0.345137    0.294143    0.448423    10.50000   -1.20000
AFIX   5
C2    1    0.253209    0.283283    0.452781    10.50000    0.07646    0.07806 =
         0.08642    0.02153   -0.02255    0.01898
AFIX  23
H2A   2    0.248667    0.287571    0.421087    10.50000   -1.20000
H2B   2    0.231741    0.304877    0.468096    10.50000   -1.20000
AFIX   5
C3    1    0.218347    0.209980    0.465041    10.50000    0.23272    0.23205 =
         0.23164    0.00146   -0.00536    0.11301
AFIX  23
H3A   2    0.170470    0.189693    0.458956    10.50000   -1.20000
H3B   2    0.235896    0.187206    0.446886    10.50000   -1.20000
AFIX   5
C4    1    0.228330    0.200369    0.513112    10.50000    0.09168    0.08020 =
         0.09302    0.02723   -0.02198    0.02069
AFIX  23
H4A   2    0.208129    0.152543    0.519350    10.50000   -1.20000
H4B   2    0.205680    0.218035    0.531284    10.50000   -1.20000
AFIX   5
C5    1    0.301723    0.235378    0.525090    10.50000    0.13310    0.13376 =
         0.13640    0.00759   -0.00517    0.06065
AFIX  23
H5A   2    0.306290    0.231070    0.556779    10.50000   -1.20000
H5B   2    0.323208    0.213819    0.509753    10.50000   -1.20000
AFIX   5
C6    1    0.336545    0.308650    0.512870    10.50000    0.07512    0.07642 =
         0.07705    0.02421   -0.02978    0.01373
AFIX  13
H6    2    0.313894    0.328282    0.529710    10.50000   -1.20000
AFIX   0
IN1   6    0.717938    0.435875    0.750000    10.25000    0.05387    0.05412 =
         0.03546    0.00000    0.00000    0.02706
CU1   5    0.453028    0.421678    0.484533    10.50000    0.11530    0.10700 =
         0.15015    0.07150   -0.08084   -0.01318
O1    4    0.771628    0.543256    0.750000    10.25000    0.09617    0.05664 =
         0.08385    0.00000    0.00000    0.02832
O2    4    0.666667    0.333333    0.750000    10.08333    0.05286    0.05286 =
         0.04609    0.00000    0.00000    0.02643
O3    4    0.655202    0.442670    0.699096    11.00000    0.08317    0.07387 =
         0.06986    0.00942   -0.02032    0.03830
O4    4    0.532941    0.467059    0.518580    10.25000    0.10111    0.10111 =
         0.09953    0.03439   -0.03439    0.03039
O5    4    0.499144    0.500856    0.450503    10.25000    0.09874    0.09874 =
         0.10040    0.03343   -0.03343    0.03060
O6    4    0.854373    0.618472    0.833685    11.00000    0.33478    0.33506 =
         0.33855    0.01565    0.06765    0.20992
O7    4    0.812441    0.624881    0.891851    10.50000    0.26388    0.29243 =
         0.22991   -0.02821   -0.01410    0.14621
N1    3    0.408444    0.348308    0.524534    10.50000    0.09444    0.08928 =
         0.08589    0.02994   -0.02046    0.03140
N2    3    0.370439    0.388968    0.454056    10.50000    0.09446    0.08390 =
         0.09394    0.02750   -0.02989    0.02606
N3    3    0.809238    0.618476    0.852181    10.50000    0.19279    0.21061 =
         0.20187    0.00336    0.00168    0.10531
C7    1    0.597744    0.402256    0.684112    10.50000    0.07511    0.07511 =
         0.06208    0.00944   -0.00944    0.03981
C8    1    0.575664    0.424336    0.644748    10.50000    0.09207    0.09207 =
         0.08528    0.02361   -0.02361    0.04039
C9    1    0.519906    0.376600    0.619661    10.50000    0.07266    0.06874 =
         0.06968    0.01070   -0.01379    0.03311
AFIX  43
H9    2    0.493789    0.333241    0.630982    10.50000   -1.20000
AFIX   0
C10   1    0.502123    0.392053    0.577954    10.50000    0.08196    0.07881 =
         0.08049    0.01272   -0.01672    0.03503
C11   1    0.546963    0.453037    0.558296    10.25000    0.09012    0.09012 =
         0.08043    0.01695   -0.01695    0.04085
C12   1    0.434838    0.342439    0.561368    10.50000    0.09146    0.08617 =
         0.08237    0.01756   -0.02080    0.03231
AFIX  43
H12   2    0.409259    0.304042    0.578452    10.50000   -1.20000
AFIX   0
C13   1    0.360771    0.417897    0.420426    10.50000    0.09107    0.09399 =
         0.08903    0.01692   -0.02609    0.03633
AFIX  43
H13   2    0.319701    0.393887    0.405717    10.50000   -1.20000
AFIX   0
C14   1    0.473534    0.526466    0.421854    10.25000    0.09259    0.09259 =
         0.08914    0.01674   -0.01674    0.03957
C15   1    0.407761    0.484172    0.403405    10.50000    0.08104    0.08342 =
         0.07732    0.01642   -0.01987    0.03339
C16   1    0.389850    0.508146    0.367423    10.50000    0.07904    0.07877 =
         0.07452    0.00758   -0.01264    0.03747
AFIX  43
H16   2    0.353093    0.478018    0.350422    10.50000   -1.20000
AFIX   0
HKLF 4




REM  F:\ZM2017~2\struct\tmp\zm20171218Inw_a.res in P6(3)/mmc
REM R1 =  0.0604 for    3962 Fo > 4sig(Fo)  and  0.0712 for all    4987 data
REM    201 parameters refined using    162 restraints

END

WGHT      0.1385      1.7929

REM Highest difference peak  1.002,  deepest hole -0.831,  1-sigma level  0.076
Q1    1   0.3526  0.2876  0.4979  11.00000  0.05    0.65
Q2    1   0.4913  0.4275  0.4670  11.00000  0.05    0.60
Q3    1   0.4408  0.4408  0.5000  10.50000  0.05    0.54
Q4    1   0.2464  0.1831  0.4976  11.00000  0.05    0.50
Q5    1   0.5523  0.4477  0.4987  10.50000  0.05    0.48
Q6    1   0.4831  0.5169  0.4632  10.50000  0.05    0.45
Q7    1   0.5212  0.4788  0.4345  10.50000  0.05    0.44
Q8    1   0.7951  0.5902  0.8976  10.50000  0.05    0.37
Q9    1   0.2737  0.2696  0.4331  11.00000  0.05    0.36
Q10   1   0.4346  0.3322  0.5031  11.00000  0.05    0.33
Q11   1   0.5639  0.4361  0.5395  10.50000  0.05    0.32
Q12   1   0.8305  0.5962  0.8195  11.00000  0.05    0.30
Q13   1   0.3937  0.3713  0.4362  11.00000  0.05    0.28
Q14   1   0.4907  0.5093  0.4004  10.50000  0.05    0.28
Q15   1   0.7142  0.3571  0.7153  10.50000  0.05    0.27
Q16   1   0.7150  0.4300  0.6708  10.50000  0.05    0.26
Q17   1   0.8580  0.6781  0.8738  11.00000  0.05    0.26
Q18   1   0.5565  0.4435  0.6613  10.50000  0.05    0.24
Q19   1   0.5169  0.3773  0.5590  11.00000  0.05    0.22
Q20   1   0.4541  0.3175  0.5373  11.00000  0.05    0.21
;
_shelx_res_checksum              32011
_shelx_fab_file
;
   -1    2    0     95.89      0.00
    0    2    0     25.89      0.00
   -1    3    0     25.46      0.00
    0    3    0     54.50      0.00
   -2    4    0     -3.48      0.00
   -1    4    0    -59.63      0.00
    0    4    0     15.86      0.00
   -2    5    0    -13.71      0.00
   -1    5    0     -3.18      0.00
    0    5    0      7.68      0.00
   -3    6    0     71.73      0.00
   -2    6    0    -45.98      0.00
   -1    6    0      3.74      0.00
    0    6    0     20.34      0.00
   -3    7    0     17.02      0.00
   -2    7    0      2.09      0.00
   -1    7    0      0.04      0.00
    0    7    0    -14.68      0.00
   -4    8    0     -0.71      0.00
   -3    8    0    -15.26      0.00
   -2    8    0     16.51      0.00
   -1    8    0    -13.78      0.00
    0    8    0     21.84      0.00
   -4    9    0     12.57      0.00
   -3    9    0     -3.22      0.00
   -2    9    0     -3.72      0.00
   -1    9    0    -10.16      0.00
    0    9    0     -2.10      0.00
   -5   10    0     16.90      0.00
   -4   10    0    -10.86      0.00
   -3   10    0      5.19      0.00
   -2   10    0      0.10      0.00
   -1   10    0      2.86      0.00
    0   10    0      7.13      0.00
   -5   11    0     14.93      0.00
   -4   11    0      5.41      0.00
   -3   11    0      0.58      0.00
   -2   11    0      2.96      0.00
   -1   11    0     -0.33      0.00
    0   11    0     -1.00      0.00
   -6   12    0      9.27      0.00
   -5   12    0      5.29      0.00
   -4   12    0     -2.65      0.00
   -3   12    0      1.92      0.00
   -2   12    0      0.21      0.00
   -1   12    0     -0.44      0.00
    0   12    0     -1.72      0.00
   -6   13    0      0.68      0.00
   -5   13    0      2.90      0.00
   -4   13    0      5.55      0.00
   -3   13    0      2.68      0.00
   -2   13    0     -0.60      0.00
   -1   13    0      4.40      0.00
    0   13    0     -1.82      0.00
   -7   14    0      2.83      0.00
   -6   14    0      4.03      0.00
   -5   14    0      3.35      0.00
   -4   14    0     -2.91      0.00
   -3   14    0      0.33      0.00
   -2   14    0      0.16      0.00
   -1   14    0      4.13      0.00
    0   14    0      7.02      0.00
   -7   15    0      3.39      0.00
   -6   15    0      3.76      0.00
   -5   15    0      1.43      0.00
   -4   15    0      4.12      0.00
   -3   15    0      2.23      0.00
   -2   15    0      1.24      0.00
   -1   15    0      0.50      0.00
    0   15    0     -0.24      0.00
   -8   16    0      8.65      0.00
   -7   16    0     -1.41      0.00
   -6   16    0     -3.42      0.00
   -5   16    0      1.63      0.00
   -4   16    0     -0.62      0.00
   -3   16    0      2.09      0.00
   -2   16    0      1.87      0.00
   -1   16    0      0.43      0.00
    0   16    0      2.95      0.00
   -8   17    0     -1.68      0.00
   -7   17    0      2.05      0.00
   -6   17    0     -0.69      0.00
   -5   17    0      0.88      0.00
   -4   17    0     -0.20      0.00
   -3   17    0      1.30      0.00
   -2   17    0      1.68      0.00
   -1   17    0     -1.56      0.00
    0   17    0      4.68      0.00
   -9   18    0      0.03      0.00
   -8   18    0      2.40      0.00
   -7   18    0      2.12      0.00
   -6   18    0      0.61      0.00
   -5   18    0      1.42      0.00
   -4   18    0      0.45      0.00
   -3   18    0      1.56      0.00
   -2   18    0      2.45      0.00
   -1   18    0      0.69      0.00
    0   18    0      1.86      0.00
   -9   19    0     -0.63      0.00
   -8   19    0      0.91      0.00
   -7   19    0      0.98      0.00
   -6   19    0      0.32      0.00
   -5   19    0      3.61      0.00
   -4   19    0     -0.46      0.00
   -3   19    0      3.24      0.00
   -2   19    0     -0.24      0.00
   -1   19    0      0.65      0.00
    0   19    0      2.33      0.00
  -10   20    0     12.10      0.00
   -9   20    0      2.72      0.00
   -8   20    0      0.14      0.00
   -7   20    0      0.46      0.00
   -6   20    0     -0.22      0.00
   -5   20    0      3.36      0.00
   -4   20    0      1.46      0.00
   -3   20    0      2.48      0.00
   -2   20    0     -0.71      0.00
   -1   20    0     -0.46      0.00
    0   20    0     -1.22      0.00
  -10   21    0     -0.94      0.00
   -9   21    0      0.38      0.00
   -8   21    0      1.30      0.00
   -7   21    0      2.03      0.00
   -6   21    0      0.98      0.00
   -5   21    0     -0.71      0.00
   -4   21    0      2.07      0.00
   -3   21    0     -0.55      0.00
   -2   21    0      1.50      0.00
   -1   21    0      0.30      0.00
    0   21    0     -1.13      0.00
  -11   22    0      1.73      0.00
  -10   22    0     -0.61      0.00
   -9   22    0      1.38      0.00
   -8   22    0     -1.45      0.00
   -7   22    0      1.40      0.00
   -6   22    0     -0.65      0.00
   -5   22    0      0.27      0.00
   -4   22    0     -1.57      0.00
   -3   22    0     -1.27      0.00
   -2   22    0      1.82      0.00
   -1   22    0     -1.81      0.00
    0   22    0      0.83      0.00
  -11   23    0     -0.55      0.00
  -10   23    0     -0.08      0.00
   -9   23    0     -6.69      0.00
   -8   23    0     -0.84      0.00
   -7   23    0      0.75      0.00
   -6   23    0      2.06      0.00
   -5   23    0     -0.33      0.00
   -4   23    0     -1.29      0.00
   -3   23    0     -2.53      0.00
   -2   23    0      1.50      0.00
   -1   23    0     -1.60      0.00
    0   23    0     -0.87      0.00
  -12   24    0      2.40      0.00
  -11   24    0     -0.73      0.00
  -10   24    0      0.63      0.00
   -9   24    0     -3.12      0.00
   -8   24    0     -4.58      0.00
   -7   24    0      0.01      0.00
   -6   24    0     -0.82      0.00
   -5   24    0      0.93      0.00
   -4   24    0     -0.18      0.00
   -3   24    0      0.84      0.00
   -2   24    0      2.56      0.00
   -1   24    0      1.09      0.00
    0   24    0     -0.78      0.00
  -12   25    0      0.90      0.00
  -11   25    0      0.51      0.00
  -10   25    0     -2.77      0.00
   -9   25    0      0.83      0.00
   -8   25    0      0.26      0.00
   -7   25    0     -0.04      0.00
   -6   25    0     -1.32      0.00
   -5   25    0      0.52      0.00
   -4   25    0      0.35      0.00
   -3   25    0      0.94      0.00
   -2   25    0      0.31      0.00
  -13   26    0      2.81      0.00
  -12   26    0     -2.99      0.00
  -11   26    0      0.24      0.00
  -10   26    0     -0.90      0.00
   -9   26    0     -0.01      0.00
   -8   26    0      1.29      0.00
   -7   26    0      0.65      0.00
   -6   26    0     -0.07      0.00
   -5   26    0      1.61      0.00
   -4   26    0      2.22      0.00
  -13   27    0      2.94      0.00
  -12   27    0      0.26      0.00
  -11   27    0      2.03      0.00
  -10   27    0      0.87      0.00
   -9   27    0      0.53      0.00
   -8   27    0      0.63      0.00
   -7   27    0      0.46      0.00
   -6   27    0     -0.63      0.00
  -14   28    0     -0.22      0.00
  -13   28    0     -1.17      0.00
  -12   28    0     -2.05      0.00
  -11   28    0     -1.01      0.00
  -10   28    0     -0.42      0.00
    0    2    1    -87.64      0.00
   -1    3    1     53.71      0.00
    0    3    1     -3.90      0.00
   -1    4    1     -8.99      0.00
    0    4    1     56.44      0.00
   -2    5    1      2.25      0.00
   -1    5    1    -23.83      0.00
    0    5    1      9.79      0.00
   -2    6    1      2.42      0.00
   -1    6    1    -15.37      0.00
    0    6    1      3.59      0.00
   -3    7    1     18.14      0.00
   -2    7    1      7.57      0.00
   -1    7    1     -3.42      0.00
    0    7    1      7.68      0.00
   -3    8    1     -4.33      0.00
   -2    8    1      2.98      0.00
   -1    8    1    -13.64      0.00
    0    8    1      3.32      0.00
   -4    9    1     -2.77      0.00
   -3    9    1      4.83      0.00
   -2    9    1      3.49      0.00
   -1    9    1      2.67      0.00
    0    9    1      3.97      0.00
   -4   10    1     -0.62      0.00
   -3   10    1     -2.27      0.00
   -2   10    1     -0.39      0.00
   -1   10    1     -1.96      0.00
    0   10    1     -5.53      0.00
   -5   11    1      0.01      0.00
   -4   11    1      3.81      0.00
   -3   11    1      1.90      0.00
   -2   11    1      0.59      0.00
   -1   11    1     -0.73      0.00
    0   11    1      2.03      0.00
   -5   12    1      0.57      0.00
   -4   12    1      0.86      0.00
   -3   12    1     -0.56      0.00
   -2   12    1     -3.43      0.00
   -1   12    1     -0.65      0.00
    0   12    1      0.53      0.00
   -6   13    1      0.83      0.00
   -5   13    1      0.17      0.00
   -4   13    1     -1.57      0.00
   -3   13    1     -2.16      0.00
   -2   13    1      1.73      0.00
   -1   13    1      0.82      0.00
    0   13    1      1.09      0.00
   -6   14    1     -0.21      0.00
   -5   14    1      0.48      0.00
   -4   14    1     -0.42      0.00
   -3   14    1     -1.00      0.00
   -2   14    1     -0.71      0.00
   -1   14    1      0.38      0.00
    0   14    1      1.85      0.00
   -7   15    1      0.07      0.00
   -6   15    1     -0.39      0.00
   -5   15    1     -0.60      0.00
   -4   15    1     -0.40      0.00
   -3   15    1      0.68      0.00
   -2   15    1      1.91      0.00
   -1   15    1      1.35      0.00
    0   15    1     -0.38      0.00
   -7   16    1     -0.30      0.00
   -6   16    1      0.18      0.00
   -5   16    1      1.32      0.00
   -4   16    1     -1.43      0.00
   -3   16    1      0.74      0.00
   -2   16    1     -0.10      0.00
   -1   16    1      1.48      0.00
    0   16    1      1.54      0.00
   -8   17    1     -1.00      0.00
   -7   17    1      0.09      0.00
   -6   17    1     -0.11      0.00
   -5   17    1     -1.05      0.00
   -4   17    1     -0.98      0.00
   -3   17    1      0.11      0.00
   -2   17    1      1.00      0.00
   -1   17    1     -0.34      0.00
    0   17    1      0.63      0.00
   -8   18    1      0.41      0.00
   -7   18    1     -0.05      0.00
   -6   18    1     -0.58      0.00
   -5   18    1      0.04      0.00
   -4   18    1     -1.93      0.00
   -3   18    1     -0.34      0.00
   -2   18    1      0.24      0.00
   -1   18    1     -0.89      0.00
    0   18    1     -0.85      0.00
   -9   19    1     -0.84      0.00
   -8   19    1     -0.61      0.00
   -7   19    1     -0.24      0.00
   -6   19    1      1.58      0.00
   -5   19    1     -0.26      0.00
   -4   19    1     -0.35      0.00
   -3   19    1     -0.71      0.00
   -2   19    1      1.45      0.00
   -1   19    1     -0.51      0.00
    0   19    1      2.15      0.00
   -9   20    1     -1.10      0.00
   -8   20    1      2.09      0.00
   -7   20    1     -0.70      0.00
   -6   20    1     -0.75      0.00
   -5   20    1     -3.36      0.00
   -4   20    1      0.11      0.00
   -3   20    1      1.93      0.00
   -2   20    1     -0.06      0.00
   -1   20    1     -2.37      0.00
    0   20    1     -1.32      0.00
  -10   21    1     -0.91      0.00
   -9   21    1     -0.98      0.00
   -8   21    1      1.65      0.00
   -7   21    1      1.25      0.00
   -6   21    1     -2.16      0.00
   -5   21    1     -1.29      0.00
   -4   21    1     -0.11      0.00
   -3   21    1      0.19      0.00
   -2   21    1     -1.29      0.00
   -1   21    1     -0.90      0.00
    0   21    1      1.34      0.00
  -10   22    1     -0.59      0.00
   -9   22    1      1.97      0.00
   -8   22    1      1.88      0.00
   -7   22    1      1.09      0.00
   -6   22    1      0.60      0.00
   -5   22    1      1.85      0.00
   -4   22    1      2.64      0.00
   -3   22    1     -2.73      0.00
   -2   22    1     -1.49      0.00
   -1   22    1      0.75      0.00
    0   22    1      0.83      0.00
  -11   23    1      1.93      0.00
  -10   23    1      1.88      0.00
   -9   23    1     -0.39      0.00
   -8   23    1     -1.08      0.00
   -7   23    1     -2.20      0.00
   -6   23    1      0.48      0.00
   -5   23    1      1.17      0.00
   -4   23    1      0.36      0.00
   -3   23    1      1.50      0.00
   -2   23    1     -2.45      0.00
   -1   23    1      2.32      0.00
    0   23    1     -3.91      0.00
  -11   24    1     -0.51      0.00
  -10   24    1      0.96      0.00
   -9   24    1     -0.01      0.00
   -8   24    1     -0.45      0.00
   -7   24    1      0.30      0.00
   -6   24    1      0.49      0.00
   -5   24    1      1.34      0.00
   -4   24    1      0.83      0.00
   -3   24    1      0.16      0.00
   -2   24    1     -1.45      0.00
   -1   24    1      0.75      0.00
    0   24    1     -0.89      0.00
  -12   25    1      0.92      0.00
  -11   25    1      0.79      0.00
  -10   25    1      1.76      0.00
   -9   25    1      2.05      0.00
   -8   25    1      1.71      0.00
   -7   25    1     -0.26      0.00
   -6   25    1     -0.21      0.00
   -5   25    1      0.91      0.00
   -4   25    1     -0.08      0.00
   -3   25    1      1.25      0.00
   -2   25    1     -1.26      0.00
  -12   26    1     -0.51      0.00
  -11   26    1     -0.37      0.00
  -10   26    1     -1.09      0.00
   -9   26    1     -1.27      0.00
   -8   26    1     -1.10      0.00
   -7   26    1      1.29      0.00
   -6   26    1      2.51      0.00
   -5   26    1      0.21      0.00
   -4   26    1     -1.63      0.00
  -13   27    1     -0.27      0.00
  -12   27    1      0.53      0.00
  -11   27    1      2.12      0.00
  -10   27    1      0.69      0.00
   -9   27    1     -0.74      0.00
   -8   27    1      0.72      0.00
   -7   27    1      0.96      0.00
   -6   27    1      0.81      0.00
  -13   28    1     -1.92      0.00
  -12   28    1      0.36      0.00
  -11   28    1      0.58      0.00
  -10   28    1     -1.49      0.00
    0    1    2   -112.71      0.00
   -1    2    2    236.85      0.00
    0    2    2   -106.96      0.00
   -1    3    2     95.81      0.00
    0    3    2    -83.92      0.00
   -2    4    2     33.02      0.00
   -1    4    2     12.10      0.00
    0    4    2     35.29      0.00
   -2    5    2     -4.15      0.00
   -1    5    2     37.40      0.00
    0    5    2    -22.23      0.00
   -3    6    2     28.44      0.00
   -2    6    2    -11.72      0.00
   -1    6    2     13.19      0.00
    0    6    2    -12.77      0.00
   -3    7    2     14.94      0.00
   -2    7    2     -3.09      0.00
   -1    7    2     11.07      0.00
    0    7    2    -10.69      0.00
   -4    8    2      5.16      0.00
   -3    8    2    -12.56      0.00
   -2    8    2     15.30      0.00
   -1    8    2     -7.14      0.00
    0    8    2     17.89      0.00
   -4    9    2     12.04      0.00
   -3    9    2     -1.87      0.00
   -2    9    2      5.65      0.00
   -1    9    2     -7.71      0.00
    0    9    2     -1.28      0.00
   -5   10    2      3.36      0.00
   -4   10    2     -7.26      0.00
   -3   10    2      5.23      0.00
   -2   10    2     -0.04      0.00
   -1   10    2      0.98      0.00
    0   10    2      1.14      0.00
   -5   11    2     -3.82      0.00
   -4   11    2      4.64      0.00
   -3   11    2     -0.28      0.00
   -2   11    2     -0.20      0.00
   -1   11    2     -0.81      0.00
    0   11    2      1.82      0.00
   -6   12    2      1.76      0.00
   -5   12    2      2.49      0.00
   -4   12    2      1.25      0.00
   -3   12    2     -0.64      0.00
   -2   12    2      2.26      0.00
   -1   12    2      2.11      0.00
    0   12    2      0.71      0.00
   -6   13    2      0.51      0.00
   -5   13    2     -1.50      0.00
   -4   13    2      3.65      0.00
   -3   13    2      0.83      0.00
   -2   13    2      1.88      0.00
   -1   13    2      3.87      0.00
    0   13    2     -2.51      0.00
   -7   14    2      1.22      0.00
   -6   14    2      2.80      0.00
   -5   14    2     -1.15      0.00
   -4   14    2      2.45      0.00
   -3   14    2     -1.71      0.00
   -2   14    2      1.55      0.00
   -1   14    2      1.61      0.00
    0   14    2      0.40      0.00
   -7   15    2     -5.18      0.00
   -6   15    2      1.79      0.00
   -5   15    2      0.10      0.00
   -4   15    2      3.53      0.00
   -3   15    2      1.55      0.00
   -2   15    2      0.60      0.00
   -1   15    2      2.03      0.00
    0   15    2     -1.42      0.00
   -8   16    2      2.50      0.00
   -7   16    2      1.63      0.00
   -6   16    2      1.31      0.00
   -5   16    2     -0.33      0.00
   -4   16    2      1.62      0.00
   -3   16    2      0.88      0.00
   -2   16    2      0.03      0.00
   -1   16    2      1.92      0.00
    0   16    2      0.48      0.00
   -8   17    2     -0.50      0.00
   -7   17    2      3.01      0.00
   -6   17    2      1.33      0.00
   -5   17    2      0.83      0.00
   -4   17    2      0.56      0.00
   -3   17    2      0.01      0.00
   -2   17    2      0.39      0.00
   -1   17    2      0.85      0.00
    0   17    2     -0.02      0.00
   -9   18    2      1.42      0.00
   -8   18    2      0.41      0.00
   -7   18    2      0.56      0.00
   -6   18    2      0.57      0.00
   -5   18    2      1.59      0.00
   -4   18    2     -0.40      0.00
   -3   18    2      0.18      0.00
   -2   18    2      0.98      0.00
   -1   18    2      0.45      0.00
    0   18    2      1.59      0.00
   -9   19    2      0.79      0.00
   -8   19    2     -0.39      0.00
   -7   19    2      0.47      0.00
   -6   19    2     -0.47      0.00
   -5   19    2      1.58      0.00
   -4   19    2      0.87      0.00
   -3   19    2      0.67      0.00
   -2   19    2      1.06      0.00
   -1   19    2      0.78      0.00
    0   19    2      1.40      0.00
  -10   20    2     -3.40      0.00
   -9   20    2     -1.65      0.00
   -8   20    2     -0.61      0.00
   -7   20    2      0.12      0.00
   -6   20    2      0.93      0.00
   -5   20    2      0.00      0.00
   -4   20    2      0.95      0.00
   -3   20    2      1.91      0.00
   -2   20    2     -0.08      0.00
   -1   20    2      0.28      0.00
    0   20    2     -1.34      0.00
  -10   21    2     -1.31      0.00
   -9   21    2      1.67      0.00
   -8   21    2     -0.12      0.00
   -7   21    2     -0.01      0.00
   -6   21    2      0.07      0.00
   -5   21    2      0.02      0.00
   -4   21    2      2.12      0.00
   -3   21    2      0.14      0.00
   -2   21    2      0.64      0.00
   -1   21    2      0.51      0.00
    0   21    2      0.14      0.00
  -11   22    2      3.59      0.00
  -10   22    2     -0.79      0.00
   -9   22    2      1.09      0.00
   -8   22    2      0.55      0.00
   -7   22    2     -1.00      0.00
   -6   22    2      0.18      0.00
   -5   22    2     -2.97      0.00
   -4   22    2      2.42      0.00
   -3   22    2     -0.45      0.00
   -2   22    2      0.33      0.00
   -1   22    2     -0.77      0.00
    0   22    2     -0.21      0.00
  -11   23    2      0.28      0.00
  -10   23    2      0.42      0.00
   -9   23    2      0.09      0.00
   -8   23    2      2.94      0.00
   -7   23    2      0.32      0.00
   -6   23    2      0.06      0.00
   -5   23    2      0.19      0.00
   -4   23    2      0.05      0.00
   -3   23    2      2.19      0.00
   -2   23    2     -1.87      0.00
   -1   23    2      0.03      0.00
    0   23    2      1.68      0.00
  -12   24    2      0.84      0.00
  -11   24    2     -1.22      0.00
  -10   24    2      1.82      0.00
   -9   24    2      1.84      0.00
   -8   24    2      0.16      0.00
   -7   24    2     -1.64      0.00
   -6   24    2      0.93      0.00
   -5   24    2      0.20      0.00
   -4   24    2      0.54      0.00
   -3   24    2     -0.63      0.00
   -2   24    2     -3.51      0.00
   -1   24    2     -0.02      0.00
    0   24    2     -1.46      0.00
  -12   25    2      0.83      0.00
  -11   25    2     -0.75      0.00
  -10   25    2     -3.37      0.00
   -9   25    2      1.19      0.00
   -8   25    2     -1.83      0.00
   -7   25    2     -0.14      0.00
   -6   25    2     -0.54      0.00
   -5   25    2     -0.43      0.00
   -4   25    2     -0.23      0.00
   -3   25    2      0.30      0.00
   -2   25    2     -0.33      0.00
  -13   26    2     -1.79      0.00
  -12   26    2     -1.83      0.00
  -11   26    2      0.94      0.00
  -10   26    2      0.58      0.00
   -9   26    2     -0.32      0.00
   -8   26    2     -1.21      0.00
   -7   26    2     -0.47      0.00
   -6   26    2     -1.73      0.00
   -5   26    2     -0.71      0.00
   -4   26    2     -0.37      0.00
  -13   27    2     -0.99      0.00
  -12   27    2      0.67      0.00
  -11   27    2     -3.37      0.00
  -10   27    2     -2.29      0.00
   -9   27    2     -2.13      0.00
   -8   27    2     -0.04      0.00
   -7   27    2     -0.91      0.00
   -6   27    2      1.63      0.00
  -14   28    2     -0.31      0.00
  -13   28    2      0.86      0.00
  -12   28    2      0.62      0.00
  -11   28    2      0.14      0.00
  -10   28    2      1.03      0.00
    0    1    3    -62.45      0.00
    0    2    3   -135.36      0.00
   -1    3    3    101.47      0.00
    0    3    3    -49.27      0.00
   -1    4    3     13.74      0.00
    0    4    3     10.46      0.00
   -2    5    3      8.66      0.00
   -1    5    3     -7.61      0.00
    0    5    3     22.15      0.00
   -2    6    3    -16.22      0.00
   -1    6    3     -3.06      0.00
    0    6    3    -17.72      0.00
   -3    7    3      6.50      0.00
   -2    7    3      8.99      0.00
   -1    7    3      3.21      0.00
    0    7    3     -3.18      0.00
   -3    8    3    -16.98      0.00
   -2    8    3      3.65      0.00
   -1    8    3    -16.98      0.00
    0    8    3      0.98      0.00
   -4    9    3     -3.06      0.00
   -3    9    3      0.80      0.00
   -2    9    3     -1.30      0.00
   -1    9    3      6.44      0.00
    0    9    3     -7.95      0.00
   -4   10    3     -0.85      0.00
   -3   10    3     -4.23      0.00
   -2   10    3     -0.45      0.00
   -1   10    3      0.62      0.00
    0   10    3     -0.30      0.00
   -5   11    3     -1.68      0.00
   -4   11    3      2.68      0.00
   -3   11    3      3.88      0.00
   -2   11    3     -6.67      0.00
   -1   11    3      6.20      0.00
    0   11    3      0.22      0.00
   -5   12    3      0.71      0.00
   -4   12    3      1.58      0.00
   -3   12    3     -1.12      0.00
   -2   12    3     -0.81      0.00
   -1   12    3     -2.01      0.00
    0   12    3     -0.38      0.00
   -6   13    3      3.78      0.00
   -5   13    3     -3.46      0.00
   -4   13    3     -3.25      0.00
   -3   13    3     -0.42      0.00
   -2   13    3      2.32      0.00
   -1   13    3      5.03      0.00
    0   13    3      1.52      0.00
   -6   14    3     -1.40      0.00
   -5   14    3      2.66      0.00
   -4   14    3      2.86      0.00
   -3   14    3     -1.09      0.00
   -2   14    3     -0.17      0.00
   -1   14    3     -1.78      0.00
    0   14    3     -0.71      0.00
   -7   15    3     -1.79      0.00
   -6   15    3     -1.01      0.00
   -5   15    3     -1.63      0.00
   -4   15    3      0.06      0.00
   -3   15    3      1.79      0.00
   -2   15    3      2.62      0.00
   -1   15    3     -0.19      0.00
    0   15    3      0.74      0.00
   -7   16    3      2.72      0.00
   -6   16    3     -0.31      0.00
   -5   16    3      0.32      0.00
   -4   16    3     -0.09      0.00
   -3   16    3     -1.84      0.00
   -2   16    3      0.47      0.00
   -1   16    3      0.95      0.00
    0   16    3      2.38      0.00
   -8   17    3      0.86      0.00
   -7   17    3     -0.16      0.00
   -6   17    3     -0.96      0.00
   -5   17    3      0.49      0.00
   -4   17    3     -1.69      0.00
   -3   17    3      1.34      0.00
   -2   17    3      0.17      0.00
   -1   17    3     -0.57      0.00
    0   17    3     -1.11      0.00
   -8   18    3     -0.81      0.00
   -7   18    3      2.90      0.00
   -6   18    3     -0.56      0.00
   -5   18    3     -0.33      0.00
   -4   18    3      1.38      0.00
   -3   18    3      0.46      0.00
   -2   18    3      0.26      0.00
   -1   18    3     -1.02      0.00
    0   18    3     -0.08      0.00
   -9   19    3      0.02      0.00
   -8   19    3      0.27      0.00
   -7   19    3     -1.60      0.00
   -6   19    3     -2.65      0.00
   -5   19    3     -0.87      0.00
   -4   19    3      0.95      0.00
   -3   19    3     -1.88      0.00
   -2   19    3     -2.81      0.00
   -1   19    3      1.29      0.00
    0   19    3     -0.77      0.00
   -9   20    3      1.46      0.00
   -8   20    3      3.06      0.00
   -7   20    3     -0.46      0.00
   -6   20    3     -0.24      0.00
   -5   20    3     -0.49      0.00
   -4   20    3      0.10      0.00
   -3   20    3     -1.17      0.00
   -2   20    3     -0.30      0.00
   -1   20    3      2.69      0.00
    0   20    3      0.21      0.00
  -10   21    3      0.34      0.00
   -9   21    3      0.52      0.00
   -8   21    3     -1.30      0.00
   -7   21    3     -0.39      0.00
   -6   21    3     -0.12      0.00
   -5   21    3     -0.10      0.00
   -4   21    3      0.71      0.00
   -3   21    3     -0.42      0.00
   -2   21    3      2.46      0.00
   -1   21    3      0.19      0.00
    0   21    3      0.04      0.00
  -10   22    3     -0.56      0.00
   -9   22    3      0.06      0.00
   -8   22    3      1.58      0.00
   -7   22    3     -0.72      0.00
   -6   22    3      1.15      0.00
   -5   22    3     -1.19      0.00
   -4   22    3     -1.84      0.00
   -3   22    3      0.24      0.00
   -2   22    3      1.71      0.00
   -1   22    3      1.40      0.00
    0   22    3     -1.63      0.00
  -11   23    3      1.60      0.00
  -10   23    3     -0.95      0.00
   -9   23    3     -1.02      0.00
   -8   23    3     -1.53      0.00
   -7   23    3      2.09      0.00
   -6   23    3      0.96      0.00
   -5   23    3     -0.99      0.00
   -4   23    3      0.66      0.00
   -3   23    3     -1.08      0.00
   -2   23    3      2.06      0.00
   -1   23    3     -1.65      0.00
    0   23    3      1.67      0.00
  -11   24    3     -0.08      0.00
  -10   24    3      0.29      0.00
   -9   24    3      3.13      0.00
   -8   24    3      0.50      0.00
   -7   24    3     -0.74      0.00
   -6   24    3     -0.97      0.00
   -5   24    3      0.27      0.00
   -4   24    3     -0.84      0.00
   -3   24    3      1.02      0.00
   -2   24    3      1.26      0.00
   -1   24    3      1.76      0.00
    0   24    3     -0.15      0.00
  -12   25    3      0.12      0.00
  -11   25    3      0.58      0.00
  -10   25    3     -0.95      0.00
   -9   25    3     -2.18      0.00
   -8   25    3      0.27      0.00
   -7   25    3      0.79      0.00
   -6   25    3     -0.24      0.00
   -5   25    3      0.05      0.00
   -4   25    3      0.02      0.00
   -3   25    3     -2.58      0.00
   -2   25    3      1.74      0.00
  -12   26    3      0.40      0.00
  -11   26    3     -0.17      0.00
  -10   26    3      0.45      0.00
   -9   26    3      0.16      0.00
   -8   26    3      0.53      0.00
   -7   26    3      0.48      0.00
   -6   26    3      0.67      0.00
   -5   26    3     -0.87      0.00
   -4   26    3      0.53      0.00
  -13   27    3      0.80      0.00
  -12   27    3      1.39      0.00
  -11   27    3     -1.17      0.00
  -10   27    3     -2.43      0.00
   -9   27    3      0.15      0.00
   -8   27    3      1.07      0.00
   -7   27    3      0.30      0.00
  -13   28    3     -1.05      0.00
  -12   28    3     -0.55      0.00
  -11   28    3     -2.83      0.00
    0    0    4    -54.65      0.00
    0    1    4    -91.75      0.00
   -1    2    4     -2.38      0.00
    0    2    4     35.23      0.00
   -1    3    4     57.71      0.00
    0    3    4     30.24      0.00
   -2    4    4      2.08      0.00
   -1    4    4      9.53      0.00
    0    4    4     82.67      0.00
   -2    5    4     38.10      0.00
   -1    5    4    -11.99      0.00
    0    5    4     57.49      0.00
   -3    6    4     12.03      0.00
   -2    6    4      5.78      0.00
   -1    6    4     -6.67      0.00
    0    6    4    -30.71      0.00
   -3    7    4     -5.39      0.00
   -2    7    4     -2.12      0.00
   -1    7    4     11.81      0.00
    0    7    4      1.01      0.00
   -4    8    4    -10.10      0.00
   -3    8    4     -2.60      0.00
   -2    8    4      7.34      0.00
   -1    8    4      3.35      0.00
    0    8    4      9.08      0.00
   -4    9    4      3.70      0.00
   -3    9    4     -3.20      0.00
   -2    9    4      6.01      0.00
   -1    9    4     -4.38      0.00
    0    9    4      0.09      0.00
   -5   10    4      0.43      0.00
   -4   10    4      3.82      0.00
   -3   10    4      3.02      0.00
   -2   10    4      2.50      0.00
   -1   10    4      0.47      0.00
    0   10    4     -1.88      0.00
   -5   11    4     -3.16      0.00
   -4   11    4      3.09      0.00
   -3   11    4      3.02      0.00
   -2   11    4     -1.66      0.00
   -1   11    4     -3.69      0.00
    0   11    4      1.58      0.00
   -6   12    4      2.74      0.00
   -5   12    4     -1.32      0.00
   -4   12    4     -1.57      0.00
   -3   12    4      1.82      0.00
   -2   12    4     -0.01      0.00
   -1   12    4      3.63      0.00
    0   12    4      0.34      0.00
   -6   13    4      2.49      0.00
   -5   13    4     -0.09      0.00
   -4   13    4      0.80      0.00
   -3   13    4      2.41      0.00
   -2   13    4      0.86      0.00
   -1   13    4      0.44      0.00
    0   13    4     -0.86      0.00
   -7   14    4     -0.55      0.00
   -6   14    4      0.37      0.00
   -5   14    4      3.03      0.00
   -4   14    4     -0.30      0.00
   -3   14    4      2.04      0.00
   -2   14    4     -0.87      0.00
   -1   14    4      0.19      0.00
    0   14    4      0.61      0.00
   -7   15    4      2.11      0.00
   -6   15    4      3.77      0.00
   -5   15    4      0.54      0.00
   -4   15    4      0.05      0.00
   -3   15    4     -0.34      0.00
   -2   15    4     -0.96      0.00
   -1   15    4      0.87      0.00
    0   15    4      1.01      0.00
   -8   16    4      2.10      0.00
   -7   16    4     -0.71      0.00
   -6   16    4      0.35      0.00
   -5   16    4      0.61      0.00
   -4   16    4      0.12      0.00
   -3   16    4      1.45      0.00
   -2   16    4      0.84      0.00
   -1   16    4      0.85      0.00
    0   16    4      0.93      0.00
   -8   17    4      0.04      0.00
   -7   17    4      1.04      0.00
   -6   17    4      0.52      0.00
   -5   17    4      0.99      0.00
   -4   17    4      0.68      0.00
   -3   17    4      1.88      0.00
   -2   17    4      3.63      0.00
   -1   17    4      0.83      0.00
    0   17    4      1.58      0.00
   -9   18    4     -4.45      0.00
   -8   18    4      0.64      0.00
   -7   18    4      0.28      0.00
   -6   18    4      0.72      0.00
   -5   18    4      2.37      0.00
   -4   18    4     -0.11      0.00
   -3   18    4      1.80      0.00
   -2   18    4      0.82      0.00
   -1   18    4      0.57      0.00
    0   18    4      2.13      0.00
   -9   19    4      0.72      0.00
   -8   19    4      1.40      0.00
   -7   19    4      1.35      0.00
   -6   19    4      1.05      0.00
   -5   19    4      1.37      0.00
   -4   19    4     -0.50      0.00
   -3   19    4      0.13      0.00
   -2   19    4      0.55      0.00
   -1   19    4     -0.24      0.00
    0   19    4      0.95      0.00
  -10   20    4     -0.65      0.00
   -9   20    4      1.39      0.00
   -8   20    4      0.36      0.00
   -7   20    4      0.46      0.00
   -6   20    4      1.01      0.00
   -5   20    4     -0.39      0.00
   -4   20    4      1.60      0.00
   -3   20    4      1.27      0.00
   -2   20    4     -0.45      0.00
   -1   20    4      1.30      0.00
    0   20    4      1.03      0.00
  -10   21    4     -0.40      0.00
   -9   21    4      0.82      0.00
   -8   21    4      0.29      0.00
   -7   21    4      0.71      0.00
   -6   21    4      1.30      0.00
   -5   21    4      1.02      0.00
   -4   21    4     -0.93      0.00
   -3   21    4     -0.01      0.00
   -2   21    4      1.75      0.00
   -1   21    4      0.06      0.00
    0   21    4     -0.19      0.00
  -11   22    4     -1.08      0.00
  -10   22    4      0.23      0.00
   -9   22    4     -0.18      0.00
   -8   22    4     -0.64      0.00
   -7   22    4      1.34      0.00
   -6   22    4      0.65      0.00
   -5   22    4      2.96      0.00
   -4   22    4      0.56      0.00
   -3   22    4     -0.20      0.00
   -2   22    4      0.15      0.00
   -1   22    4     -0.19      0.00
    0   22    4      1.66      0.00
  -11   23    4     -0.97      0.00
  -10   23    4     -0.47      0.00
   -9   23    4      2.36      0.00
   -8   23    4     -0.87      0.00
   -7   23    4     -0.72      0.00
   -6   23    4      1.18      0.00
   -5   23    4     -0.01      0.00
   -4   23    4     -1.48      0.00
   -3   23    4     -1.85      0.00
   -2   23    4      0.49      0.00
   -1   23    4     -1.08      0.00
    0   23    4     -2.06      0.00
  -12   24    4      0.23      0.00
  -11   24    4     -0.94      0.00
  -10   24    4      0.47      0.00
   -9   24    4     -1.64      0.00
   -8   24    4      0.22      0.00
   -7   24    4     -0.29      0.00
   -6   24    4     -0.09      0.00
   -5   24    4      1.86      0.00
   -4   24    4     -0.54      0.00
   -3   24    4      1.03      0.00
   -2   24    4      1.88      0.00
   -1   24    4     -1.77      0.00
    0   24    4     -1.47      0.00
  -12   25    4     -0.62      0.00
  -11   25    4      1.13      0.00
  -10   25    4     -0.28      0.00
   -9   25    4      1.53      0.00
   -8   25    4     -0.23      0.00
   -7   25    4      0.77      0.00
   -6   25    4      0.50      0.00
   -5   25    4      0.48      0.00
   -4   25    4     -1.05      0.00
   -3   25    4     -1.51      0.00
   -2   25    4     -0.67      0.00
  -13   26    4     -0.81      0.00
  -12   26    4      1.67      0.00
  -11   26    4      0.88      0.00
  -10   26    4      0.30      0.00
   -9   26    4     -2.01      0.00
   -8   26    4      1.05      0.00
   -7   26    4     -0.71      0.00
   -6   26    4      0.94      0.00
   -5   26    4      0.06      0.00
   -4   26    4     -1.28      0.00
  -13   27    4     -0.27      0.00
  -12   27    4     -0.35      0.00
  -11   27    4     -0.10      0.00
  -10   27    4      1.26      0.00
   -9   27    4      0.96      0.00
   -8   27    4      2.11      0.00
   -7   27    4      0.90      0.00
  -14   28    4      2.56      0.00
  -13   28    4     -0.96      0.00
  -12   28    4     -1.42      0.00
  -11   28    4      1.39      0.00
    0    1    5     38.07      0.00
    0    2    5     22.24      0.00
   -1    3    5     29.35      0.00
    0    3    5     -1.64      0.00
   -1    4    5     -8.08      0.00
    0    4    5     34.77      0.00
   -2    5    5     -9.84      0.00
   -1    5    5    -35.17      0.00
    0    5    5     58.15      0.00
   -2    6    5     17.00      0.00
   -1    6    5     -4.58      0.00
    0    6    5     19.70      0.00
   -3    7    5      9.25      0.00
   -2    7    5     19.03      0.00
   -1    7    5      6.92      0.00
    0    7    5     20.92      0.00
   -3    8    5    -15.03      0.00
   -2    8    5      7.86      0.00
   -1    8    5    -12.00      0.00
    0    8    5      3.52      0.00
   -4    9    5     -2.32      0.00
   -3    9    5      5.85      0.00
   -2    9    5      5.57      0.00
   -1    9    5      1.97      0.00
    0    9    5     -2.93      0.00
   -4   10    5      3.46      0.00
   -3   10    5     -7.56      0.00
   -2   10    5     -0.95      0.00
   -1   10    5     -3.51      0.00
    0   10    5     -8.38      0.00
   -5   11    5     -4.00      0.00
   -4   11    5     -0.15      0.00
   -3   11    5     -0.49      0.00
   -2   11    5     -1.55      0.00
   -1   11    5      4.44      0.00
    0   11    5      2.44      0.00
   -5   12    5     -2.24      0.00
   -4   12    5      0.57      0.00
   -3   12    5      0.66      0.00
   -2   12    5      2.82      0.00
   -1   12    5     -0.53      0.00
    0   12    5     -1.20      0.00
   -6   13    5      2.09      0.00
   -5   13    5     -3.05      0.00
   -4   13    5     -1.44      0.00
   -3   13    5      1.89      0.00
   -2   13    5      0.06      0.00
   -1   13    5      3.26      0.00
    0   13    5     -1.61      0.00
   -6   14    5     -1.00      0.00
   -5   14    5      2.28      0.00
   -4   14    5      0.77      0.00
   -3   14    5      0.39      0.00
   -2   14    5     -2.24      0.00
   -1   14    5     -0.28      0.00
    0   14    5      4.00      0.00
   -7   15    5      0.46      0.00
   -6   15    5     -0.13      0.00
   -5   15    5     -0.66      0.00
   -4   15    5     -1.54      0.00
   -3   15    5      0.81      0.00
   -2   15    5      1.98      0.00
   -1   15    5      2.48      0.00
    0   15    5     -0.15      0.00
   -7   16    5      1.50      0.00
   -6   16    5     -1.31      0.00
   -5   16    5      0.48      0.00
   -4   16    5      0.28      0.00
   -3   16    5      1.54      0.00
   -2   16    5      0.21      0.00
   -1   16    5     -1.05      0.00
    0   16    5      0.58      0.00
   -8   17    5     -0.93      0.00
   -7   17    5      1.79      0.00
   -6   17    5     -1.10      0.00
   -5   17    5      1.61      0.00
   -4   17    5     -0.04      0.00
   -3   17    5      1.05      0.00
   -2   17    5     -1.43      0.00
   -1   17    5     -2.06      0.00
    0   17    5      0.84      0.00
   -8   18    5     -1.31      0.00
   -7   18    5     -0.33      0.00
   -6   18    5      0.74      0.00
   -5   18    5      1.10      0.00
   -4   18    5      0.09      0.00
   -3   18    5      1.05      0.00
   -2   18    5      0.02      0.00
   -1   18    5     -0.54      0.00
    0   18    5     -0.82      0.00
   -9   19    5      1.48      0.00
   -8   19    5      1.23      0.00
   -7   19    5     -0.57      0.00
   -6   19    5      2.62      0.00
   -5   19    5     -0.77      0.00
   -4   19    5      0.23      0.00
   -3   19    5     -1.54      0.00
   -2   19    5      0.71      0.00
   -1   19    5     -1.32      0.00
    0   19    5      0.21      0.00
   -9   20    5      0.53      0.00
   -8   20    5     -2.84      0.00
   -7   20    5     -0.18      0.00
   -6   20    5      0.19      0.00
   -5   20    5     -0.24      0.00
   -4   20    5      0.97      0.00
   -3   20    5      1.56      0.00
   -2   20    5      0.35      0.00
   -1   20    5     -1.44      0.00
    0   20    5     -0.60      0.00
  -10   21    5     -0.86      0.00
   -9   21    5      0.62      0.00
   -8   21    5     -0.90      0.00
   -7   21    5     -1.92      0.00
   -6   21    5      0.33      0.00
   -5   21    5     -0.72      0.00
   -4   21    5     -1.25      0.00
   -3   21    5     -0.08      0.00
   -2   21    5     -0.49      0.00
   -1   21    5      0.87      0.00
    0   21    5     -0.08      0.00
  -10   22    5     -0.29      0.00
   -9   22    5     -0.03      0.00
   -8   22    5     -0.49      0.00
   -7   22    5     -0.47      0.00
   -6   22    5      0.72      0.00
   -5   22    5      0.74      0.00
   -4   22    5      0.26      0.00
   -3   22    5     -0.82      0.00
   -2   22    5     -0.86      0.00
   -1   22    5      0.38      0.00
    0   22    5      0.19      0.00
  -11   23    5     -0.26      0.00
  -10   23    5     -0.25      0.00
   -9   23    5     -1.77      0.00
   -8   23    5     -3.17      0.00
   -7   23    5     -0.22      0.00
   -6   23    5     -0.39      0.00
   -5   23    5      1.36      0.00
   -4   23    5      0.92      0.00
   -3   23    5      1.38      0.00
   -2   23    5     -1.06      0.00
   -1   23    5      1.00      0.00
    0   23    5     -0.94      0.00
  -11   24    5      0.58      0.00
  -10   24    5      0.87      0.00
   -9   24    5      0.63      0.00
   -8   24    5     -3.82      0.00
   -7   24    5     -0.55      0.00
   -6   24    5     -0.29      0.00
   -5   24    5      1.26      0.00
   -4   24    5      1.05      0.00
   -3   24    5     -0.84      0.00
   -2   24    5     -0.19      0.00
   -1   24    5     -0.14      0.00
  -12   25    5     -0.39      0.00
  -11   25    5      0.84      0.00
  -10   25    5      1.89      0.00
   -9   25    5     -2.54      0.00
   -8   25    5      1.49      0.00
   -7   25    5     -0.12      0.00
   -6   25    5     -0.25      0.00
   -5   25    5     -0.20      0.00
   -4   25    5      0.60      0.00
   -3   25    5      3.87      0.00
   -2   25    5     -1.37      0.00
  -12   26    5     -0.50      0.00
  -11   26    5     -2.32      0.00
  -10   26    5      0.83      0.00
   -9   26    5     -0.51      0.00
   -8   26    5     -1.01      0.00
   -7   26    5     -0.21      0.00
   -6   26    5      0.01      0.00
   -5   26    5     -0.30      0.00
   -4   26    5      1.53      0.00
  -13   27    5     -0.29      0.00
  -12   27    5      0.12      0.00
  -11   27    5      2.10      0.00
  -10   27    5     -0.91      0.00
   -9   27    5      0.11      0.00
   -8   27    5     -1.57      0.00
   -7   27    5     -1.37      0.00
  -13   28    5      0.38      0.00
  -12   28    5      0.46      0.00
    0    0    6     20.77      0.00
    0    1    6     69.75      0.00
   -1    2    6    -15.40      0.00
    0    2    6    -18.58      0.00
   -1    3    6     26.31      0.00
    0    3    6     -5.01      0.00
   -2    4    6    -31.40      0.00
   -1    4    6      6.16      0.00
    0    4    6     66.00      0.00
   -2    5    6     11.76      0.00
   -1    5    6    -28.23      0.00
    0    5    6     39.13      0.00
   -3    6    6     22.02      0.00
   -2    6    6     23.63      0.00
   -1    6    6     -6.69      0.00
    0    6    6     13.90      0.00
   -3    7    6     -7.04      0.00
   -2    7    6      0.80      0.00
   -1    7    6      6.31      0.00
    0    7    6      2.97      0.00
   -4    8    6     -6.02      0.00
   -3    8    6     14.74      0.00
   -2    8    6      0.22      0.00
   -1    8    6     -0.07      0.00
    0    8    6     -5.79      0.00
   -4    9    6      0.28      0.00
   -3    9    6      0.72      0.00
   -2    9    6      0.26      0.00
   -1    9    6     -3.21      0.00
    0    9    6      6.76      0.00
   -5   10    6     -1.09      0.00
   -4   10    6      5.06      0.00
   -3   10    6     -6.41      0.00
   -2   10    6      2.04      0.00
   -1   10    6     10.77      0.00
    0   10    6      1.59      0.00
   -5   11    6     -0.63      0.00
   -4   11    6     -2.14      0.00
   -3   11    6      2.93      0.00
   -2   11    6      4.10      0.00
   -1   11    6      2.25      0.00
    0   11    6      0.18      0.00
   -6   12    6     -4.56      0.00
   -5   12    6     -0.45      0.00
   -4   12    6      2.67      0.00
   -3   12    6      1.67      0.00
   -2   12    6      0.38      0.00
   -1   12    6      0.70      0.00
    0   12    6     -4.30      0.00
   -6   13    6     -0.82      0.00
   -5   13    6      0.96      0.00
   -4   13    6     -0.30      0.00
   -3   13    6     -1.84      0.00
   -2   13    6     -0.20      0.00
   -1   13    6     -1.16      0.00
    0   13    6      2.40      0.00
   -7   14    6      1.75      0.00
   -6   14    6     -2.27      0.00
   -5   14    6      0.91      0.00
   -4   14    6      1.34      0.00
   -3   14    6     -0.12      0.00
   -2   14    6      1.31      0.00
   -1   14    6      3.05      0.00
    0   14    6     -1.40      0.00
   -7   15    6      0.05      0.00
   -6   15    6     -1.56      0.00
   -5   15    6     -0.91      0.00
   -4   15    6      0.01      0.00
   -3   15    6      1.69      0.00
   -2   15    6      0.60      0.00
   -1   15    6      0.50      0.00
    0   15    6      0.03      0.00
   -8   16    6      4.32      0.00
   -7   16    6     -0.50      0.00
   -6   16    6      0.12      0.00
   -5   16    6      0.58      0.00
   -4   16    6      2.85      0.00
   -3   16    6      1.49      0.00
   -2   16    6      0.20      0.00
   -1   16    6      0.95      0.00
    0   16    6      3.60      0.00
   -8   17    6      1.25      0.00
   -7   17    6      0.99      0.00
   -6   17    6      1.72      0.00
   -5   17    6      0.30      0.00
   -4   17    6      1.77      0.00
   -3   17    6      0.07      0.00
   -2   17    6     -0.77      0.00
   -1   17    6      0.14      0.00
    0   17    6     -4.26      0.00
   -9   18    6      0.47      0.00
   -8   18    6      1.44      0.00
   -7   18    6     -1.08      0.00
   -6   18    6     -0.06      0.00
   -5   18    6     -1.34      0.00
   -4   18    6      1.09      0.00
   -3   18    6      1.16      0.00
   -2   18    6     -0.09      0.00
   -1   18    6      0.91      0.00
    0   18    6      1.12      0.00
   -9   19    6      1.23      0.00
   -8   19    6      0.55      0.00
   -7   19    6     -1.14      0.00
   -6   19    6      0.15      0.00
   -5   19    6      0.04      0.00
   -4   19    6      0.21      0.00
   -3   19    6      0.69      0.00
   -2   19    6      0.21      0.00
   -1   19    6     -0.09      0.00
    0   19    6     -0.84      0.00
  -10   20    6     -1.71      0.00
   -9   20    6      2.33      0.00
   -8   20    6     -0.25      0.00
   -7   20    6     -0.37      0.00
   -6   20    6      0.27      0.00
   -5   20    6      0.51      0.00
   -4   20    6      0.31      0.00
   -3   20    6      0.04      0.00
   -2   20    6      0.74      0.00
   -1   20    6      0.18      0.00
    0   20    6      0.23      0.00
  -10   21    6      1.65      0.00
   -9   21    6      0.62      0.00
   -8   21    6      1.08      0.00
   -7   21    6      0.22      0.00
   -6   21    6      1.23      0.00
   -5   21    6     -1.43      0.00
   -4   21    6     -0.27      0.00
   -3   21    6      0.06      0.00
   -2   21    6      0.39      0.00
   -1   21    6      0.54      0.00
    0   21    6     -1.99      0.00
  -11   22    6      0.51      0.00
  -10   22    6      0.15      0.00
   -9   22    6      0.66      0.00
   -8   22    6     -0.15      0.00
   -7   22    6      1.70      0.00
   -6   22    6      0.69      0.00
   -5   22    6      0.20      0.00
   -4   22    6      2.34      0.00
   -3   22    6     -0.20      0.00
   -2   22    6      0.21      0.00
   -1   22    6      0.25      0.00
    0   22    6     -0.17      0.00
  -11   23    6      0.74      0.00
  -10   23    6      2.21      0.00
   -9   23    6      0.34      0.00
   -8   23    6     -0.01      0.00
   -7   23    6      0.44      0.00
   -6   23    6      1.27      0.00
   -5   23    6      0.72      0.00
   -4   23    6      1.29      0.00
   -3   23    6      1.05      0.00
   -2   23    6     -0.89      0.00
   -1   23    6      3.52      0.00
    0   23    6      0.67      0.00
  -12   24    6     -1.54      0.00
  -11   24    6     -0.57      0.00
  -10   24    6      0.62      0.00
   -9   24    6      1.04      0.00
   -8   24    6      1.53      0.00
   -7   24    6      0.95      0.00
   -6   24    6     -1.23      0.00
   -5   24    6     -1.59      0.00
   -4   24    6     -1.22      0.00
   -3   24    6     -1.00      0.00
   -2   24    6     -2.15      0.00
   -1   24    6      0.14      0.00
  -12   25    6     -0.25      0.00
  -11   25    6      0.56      0.00
  -10   25    6      0.21      0.00
   -9   25    6     -0.55      0.00
   -8   25    6      0.26      0.00
   -7   25    6     -1.11      0.00
   -6   25    6      0.22      0.00
   -5   25    6     -0.17      0.00
   -4   25    6      0.44      0.00
   -3   25    6     -1.53      0.00
   -2   25    6     -1.87      0.00
  -13   26    6     -1.54      0.00
  -12   26    6     -0.64      0.00
  -11   26    6     -1.34      0.00
  -10   26    6      1.61      0.00
   -9   26    6     -0.56      0.00
   -8   26    6      0.00      0.00
   -7   26    6      0.08      0.00
   -6   26    6     -1.23      0.00
   -5   26    6     -0.63      0.00
   -4   26    6     -0.52      0.00
  -13   27    6     -0.47      0.00
  -12   27    6      1.12      0.00
  -11   27    6     -1.98      0.00
  -10   27    6     -0.19      0.00
   -9   27    6     -1.35      0.00
   -8   27    6     -0.08      0.00
  -14   28    6     -0.23      0.00
  -13   28    6      1.55      0.00
    0    1    7     -7.94      0.00
    0    2    7     -0.79      0.00
   -1    3    7      0.33      0.00
    0    3    7    -24.57      0.00
   -1    4    7     10.83      0.00
    0    4    7    -15.86      0.00
   -2    5    7    -16.29      0.00
   -1    5    7     -9.98      0.00
    0    5    7     12.63      0.00
   -2    6    7     10.98      0.00
   -1    6    7     -8.88      0.00
    0    6    7    -14.02      0.00
   -3    7    7      3.57      0.00
   -2    7    7      4.67      0.00
   -1    7    7     -1.15      0.00
    0    7    7     -2.78      0.00
   -3    8    7     -5.03      0.00
   -2    8    7     -4.42      0.00
   -1    8    7      1.94      0.00
    0    8    7      1.26      0.00
   -4    9    7      1.71      0.00
   -3    9    7     -2.35      0.00
   -2    9    7     -4.11      0.00
   -1    9    7      7.17      0.00
    0    9    7     -3.10      0.00
   -4   10    7      0.37      0.00
   -3   10    7     -2.31      0.00
   -2   10    7     -0.80      0.00
   -1   10    7      3.22      0.00
    0   10    7     -0.93      0.00
   -5   11    7     -3.08      0.00
   -4   11    7      0.56      0.00
   -3   11    7      2.30      0.00
   -2   11    7     -6.35      0.00
   -1   11    7      3.63      0.00
    0   11    7     -3.10      0.00
   -5   12    7     -0.21      0.00
   -4   12    7      0.98      0.00
   -3   12    7     -0.56      0.00
   -2   12    7     -0.49      0.00
   -1   12    7     -0.50      0.00
    0   12    7     -0.65      0.00
   -6   13    7     -0.48      0.00
   -5   13    7     -0.87      0.00
   -4   13    7     -0.51      0.00
   -3   13    7      3.70      0.00
   -2   13    7      0.78      0.00
   -1   13    7      3.94      0.00
    0   13    7     -0.39      0.00
   -6   14    7     -0.80      0.00
   -5   14    7      2.49      0.00
   -4   14    7     -2.09      0.00
   -3   14    7      1.85      0.00
   -2   14    7      0.13      0.00
   -1   14    7      1.90      0.00
    0   14    7      0.35      0.00
   -7   15    7     -4.53      0.00
   -6   15    7      2.61      0.00
   -5   15    7     -1.60      0.00
   -4   15    7      0.73      0.00
   -3   15    7      0.54      0.00
   -2   15    7      0.16      0.00
   -1   15    7      0.93      0.00
    0   15    7     -0.74      0.00
   -7   16    7      3.37      0.00
   -6   16    7     -1.74      0.00
   -5   16    7      0.13      0.00
   -4   16    7      1.85      0.00
   -3   16    7     -0.92      0.00
   -2   16    7     -0.50      0.00
   -1   16    7     -2.16      0.00
    0   16    7     -0.42      0.00
   -8   17    7     -0.80      0.00
   -7   17    7      0.34      0.00
   -6   17    7      0.01      0.00
   -5   17    7      2.94      0.00
   -4   17    7      0.54      0.00
   -3   17    7      0.72      0.00
   -2   17    7     -0.66      0.00
   -1   17    7     -0.70      0.00
    0   17    7     -0.10      0.00
   -8   18    7     -0.86      0.00
   -7   18    7     -1.94      0.00
   -6   18    7     -0.07      0.00
   -5   18    7     -0.47      0.00
   -4   18    7     -2.30      0.00
   -3   18    7     -0.92      0.00
   -2   18    7     -0.58      0.00
   -1   18    7     -0.86      0.00
    0   18    7      0.61      0.00
   -9   19    7     -0.58      0.00
   -8   19    7      0.01      0.00
   -7   19    7     -0.01      0.00
   -6   19    7      0.41      0.00
   -5   19    7      0.50      0.00
   -4   19    7      0.40      0.00
   -3   19    7      0.50      0.00
   -2   19    7      1.25      0.00
   -1   19    7     -0.71      0.00
    0   19    7     -0.45      0.00
   -9   20    7      1.24      0.00
   -8   20    7     -0.41      0.00
   -7   20    7      0.08      0.00
   -6   20    7     -0.77      0.00
   -5   20    7      0.74      0.00
   -4   20    7     -1.57      0.00
   -3   20    7      0.51      0.00
   -2   20    7     -0.09      0.00
   -1   20    7     -2.97      0.00
    0   20    7     -0.14      0.00
  -10   21    7     -0.69      0.00
   -9   21    7      0.08      0.00
   -8   21    7      0.01      0.00
   -7   21    7      2.37      0.00
   -6   21    7      1.32      0.00
   -5   21    7      0.68      0.00
   -4   21    7      2.36      0.00
   -3   21    7     -0.15      0.00
   -2   21    7     -0.23      0.00
   -1   21    7      0.00      0.00
    0   21    7     -1.75      0.00
  -10   22    7     -0.33      0.00
   -9   22    7     -0.68      0.00
   -8   22    7      1.45      0.00
   -7   22    7     -0.35      0.00
   -6   22    7      0.15      0.00
   -5   22    7     -0.47      0.00
   -4   22    7      0.62      0.00
   -3   22    7      0.34      0.00
   -2   22    7      0.78      0.00
   -1   22    7      1.74      0.00
    0   22    7     -1.45      0.00
  -11   23    7      0.17      0.00
  -10   23    7     -0.31      0.00
   -9   23    7      0.37      0.00
   -8   23    7      2.52      0.00
   -7   23    7      1.16      0.00
   -6   23    7      1.01      0.00
   -5   23    7      0.29      0.00
   -4   23    7      0.62      0.00
   -3   23    7     -0.38      0.00
   -2   23    7      0.20      0.00
   -1   23    7     -0.32      0.00
    0   23    7      1.33      0.00
  -11   24    7      0.11      0.00
  -10   24    7     -0.17      0.00
   -9   24    7     -1.68      0.00
   -8   24    7      2.02      0.00
   -7   24    7     -1.29      0.00
   -6   24    7     -1.24      0.00
   -5   24    7      1.69      0.00
   -4   24    7      0.47      0.00
   -3   24    7     -0.28      0.00
   -2   24    7      0.92      0.00
   -1   24    7      0.92      0.00
  -12   25    7     -0.87      0.00
  -11   25    7     -3.71      0.00
  -10   25    7     -1.07      0.00
   -9   25    7     -1.44      0.00
   -8   25    7      1.78      0.00
   -7   25    7      0.19      0.00
   -6   25    7      1.13      0.00
   -5   25    7     -0.35      0.00
   -4   25    7     -0.21      0.00
   -3   25    7      0.34      0.00
   -2   25    7     -3.13      0.00
  -12   26    7     -0.01      0.00
  -11   26    7     -0.85      0.00
  -10   26    7      0.45      0.00
   -9   26    7      1.20      0.00
   -8   26    7      0.31      0.00
   -7   26    7     -0.76      0.00
   -6   26    7      0.41      0.00
   -5   26    7      0.51      0.00
  -13   27    7     -0.17      0.00
  -12   27    7     -1.61      0.00
  -11   27    7      1.15      0.00
  -10   27    7     -3.43      0.00
   -9   27    7      0.42      0.00
   -8   27    7      0.15      0.00
    0    0    8     50.80      0.00
    0    1    8     50.14      0.00
   -1    2    8      1.86      0.00
    0    2    8     -9.43      0.00
   -1    3    8      6.46      0.00
    0    3    8    -25.87      0.00
   -2    4    8     -0.18      0.00
   -1    4    8    -13.59      0.00
    0    4    8     -4.72      0.00
   -2    5    8      5.96      0.00
   -1    5    8     -4.26      0.00
    0    5    8      2.14      0.00
   -3    6    8     -5.42      0.00
   -2    6    8     18.74      0.00
   -1    6    8      2.54      0.00
    0    6    8    -14.16      0.00
   -3    7    8     -6.85      0.00
   -2    7    8      9.08      0.00
   -1    7    8      8.14      0.00
    0    7    8      3.20      0.00
   -4    8    8     11.22      0.00
   -3    8    8      2.67      0.00
   -2    8    8     -5.67      0.00
   -1    8    8     12.86      0.00
    0    8    8    -12.44      0.00
   -4    9    8     -1.53      0.00
   -3    9    8     -1.94      0.00
   -2    9    8     -1.11      0.00
   -1    9    8      3.73      0.00
    0    9    8     -0.58      0.00
   -5   10    8     -4.15      0.00
   -4   10    8      9.98      0.00
   -3   10    8     -3.38      0.00
   -2   10    8      0.13      0.00
   -1   10    8      3.65      0.00
    0   10    8     -2.73      0.00
   -5   11    8      1.62      0.00
   -4   11    8     -1.45      0.00
   -3   11    8      1.22      0.00
   -2   11    8     -1.67      0.00
   -1   11    8      1.33      0.00
    0   11    8      1.16      0.00
   -6   12    8      1.80      0.00
   -5   12    8      0.10      0.00
   -4   12    8      3.33      0.00
   -3   12    8      2.49      0.00
   -2   12    8     -1.28      0.00
   -1   12    8      4.23      0.00
    0   12    8      0.26      0.00
   -6   13    8      2.04      0.00
   -5   13    8      1.88      0.00
   -4   13    8     -6.00      0.00
   -3   13    8      0.48      0.00
   -2   13    8      2.54      0.00
   -1   13    8      0.62      0.00
    0   13    8      2.35      0.00
   -7   14    8     -0.36      0.00
   -6   14    8     -1.82      0.00
   -5   14    8      0.33      0.00
   -4   14    8      0.77      0.00
   -3   14    8      2.26      0.00
   -2   14    8      0.42      0.00
   -1   14    8      2.34      0.00
    0   14    8     -0.31      0.00
   -7   15    8      2.61      0.00
   -6   15    8     -1.02      0.00
   -5   15    8      1.84      0.00
   -4   15    8     -0.75      0.00
   -3   15    8      1.68      0.00
   -2   15    8      1.42      0.00
   -1   15    8     -0.41      0.00
    0   15    8      2.93      0.00
   -8   16    8      0.12      0.00
   -7   16    8     -0.04      0.00
   -6   16    8      0.00      0.00
   -5   16    8      1.36      0.00
   -4   16    8     -0.31      0.00
   -3   16    8     -0.99      0.00
   -2   16    8      0.92      0.00
   -1   16    8     -0.86      0.00
    0   16    8      1.36      0.00
   -8   17    8     -1.69      0.00
   -7   17    8      1.57      0.00
   -6   17    8     -1.12      0.00
   -5   17    8      1.02      0.00
   -4   17    8      0.45      0.00
   -3   17    8     -0.74      0.00
   -2   17    8      1.15      0.00
   -1   17    8     -2.62      0.00
    0   17    8      1.88      0.00
   -9   18    8      2.59      0.00
   -8   18    8      2.22      0.00
   -7   18    8      0.51      0.00
   -6   18    8      1.40      0.00
   -5   18    8      0.39      0.00
   -4   18    8      0.14      0.00
   -3   18    8     -0.54      0.00
   -2   18    8      0.62      0.00
   -1   18    8     -0.49      0.00
    0   18    8      1.05      0.00
   -9   19    8      0.56      0.00
   -8   19    8     -0.57      0.00
   -7   19    8      1.26      0.00
   -6   19    8      1.21      0.00
   -5   19    8      1.71      0.00
   -4   19    8     -0.92      0.00
   -3   19    8     -0.67      0.00
   -2   19    8      0.40      0.00
   -1   19    8     -1.36      0.00
    0   19    8      1.55      0.00
  -10   20    8     -0.09      0.00
   -9   20    8      2.25      0.00
   -8   20    8     -0.20      0.00
   -7   20    8      2.04      0.00
   -6   20    8     -1.37      0.00
   -5   20    8      1.48      0.00
   -4   20    8      1.10      0.00
   -3   20    8      0.77      0.00
   -2   20    8     -0.42      0.00
   -1   20    8      0.17      0.00
    0   20    8     -1.01      0.00
  -10   21    8     -0.16      0.00
   -9   21    8      0.19      0.00
   -8   21    8     -0.45      0.00
   -7   21    8      1.30      0.00
   -6   21    8      1.83      0.00
   -5   21    8      0.42      0.00
   -4   21    8      0.51      0.00
   -3   21    8     -0.71      0.00
   -2   21    8      1.53      0.00
   -1   21    8      0.63      0.00
    0   21    8      2.16      0.00
  -11   22    8     -1.07      0.00
  -10   22    8      0.74      0.00
   -9   22    8      0.55      0.00
   -8   22    8     -0.15      0.00
   -7   22    8      0.07      0.00
   -6   22    8     -1.35      0.00
   -5   22    8      1.01      0.00
   -4   22    8      1.96      0.00
   -3   22    8      0.25      0.00
   -2   22    8      0.86      0.00
   -1   22    8      0.02      0.00
    0   22    8      0.70      0.00
  -11   23    8      1.44      0.00
  -10   23    8      0.64      0.00
   -9   23    8     -1.71      0.00
   -8   23    8     -0.73      0.00
   -7   23    8      0.40      0.00
   -6   23    8     -0.29      0.00
   -5   23    8     -0.32      0.00
   -4   23    8     -0.76      0.00
   -3   23    8     -0.46      0.00
   -2   23    8      0.92      0.00
   -1   23    8     -0.94      0.00
    0   23    8      1.28      0.00
  -12   24    8      1.96      0.00
  -11   24    8     -0.61      0.00
  -10   24    8      0.10      0.00
   -9   24    8      1.87      0.00
   -8   24    8      0.80      0.00
   -7   24    8      0.32      0.00
   -6   24    8      0.96      0.00
   -5   24    8      0.35      0.00
   -4   24    8      0.51      0.00
   -3   24    8      3.05      0.00
   -2   24    8      1.99      0.00
   -1   24    8     -1.91      0.00
  -12   25    8      2.54      0.00
  -11   25    8      0.26      0.00
  -10   25    8     -2.99      0.00
   -9   25    8      0.43      0.00
   -8   25    8      1.46      0.00
   -7   25    8      0.42      0.00
   -6   25    8      0.75      0.00
   -5   25    8      1.24      0.00
   -4   25    8      0.83      0.00
   -3   25    8     -0.13      0.00
  -13   26    8     -0.08      0.00
  -12   26    8      1.07      0.00
  -11   26    8      1.32      0.00
  -10   26    8      0.59      0.00
   -9   26    8     -0.28      0.00
   -8   26    8      0.90      0.00
   -7   26    8     -0.22      0.00
   -6   26    8      0.75      0.00
   -5   26    8      0.19      0.00
  -13   27    8      0.45      0.00
  -12   27    8      1.46      0.00
  -11   27    8     -0.81      0.00
  -10   27    8      0.22      0.00
   -9   27    8      0.20      0.00
   -8   27    8      0.59      0.00
    0    1    9     -2.60      0.00
    0    2    9      8.60      0.00
   -1    3    9     -8.56      0.00
    0    3    9     21.28      0.00
   -1    4    9     10.74      0.00
    0    4    9      1.33      0.00
   -2    5    9      2.67      0.00
   -1    5    9     -0.93      0.00
    0    5    9     -2.39      0.00
   -2    6    9      2.98      0.00
   -1    6    9     -3.57      0.00
    0    6    9      8.07      0.00
   -3    7    9     -4.87      0.00
   -2    7    9     -0.98      0.00
   -1    7    9     -5.66      0.00
    0    7    9     -6.44      0.00
   -3    8    9      0.69      0.00
   -2    8    9      3.04      0.00
   -1    8    9      2.97      0.00
    0    8    9     -6.30      0.00
   -4    9    9      3.17      0.00
   -3    9    9     -1.25      0.00
   -2    9    9      1.66      0.00
   -1    9    9      0.77      0.00
    0    9    9     -0.38      0.00
   -4   10    9      0.66      0.00
   -3   10    9     -2.96      0.00
   -2   10    9     -1.08      0.00
   -1   10    9      0.78      0.00
    0   10    9      1.33      0.00
   -5   11    9     -1.56      0.00
   -4   11    9     -0.61      0.00
   -3   11    9     -0.29      0.00
   -2   11    9     -6.11      0.00
   -1   11    9      3.03      0.00
    0   11    9     -0.93      0.00
   -5   12    9     -0.74      0.00
   -4   12    9     -0.22      0.00
   -3   12    9     -0.61      0.00
   -2   12    9     -0.34      0.00
   -1   12    9      1.94      0.00
    0   12    9      2.87      0.00
   -6   13    9     -0.44      0.00
   -5   13    9     -0.40      0.00
   -4   13    9     -1.13      0.00
   -3   13    9      1.86      0.00
   -2   13    9     -0.94      0.00
   -1   13    9     -1.77      0.00
    0   13    9      1.98      0.00
   -6   14    9     -1.04      0.00
   -5   14    9      1.80      0.00
   -4   14    9     -0.55      0.00
   -3   14    9      1.91      0.00
   -2   14    9      1.12      0.00
   -1   14    9      0.74      0.00
    0   14    9     -1.34      0.00
   -7   15    9     -3.26      0.00
   -6   15    9      3.09      0.00
   -5   15    9      0.30      0.00
   -4   15    9      3.39      0.00
   -3   15    9      0.24      0.00
   -2   15    9      1.54      0.00
   -1   15    9     -0.31      0.00
    0   15    9      0.88      0.00
   -7   16    9      0.27      0.00
   -6   16    9      0.08      0.00
   -5   16    9      1.22      0.00
   -4   16    9     -1.15      0.00
   -3   16    9      0.70      0.00
   -2   16    9      0.08      0.00
   -1   16    9     -0.82      0.00
    0   16    9      6.53      0.00
   -8   17    9     -2.38      0.00
   -7   17    9      0.07      0.00
   -6   17    9      0.64      0.00
   -5   17    9     -0.36      0.00
   -4   17    9      0.20      0.00
   -3   17    9     -0.16      0.00
   -2   17    9      0.92      0.00
   -1   17    9     -0.16      0.00
    0   17    9      0.49      0.00
   -8   18    9      1.72      0.00
   -7   18    9      0.62      0.00
   -6   18    9      0.32      0.00
   -5   18    9      0.46      0.00
   -4   18    9      1.50      0.00
   -3   18    9      0.07      0.00
   -2   18    9      2.37      0.00
   -1   18    9      0.00      0.00
    0   18    9     -0.35      0.00
   -9   19    9      0.90      0.00
   -8   19    9     -0.40      0.00
   -7   19    9     -0.70      0.00
   -6   19    9      1.97      0.00
   -5   19    9     -0.46      0.00
   -4   19    9     -0.25      0.00
   -3   19    9      0.53      0.00
   -2   19    9     -1.51      0.00
   -1   19    9      1.25      0.00
    0   19    9      1.48      0.00
   -9   20    9     -0.08      0.00
   -8   20    9     -1.14      0.00
   -7   20    9      0.30      0.00
   -6   20    9     -0.47      0.00
   -5   20    9      0.11      0.00
   -4   20    9      1.45      0.00
   -3   20    9     -0.54      0.00
   -2   20    9      0.94      0.00
   -1   20    9      3.62      0.00
    0   20    9     -1.43      0.00
  -10   21    9     -0.21      0.00
   -9   21    9     -0.51      0.00
   -8   21    9      0.26      0.00
   -7   21    9     -1.16      0.00
   -6   21    9     -1.84      0.00
   -5   21    9     -0.97      0.00
   -4   21    9      0.54      0.00
   -3   21    9     -0.14      0.00
   -2   21    9     -0.52      0.00
   -1   21    9      1.23      0.00
    0   21    9      0.21      0.00
  -10   22    9     -2.83      0.00
   -9   22    9      1.03      0.00
   -8   22    9     -0.39      0.00
   -7   22    9     -0.37      0.00
   -6   22    9      0.29      0.00
   -5   22    9     -1.71      0.00
   -4   22    9      0.97      0.00
   -3   22    9     -0.05      0.00
   -2   22    9     -0.06      0.00
   -1   22    9     -0.21      0.00
    0   22    9     -1.34      0.00
  -11   23    9      0.85      0.00
  -10   23    9      1.15      0.00
   -9   23    9     -0.66      0.00
   -8   23    9      1.06      0.00
   -7   23    9     -1.37      0.00
   -6   23    9      0.03      0.00
   -5   23    9      1.66      0.00
   -4   23    9     -0.29      0.00
   -3   23    9      0.86      0.00
   -2   23    9     -1.64      0.00
   -1   23    9      0.48      0.00
    0   23    9      0.98      0.00
  -11   24    9     -0.95      0.00
  -10   24    9      0.04      0.00
   -9   24    9      0.46      0.00
   -8   24    9      2.25      0.00
   -7   24    9      1.06      0.00
   -6   24    9      0.97      0.00
   -5   24    9      2.40      0.00
   -4   24    9     -0.44      0.00
   -3   24    9      0.20      0.00
   -2   24    9     -0.98      0.00
   -1   24    9     -2.36      0.00
  -12   25    9      0.03      0.00
  -11   25    9      0.80      0.00
  -10   25    9      3.00      0.00
   -9   25    9     -0.89      0.00
   -8   25    9      1.06      0.00
   -7   25    9      1.07      0.00
   -6   25    9      0.51      0.00
   -5   25    9      0.11      0.00
   -4   25    9     -1.15      0.00
   -3   25    9      1.97      0.00
  -12   26    9      0.13      0.00
  -11   26    9     -1.40      0.00
  -10   26    9     -0.27      0.00
   -9   26    9      3.38      0.00
   -8   26    9     -0.36      0.00
   -7   26    9      0.61      0.00
   -6   26    9      0.39      0.00
  -13   27    9      2.27      0.00
  -12   27    9      1.43      0.00
  -11   27    9      2.07      0.00
  -10   27    9      0.32      0.00
   -9   27    9      0.84      0.00
    0    0   10    -38.81      0.00
    0    1   10     -1.90      0.00
   -1    2   10     10.73      0.00
    0    2   10     -2.10      0.00
   -1    3   10      7.07      0.00
    0    3   10     17.26      0.00
   -2    4   10     16.66      0.00
   -1    4   10     -7.71      0.00
    0    4   10      5.92      0.00
   -2    5   10     -3.54      0.00
   -1    5   10     -5.01      0.00
    0    5   10      6.23      0.00
   -3    6   10      5.29      0.00
   -2    6   10      7.48      0.00
   -1    6   10     -3.58      0.00
    0    6   10     -1.88      0.00
   -3    7   10     -0.82      0.00
   -2    7   10      2.48      0.00
   -1    7   10     -0.61      0.00
    0    7   10      8.55      0.00
   -4    8   10      4.64      0.00
   -3    8   10      4.66      0.00
   -2    8   10     -2.09      0.00
   -1    8   10      3.88      0.00
    0    8   10     -7.14      0.00
   -4    9   10     -0.10      0.00
   -3    9   10      2.35      0.00
   -2    9   10     -2.13      0.00
   -1    9   10      2.55      0.00
    0    9   10      3.57      0.00
   -5   10   10     -0.25      0.00
   -4   10   10     -2.14      0.00
   -3   10   10      2.18      0.00
   -2   10   10    -10.51      0.00
   -1   10   10     -0.19      0.00
    0   10   10     -1.23      0.00
   -5   11   10      1.54      0.00
   -4   11   10      0.63      0.00
   -3   11   10      1.93      0.00
   -2   11   10     -2.83      0.00
   -1   11   10      0.65      0.00
    0   11   10     -0.64      0.00
   -6   12   10      0.18      0.00
   -5   12   10     -0.85      0.00
   -4   12   10      0.35      0.00
   -3   12   10      1.14      0.00
   -2   12   10     -2.11      0.00
   -1   12   10      1.37      0.00
    0   12   10      2.73      0.00
   -6   13   10      2.22      0.00
   -5   13   10      0.76      0.00
   -4   13   10     -5.23      0.00
   -3   13   10      1.38      0.00
   -2   13   10     -0.33      0.00
   -1   13   10      0.56      0.00
    0   13   10      3.86      0.00
   -7   14   10      0.77      0.00
   -6   14   10      0.29      0.00
   -5   14   10     -0.14      0.00
   -4   14   10      3.17      0.00
   -3   14   10     -0.91      0.00
   -2   14   10      0.26      0.00
   -1   14   10     -0.24      0.00
    0   14   10      0.59      0.00
   -7   15   10     -0.52      0.00
   -6   15   10      2.05      0.00
   -5   15   10     -0.26      0.00
   -4   15   10     -0.05      0.00
   -3   15   10     -0.90      0.00
   -2   15   10     -1.86      0.00
   -1   15   10      0.75      0.00
    0   15   10      1.45      0.00
   -8   16   10      0.01      0.00
   -7   16   10      0.17      0.00
   -6   16   10      0.93      0.00
   -5   16   10     -1.02      0.00
   -4   16   10      0.00      0.00
   -3   16   10     -1.00      0.00
   -2   16   10      0.79      0.00
   -1   16   10     -0.65      0.00
    0   16   10      1.11      0.00
   -8   17   10      0.96      0.00
   -7   17   10      0.02      0.00
   -6   17   10      0.84      0.00
   -5   17   10     -0.25      0.00
   -4   17   10      0.63      0.00
   -3   17   10      2.71      0.00
   -2   17   10      2.57      0.00
   -1   17   10     -0.52      0.00
    0   17   10     -0.87      0.00
   -9   18   10      2.80      0.00
   -8   18   10     -0.88      0.00
   -7   18   10     -0.20      0.00
   -6   18   10      1.44      0.00
   -5   18   10     -1.44      0.00
   -4   18   10      1.36      0.00
   -3   18   10     -1.62      0.00
   -2   18   10      0.59      0.00
   -1   18   10      0.20      0.00
    0   18   10     -1.13      0.00
   -9   19   10      0.43      0.00
   -8   19   10      0.59      0.00
   -7   19   10      0.20      0.00
   -6   19   10      0.92      0.00
   -5   19   10      1.00      0.00
   -4   19   10     -0.24      0.00
   -3   19   10     -1.06      0.00
   -2   19   10     -0.68      0.00
   -1   19   10      0.83      0.00
    0   19   10     -2.19      0.00
  -10   20   10     -0.75      0.00
   -9   20   10     -0.19      0.00
   -8   20   10     -0.12      0.00
   -7   20   10      0.28      0.00
   -6   20   10      0.61      0.00
   -5   20   10     -1.81      0.00
   -4   20   10      0.97      0.00
   -3   20   10     -0.17      0.00
   -2   20   10     -2.08      0.00
   -1   20   10      0.05      0.00
    0   20   10     -0.35      0.00
  -10   21   10      1.22      0.00
   -9   21   10     -1.47      0.00
   -8   21   10      1.09      0.00
   -7   21   10     -1.60      0.00
   -6   21   10     -0.04      0.00
   -5   21   10     -0.21      0.00
   -4   21   10     -0.11      0.00
   -3   21   10     -0.33      0.00
   -2   21   10     -0.72      0.00
   -1   21   10      1.34      0.00
    0   21   10     -0.73      0.00
  -11   22   10      1.25      0.00
  -10   22   10      0.48      0.00
   -9   22   10     -1.27      0.00
   -8   22   10      0.77      0.00
   -7   22   10     -0.01      0.00
   -6   22   10      0.07      0.00
   -5   22   10     -0.54      0.00
   -4   22   10      0.38      0.00
   -3   22   10      0.21      0.00
   -2   22   10     -0.02      0.00
   -1   22   10      0.07      0.00
    0   22   10     -1.02      0.00
  -11   23   10     -0.89      0.00
  -10   23   10      1.34      0.00
   -9   23   10     -1.85      0.00
   -8   23   10      1.75      0.00
   -7   23   10      0.82      0.00
   -6   23   10      0.10      0.00
   -5   23   10      0.38      0.00
   -4   23   10     -0.50      0.00
   -3   23   10      3.52      0.00
   -2   23   10      0.58      0.00
   -1   23   10      1.78      0.00
    0   23   10     -0.81      0.00
  -12   24   10     -2.57      0.00
  -11   24   10      0.12      0.00
  -10   24   10      2.76      0.00
   -9   24   10      1.46      0.00
   -8   24   10     -0.65      0.00
   -7   24   10     -0.04      0.00
   -6   24   10     -1.31      0.00
   -5   24   10     -0.65      0.00
   -4   24   10     -1.27      0.00
   -3   24   10      2.61      0.00
   -2   24   10     -2.02      0.00
   -1   24   10      5.20      0.00
  -12   25   10      1.13      0.00
  -11   25   10      0.88      0.00
  -10   25   10     -0.52      0.00
   -9   25   10      0.09      0.00
   -8   25   10     -2.28      0.00
   -7   25   10     -0.91      0.00
   -6   25   10      0.48      0.00
   -5   25   10      0.78      0.00
   -4   25   10      0.43      0.00
   -3   25   10     -0.54      0.00
  -13   26   10     -0.78      0.00
  -12   26   10      0.43      0.00
  -11   26   10     -0.37      0.00
  -10   26   10      1.01      0.00
   -9   26   10      0.79      0.00
   -8   26   10     -1.17      0.00
   -7   26   10      1.57      0.00
   -6   26   10     -3.10      0.00
  -13   27   10      1.74      0.00
  -12   27   10     -1.70      0.00
  -11   27   10      3.74      0.00
  -10   27   10      3.65      0.00
    0    1   11      3.71      0.00
    0    2   11     -5.73      0.00
   -1    3   11    -13.74      0.00
    0    3   11     11.44      0.00
   -1    4   11      2.70      0.00
    0    4   11     -3.00      0.00
   -2    5   11      1.01      0.00
   -1    5   11      2.44      0.00
    0    5   11    -12.03      0.00
   -2    6   11      1.49      0.00
   -1    6   11      6.56      0.00
    0    6   11      2.33      0.00
   -3    7   11      0.11      0.00
   -2    7   11     -5.54      0.00
   -1    7   11     -8.07      0.00
    0    7   11     -2.12      0.00
   -3    8   11      2.37      0.00
   -2    8   11      0.43      0.00
   -1    8   11      4.33      0.00
    0    8   11     -6.18      0.00
   -4    9   11     -0.03      0.00
   -3    9   11      0.27      0.00
   -2    9   11     -2.30      0.00
   -1    9   11     -0.71      0.00
    0    9   11     -2.83      0.00
   -4   10   11      1.06      0.00
   -3   10   11      7.25      0.00
   -2   10   11     -1.58      0.00
   -1   10   11      0.78      0.00
    0   10   11     -7.35      0.00
   -5   11   11      3.07      0.00
   -4   11   11      0.54      0.00
   -3   11   11      1.26      0.00
   -2   11   11      1.73      0.00
   -1   11   11     -0.20      0.00
    0   11   11     -6.58      0.00
   -5   12   11      1.16      0.00
   -4   12   11     -1.73      0.00
   -3   12   11      0.24      0.00
   -2   12   11     -0.22      0.00
   -1   12   11      2.67      0.00
    0   12   11      1.61      0.00
   -6   13   11     -1.09      0.00
   -5   13   11      2.40      0.00
   -4   13   11      1.55      0.00
   -3   13   11      1.06      0.00
   -2   13   11     -0.12      0.00
   -1   13   11     -3.39      0.00
    0   13   11      1.34      0.00
   -6   14   11     -2.24      0.00
   -5   14   11      2.30      0.00
   -4   14   11     -0.60      0.00
   -3   14   11      0.30      0.00
   -2   14   11      2.70      0.00
   -1   14   11     -1.56      0.00
    0   14   11      3.03      0.00
   -7   15   11      0.03      0.00
   -6   15   11      0.97      0.00
   -5   15   11     -0.34      0.00
   -4   15   11      1.60      0.00
   -3   15   11     -0.50      0.00
   -2   15   11      0.76      0.00
   -1   15   11     -0.98      0.00
    0   15   11      0.73      0.00
   -7   16   11     -0.02      0.00
   -6   16   11      0.27      0.00
   -5   16   11      0.13      0.00
   -4   16   11      1.41      0.00
   -3   16   11      0.76      0.00
   -2   16   11      2.49      0.00
   -1   16   11     -1.17      0.00
    0   16   11      0.30      0.00
   -8   17   11     -5.92      0.00
   -7   17   11      0.13      0.00
   -6   17   11     -0.55      0.00
   -5   17   11      0.46      0.00
   -4   17   11     -0.70      0.00
   -3   17   11      0.28      0.00
   -2   17   11      3.02      0.00
   -1   17   11     -1.16      0.00
    0   17   11     -0.09      0.00
   -8   18   11      0.31      0.00
   -7   18   11     -0.71      0.00
   -6   18   11      0.37      0.00
   -5   18   11     -2.06      0.00
   -4   18   11     -0.29      0.00
   -3   18   11     -1.20      0.00
   -2   18   11      0.51      0.00
   -1   18   11     -0.32      0.00
    0   18   11      0.78      0.00
   -9   19   11     -0.03      0.00
   -8   19   11     -0.54      0.00
   -7   19   11      1.00      0.00
   -6   19   11      0.98      0.00
   -5   19   11      0.60      0.00
   -4   19   11      1.02      0.00
   -3   19   11     -0.08      0.00
   -2   19   11     -2.47      0.00
   -1   19   11     -0.10      0.00
    0   19   11     -1.30      0.00
   -9   20   11      1.75      0.00
   -8   20   11      0.95      0.00
   -7   20   11      0.81      0.00
   -6   20   11      0.57      0.00
   -5   20   11      1.19      0.00
   -4   20   11     -2.06      0.00
   -3   20   11     -0.18      0.00
   -2   20   11      0.57      0.00
   -1   20   11      0.90      0.00
    0   20   11     -1.27      0.00
  -10   21   11      0.83      0.00
   -9   21   11      0.98      0.00
   -8   21   11     -1.26      0.00
   -7   21   11      2.66      0.00
   -6   21   11      1.31      0.00
   -5   21   11     -0.09      0.00
   -4   21   11      2.14      0.00
   -3   21   11     -0.87      0.00
   -2   21   11     -0.01      0.00
   -1   21   11      0.15      0.00
    0   21   11     -0.49      0.00
  -10   22   11      1.68      0.00
   -9   22   11      0.36      0.00
   -8   22   11      0.63      0.00
   -7   22   11      1.05      0.00
   -6   22   11      0.41      0.00
   -5   22   11     -0.55      0.00
   -4   22   11     -1.07      0.00
   -3   22   11      0.65      0.00
   -2   22   11      2.67      0.00
   -1   22   11      0.53      0.00
    0   22   11     -1.28      0.00
  -11   23   11      0.09      0.00
  -10   23   11      1.11      0.00
   -9   23   11     -1.31      0.00
   -8   23   11     -0.18      0.00
   -7   23   11      1.05      0.00
   -6   23   11      0.91      0.00
   -5   23   11     -0.71      0.00
   -4   23   11     -0.79      0.00
   -3   23   11     -0.39      0.00
   -2   23   11     -0.78      0.00
   -1   23   11     -0.96      0.00
    0   23   11     -1.86      0.00
  -11   24   11      0.25      0.00
  -10   24   11     -1.25      0.00
   -9   24   11     -0.17      0.00
   -8   24   11      1.88      0.00
   -7   24   11     -1.03      0.00
   -6   24   11      0.43      0.00
   -5   24   11     -0.90      0.00
   -4   24   11     -0.65      0.00
   -3   24   11      1.24      0.00
   -2   24   11      2.03      0.00
  -12   25   11     -0.44      0.00
  -11   25   11      1.27      0.00
  -10   25   11      1.84      0.00
   -9   25   11     -2.23      0.00
   -8   25   11     -0.17      0.00
   -7   25   11      0.12      0.00
   -6   25   11      0.30      0.00
   -5   25   11      0.48      0.00
   -4   25   11      3.98      0.00
  -12   26   11      0.12      0.00
  -11   26   11      2.34      0.00
  -10   26   11     -0.48      0.00
   -9   26   11     -1.71      0.00
   -8   26   11      1.27      0.00
   -7   26   11      0.38      0.00
    0    0   12     -0.28      0.00
    0    1   12    -13.21      0.00
   -1    2   12      2.92      0.00
    0    2   12      1.73      0.00
   -1    3   12      2.65      0.00
    0    3   12     12.02      0.00
   -2    4   12      3.55      0.00
   -1    4   12     -0.11      0.00
    0    4   12      6.62      0.00
   -2    5   12      0.22      0.00
   -1    5   12      1.29      0.00
    0    5   12      4.12      0.00
   -3    6   12     -0.86      0.00
   -2    6   12     -3.35      0.00
   -1    6   12      0.28      0.00
    0    6   12     -2.42      0.00
   -3    7   12      0.72      0.00
   -2    7   12     -2.35      0.00
   -1    7   12     -0.26      0.00
    0    7   12     -1.57      0.00
   -4    8   12      2.25      0.00
   -3    8   12      0.19      0.00
   -2    8   12      2.46      0.00
   -1    8   12     -0.16      0.00
    0    8   12     -4.25      0.00
   -4    9   12     -0.31      0.00
   -3    9   12      2.31      0.00
   -2    9   12     -2.47      0.00
   -1    9   12      3.18      0.00
    0    9   12     -6.12      0.00
   -5   10   12      0.64      0.00
   -4   10   12      3.57      0.00
   -3   10   12      2.92      0.00
   -2   10   12      0.95      0.00
   -1   10   12      3.27      0.00
    0   10   12     -3.68      0.00
   -5   11   12     -0.53      0.00
   -4   11   12     -3.98      0.00
   -3   11   12      2.34      0.00
   -2   11   12      2.58      0.00
   -1   11   12      2.61      0.00
    0   11   12     -0.48      0.00
   -6   12   12     -0.87      0.00
   -5   12   12     -2.91      0.00
   -4   12   12      2.54      0.00
   -3   12   12     -1.02      0.00
   -2   12   12      1.65      0.00
   -1   12   12     -0.49      0.00
    0   12   12      2.20      0.00
   -6   13   12      0.32      0.00
   -5   13   12      4.00      0.00
   -4   13   12     -3.55      0.00
   -3   13   12      1.96      0.00
   -2   13   12      1.95      0.00
   -1   13   12     -0.89      0.00
    0   13   12      3.95      0.00
   -7   14   12      0.83      0.00
   -6   14   12      0.57      0.00
   -5   14   12      0.65      0.00
   -4   14   12     -1.06      0.00
   -3   14   12     -1.01      0.00
   -2   14   12      1.83      0.00
   -1   14   12     -2.50      0.00
    0   14   12      2.66      0.00
   -7   15   12     -0.51      0.00
   -6   15   12      0.55      0.00
   -5   15   12      1.00      0.00
   -4   15   12     -0.83      0.00
   -3   15   12     -0.21      0.00
   -2   15   12      2.35      0.00
   -1   15   12     -1.05      0.00
    0   15   12      2.67      0.00
   -8   16   12     -0.64      0.00
   -7   16   12      3.10      0.00
   -6   16   12      0.52      0.00
   -5   16   12      0.20      0.00
   -4   16   12      0.74      0.00
   -3   16   12      0.31      0.00
   -2   16   12     -1.34      0.00
   -1   16   12     -0.36      0.00
    0   16   12      1.08      0.00
   -8   17   12      2.21      0.00
   -7   17   12     -2.11      0.00
   -6   17   12      0.43      0.00
   -5   17   12      0.48      0.00
   -4   17   12     -0.51      0.00
   -3   17   12      0.32      0.00
   -2   17   12     -0.38      0.00
   -1   17   12     -0.61      0.00
    0   17   12     -1.70      0.00
   -9   18   12      0.60      0.00
   -8   18   12      1.57      0.00
   -7   18   12     -0.70      0.00
   -6   18   12      1.09      0.00
   -5   18   12     -0.56      0.00
   -4   18   12     -0.28      0.00
   -3   18   12      1.03      0.00
   -2   18   12      0.61      0.00
   -1   18   12      0.91      0.00
    0   18   12     -0.47      0.00
   -9   19   12     -1.43      0.00
   -8   19   12      1.35      0.00
   -7   19   12     -0.34      0.00
   -6   19   12      0.62      0.00
   -5   19   12      0.60      0.00
   -4   19   12      0.52      0.00
   -3   19   12      1.86      0.00
   -2   19   12     -0.39      0.00
   -1   19   12      1.70      0.00
    0   19   12     -0.18      0.00
  -10   20   12     -0.65      0.00
   -9   20   12      0.33      0.00
   -8   20   12      1.71      0.00
   -7   20   12      2.31      0.00
   -6   20   12     -0.21      0.00
   -5   20   12     -0.76      0.00
   -4   20   12     -0.50      0.00
   -3   20   12      0.35      0.00
   -2   20   12      1.16      0.00
   -1   20   12      1.68      0.00
    0   20   12      0.59      0.00
  -10   21   12      0.32      0.00
   -9   21   12      0.77      0.00
   -8   21   12      0.17      0.00
   -7   21   12      0.96      0.00
   -6   21   12      0.53      0.00
   -5   21   12      0.25      0.00
   -4   21   12     -1.06      0.00
   -3   21   12     -1.35      0.00
   -2   21   12      1.37      0.00
   -1   21   12      1.17      0.00
    0   21   12      1.59      0.00
  -11   22   12      0.70      0.00
  -10   22   12      0.60      0.00
   -9   22   12      0.54      0.00
   -8   22   12      1.47      0.00
   -7   22   12     -0.52      0.00
   -6   22   12     -1.40      0.00
   -5   22   12     -1.16      0.00
   -4   22   12     -2.39      0.00
   -3   22   12     -0.63      0.00
   -2   22   12     -0.50      0.00
   -1   22   12     -0.03      0.00
    0   22   12      4.71      0.00
  -11   23   12      1.39      0.00
  -10   23   12     -0.22      0.00
   -9   23   12      0.16      0.00
   -8   23   12     -0.09      0.00
   -7   23   12     -0.18      0.00
   -6   23   12     -1.27      0.00
   -5   23   12     -0.11      0.00
   -4   23   12     -1.48      0.00
   -3   23   12     -1.02      0.00
   -2   23   12      0.97      0.00
   -1   23   12     -0.12      0.00
    0   23   12     -1.24      0.00
  -12   24   12      0.56      0.00
  -11   24   12     -1.85      0.00
  -10   24   12      0.16      0.00
   -9   24   12      1.02      0.00
   -8   24   12     -2.30      0.00
   -7   24   12      0.52      0.00
   -6   24   12      0.56      0.00
   -5   24   12      1.06      0.00
   -4   24   12      1.06      0.00
   -3   24   12     -1.95      0.00
   -2   24   12      2.01      0.00
  -12   25   12      1.21      0.00
  -11   25   12      0.15      0.00
  -10   25   12     -1.82      0.00
   -9   25   12      1.15      0.00
   -8   25   12      0.85      0.00
   -7   25   12      0.90      0.00
   -6   25   12      0.77      0.00
   -5   25   12      1.61      0.00
   -4   25   12     -1.07      0.00
  -13   26   12     -1.63      0.00
  -12   26   12     -0.12      0.00
  -11   26   12      0.62      0.00
  -10   26   12     -1.32      0.00
   -9   26   12      0.16      0.00
   -8   26   12      2.85      0.00
   -7   26   12      0.00      0.00
    0    1   13      6.29      0.00
    0    2   13     -4.12      0.00
   -1    3   13    -11.90      0.00
    0    3   13      4.33      0.00
   -1    4   13     -2.59      0.00
    0    4   13     -1.41      0.00
   -2    5   13     -5.46      0.00
   -1    5   13      0.43      0.00
    0    5   13     -3.08      0.00
   -2    6   13      0.86      0.00
   -1    6   13     13.36      0.00
    0    6   13      6.49      0.00
   -3    7   13     -0.18      0.00
   -2    7   13     -5.13      0.00
   -1    7   13      0.69      0.00
    0    7   13      3.84      0.00
   -3    8   13      2.75      0.00
   -2    8   13      0.35      0.00
   -1    8   13      3.34      0.00
    0    8   13      1.80      0.00
   -4    9   13      1.69      0.00
   -3    9   13     -1.70      0.00
   -2    9   13     -2.42      0.00
   -1    9   13     -1.06      0.00
    0    9   13     -0.59      0.00
   -4   10   13     -2.20      0.00
   -3   10   13      3.84      0.00
   -2   10   13     -2.87      0.00
   -1   10   13     -0.06      0.00
    0   10   13      0.27      0.00
   -5   11   13     -0.40      0.00
   -4   11   13      0.62      0.00
   -3   11   13     -0.01      0.00
   -2   11   13      1.24      0.00
   -1   11   13      0.25      0.00
    0   11   13     -0.77      0.00
   -5   12   13     -0.17      0.00
   -4   12   13      0.78      0.00
   -3   12   13      1.13      0.00
   -2   12   13      0.49      0.00
   -1   12   13      2.30      0.00
    0   12   13     -1.39      0.00
   -6   13   13      0.21      0.00
   -5   13   13      1.32      0.00
   -4   13   13      0.43      0.00
   -3   13   13     -2.11      0.00
   -2   13   13     -0.63      0.00
   -1   13   13     -0.48      0.00
    0   13   13      1.43      0.00
   -6   14   13      0.50      0.00
   -5   14   13     -0.53      0.00
   -4   14   13     -1.18      0.00
   -3   14   13     -2.15      0.00
   -2   14   13     -0.23      0.00
   -1   14   13     -0.76      0.00
    0   14   13      1.75      0.00
   -7   15   13      0.81      0.00
   -6   15   13      1.02      0.00
   -5   15   13     -0.59      0.00
   -4   15   13     -1.13      0.00
   -3   15   13     -3.41      0.00
   -2   15   13      1.36      0.00
   -1   15   13     -0.93      0.00
    0   15   13      0.93      0.00
   -7   16   13      1.27      0.00
   -6   16   13     -0.35      0.00
   -5   16   13     -1.70      0.00
   -4   16   13      0.37      0.00
   -3   16   13      0.18      0.00
   -2   16   13     -2.83      0.00
   -1   16   13     -1.25      0.00
    0   16   13     -1.59      0.00
   -8   17   13      2.38      0.00
   -7   17   13     -0.16      0.00
   -6   17   13     -0.53      0.00
   -5   17   13      0.85      0.00
   -4   17   13     -0.75      0.00
   -3   17   13      0.03      0.00
   -2   17   13      1.03      0.00
   -1   17   13     -0.43      0.00
    0   17   13      0.52      0.00
   -8   18   13      0.41      0.00
   -7   18   13     -0.24      0.00
   -6   18   13      0.05      0.00
   -5   18   13     -0.86      0.00
   -4   18   13      0.46      0.00
   -3   18   13      0.31      0.00
   -2   18   13     -0.36      0.00
   -1   18   13      0.62      0.00
    0   18   13     -0.16      0.00
   -9   19   13     -3.30      0.00
   -8   19   13     -0.18      0.00
   -7   19   13     -0.07      0.00
   -6   19   13     -4.37      0.00
   -5   19   13      0.56      0.00
   -4   19   13      0.04      0.00
   -3   19   13      0.60      0.00
   -2   19   13     -0.26      0.00
   -1   19   13      0.87      0.00
    0   19   13     -0.26      0.00
   -9   20   13     -1.02      0.00
   -8   20   13     -4.27      0.00
   -7   20   13     -1.76      0.00
   -6   20   13     -0.46      0.00
   -5   20   13      0.13      0.00
   -4   20   13     -0.37      0.00
   -3   20   13      1.28      0.00
   -2   20   13     -0.54      0.00
   -1   20   13      0.69      0.00
    0   20   13     -1.96      0.00
  -10   21   13     -1.51      0.00
   -9   21   13     -0.82      0.00
   -8   21   13     -0.20      0.00
   -7   21   13     -1.17      0.00
   -6   21   13     -0.85      0.00
   -5   21   13      0.49      0.00
   -4   21   13      0.62      0.00
   -3   21   13      1.01      0.00
   -2   21   13     -0.59      0.00
   -1   21   13      1.43      0.00
    0   21   13     -0.26      0.00
  -10   22   13     -1.50      0.00
   -9   22   13     -1.79      0.00
   -8   22   13     -0.17      0.00
   -7   22   13      0.02      0.00
   -6   22   13      0.42      0.00
   -5   22   13      0.84      0.00
   -4   22   13      1.05      0.00
   -3   22   13     -0.07      0.00
   -2   22   13     -0.11      0.00
   -1   22   13      0.48      0.00
    0   22   13      1.07      0.00
  -11   23   13     -1.38      0.00
  -10   23   13      1.14      0.00
   -9   23   13      0.40      0.00
   -8   23   13     -2.45      0.00
   -7   23   13      1.11      0.00
   -6   23   13      0.19      0.00
   -5   23   13      1.65      0.00
   -4   23   13      0.46      0.00
   -3   23   13      3.83      0.00
   -2   23   13     -0.08      0.00
   -1   23   13      1.97      0.00
  -11   24   13     -0.32      0.00
  -10   24   13     -2.10      0.00
   -9   24   13      0.23      0.00
   -8   24   13     -0.16      0.00
   -7   24   13     -0.70      0.00
   -6   24   13      0.53      0.00
   -5   24   13      3.07      0.00
   -4   24   13      0.87      0.00
   -3   24   13     -0.92      0.00
   -2   24   13      0.67      0.00
  -12   25   13      1.89      0.00
  -11   25   13      0.39      0.00
  -10   25   13      0.78      0.00
   -9   25   13      0.40      0.00
   -8   25   13      0.26      0.00
   -7   25   13     -0.99      0.00
   -6   25   13     -1.36      0.00
   -5   25   13      0.49      0.00
  -12   26   13     -0.23      0.00
  -11   26   13     -1.07      0.00
  -10   26   13     -2.57      0.00
   -9   26   13      1.13      0.00
    0    0   14     21.28      0.00
    0    1   14     -6.69      0.00
   -1    2   14      1.91      0.00
    0    2   14     -2.39      0.00
   -1    3   14     -0.64      0.00
    0    3   14     -6.29      0.00
   -2    4   14     -3.86      0.00
   -1    4   14      3.11      0.00
    0    4   14      0.37      0.00
   -2    5   14      4.83      0.00
   -1    5   14      3.18      0.00
    0    5   14     -4.21      0.00
   -3    6   14     -4.24      0.00
   -2    6   14     -1.02      0.00
   -1    6   14      2.70      0.00
    0    6   14      1.84      0.00
   -3    7   14      1.39      0.00
   -2    7   14     -0.73      0.00
   -1    7   14      0.83      0.00
    0    7   14     -1.06      0.00
   -4    8   14     -3.87      0.00
   -3    8   14     -2.09      0.00
   -2    8   14      1.37      0.00
   -1    8   14     -3.09      0.00
    0    8   14      3.72      0.00
   -4    9   14      1.46      0.00
   -3    9   14     -2.45      0.00
   -2    9   14      0.52      0.00
   -1    9   14      0.23      0.00
    0    9   14     -1.13      0.00
   -5   10   14      0.08      0.00
   -4   10   14     -1.90      0.00
   -3   10   14      0.95      0.00
   -2   10   14     -3.08      0.00
   -1   10   14     -0.11      0.00
    0   10   14     -1.78      0.00
   -5   11   14      0.62      0.00
   -4   11   14     -0.90      0.00
   -3   11   14      1.18      0.00
   -2   11   14      0.30      0.00
   -1   11   14      0.07      0.00
    0   11   14     -1.83      0.00
   -6   12   14     -2.53      0.00
   -5   12   14      3.44      0.00
   -4   12   14      0.31      0.00
   -3   12   14     -1.76      0.00
   -2   12   14      1.55      0.00
   -1   12   14     -1.77      0.00
    0   12   14     -0.35      0.00
   -6   13   14     -0.08      0.00
   -5   13   14     -1.46      0.00
   -4   13   14      3.48      0.00
   -3   13   14     -1.24      0.00
   -2   13   14      2.46      0.00
   -1   13   14     -0.36      0.00
    0   13   14      2.25      0.00
   -7   14   14     -1.03      0.00
   -6   14   14     -0.20      0.00
   -5   14   14      0.17      0.00
   -4   14   14      0.83      0.00
   -3   14   14     -0.12      0.00
   -2   14   14      1.68      0.00
   -1   14   14     -0.92      0.00
    0   14   14      2.45      0.00
   -7   15   14     -0.29      0.00
   -6   15   14      0.64      0.00
   -5   15   14     -0.32      0.00
   -4   15   14      1.25      0.00
   -3   15   14     -1.40      0.00
   -2   15   14      1.69      0.00
   -1   15   14     -0.71      0.00
    0   15   14     -0.17      0.00
   -8   16   14     -2.06      0.00
   -7   16   14      1.62      0.00
   -6   16   14     -1.00      0.00
   -5   16   14     -1.27      0.00
   -4   16   14      0.53      0.00
   -3   16   14     -0.88      0.00
   -2   16   14      3.08      0.00
   -1   16   14     -1.47      0.00
    0   16   14     -1.77      0.00
   -8   17   14     -0.71      0.00
   -7   17   14      3.37      0.00
   -6   17   14     -0.40      0.00
   -5   17   14      0.53      0.00
   -4   17   14     -1.31      0.00
   -3   17   14     -2.19      0.00
   -2   17   14      0.30      0.00
   -1   17   14      2.20      0.00
    0   17   14     -0.18      0.00
   -9   18   14      2.24      0.00
   -8   18   14     -0.12      0.00
   -7   18   14      1.52      0.00
   -6   18   14     -0.27      0.00
   -5   18   14     -0.79      0.00
   -4   18   14      0.33      0.00
   -3   18   14     -2.22      0.00
   -2   18   14     -0.94      0.00
   -1   18   14      1.07      0.00
    0   18   14     -1.15      0.00
   -9   19   14      0.70      0.00
   -8   19   14     -0.96      0.00
   -7   19   14      1.02      0.00
   -6   19   14     -1.82      0.00
   -5   19   14      0.60      0.00
   -4   19   14      1.12      0.00
   -3   19   14      1.69      0.00
   -2   19   14      0.01      0.00
   -1   19   14      0.44      0.00
    0   19   14     -1.31      0.00
  -10   20   14      1.03      0.00
   -9   20   14     -0.41      0.00
   -8   20   14     -0.22      0.00
   -7   20   14     -0.81      0.00
   -6   20   14     -0.24      0.00
   -5   20   14      0.30      0.00
   -4   20   14      1.26      0.00
   -3   20   14      0.02      0.00
   -2   20   14      0.26      0.00
   -1   20   14     -0.73      0.00
    0   20   14     -1.45      0.00
  -10   21   14      1.02      0.00
   -9   21   14     -0.88      0.00
   -8   21   14      1.02      0.00
   -7   21   14     -1.61      0.00
   -6   21   14      0.08      0.00
   -5   21   14      0.31      0.00
   -4   21   14      1.99      0.00
   -3   21   14      0.82      0.00
   -2   21   14     -0.62      0.00
   -1   21   14      0.44      0.00
    0   21   14      0.61      0.00
  -11   22   14      1.85      0.00
  -10   22   14     -1.32      0.00
   -9   22   14      0.45      0.00
   -8   22   14      1.48      0.00
   -7   22   14     -2.17      0.00
   -6   22   14      1.38      0.00
   -5   22   14      1.05      0.00
   -4   22   14      2.18      0.00
   -3   22   14      0.48      0.00
   -2   22   14     -0.70      0.00
   -1   22   14     -0.58      0.00
    0   22   14      0.78      0.00
  -11   23   14      0.21      0.00
  -10   23   14      1.51      0.00
   -9   23   14     -2.05      0.00
   -8   23   14      1.86      0.00
   -7   23   14     -0.93      0.00
   -6   23   14      0.72      0.00
   -5   23   14     -0.19      0.00
   -4   23   14     -1.59      0.00
   -3   23   14      1.46      0.00
   -2   23   14     -0.35      0.00
   -1   23   14     -0.03      0.00
  -12   24   14     -1.13      0.00
  -11   24   14      0.37      0.00
  -10   24   14      1.22      0.00
   -9   24   14      0.70      0.00
   -8   24   14     -0.76      0.00
   -7   24   14     -0.71      0.00
   -6   24   14     -1.19      0.00
   -5   24   14     -1.35      0.00
   -4   24   14     -1.56      0.00
   -3   24   14     -0.74      0.00
  -12   25   14     -1.50      0.00
  -11   25   14      0.67      0.00
  -10   25   14     -1.70      0.00
   -9   25   14      0.36      0.00
   -8   25   14      1.07      0.00
   -7   25   14     -1.16      0.00
   -6   25   14     -0.81      0.00
  -13   26   14      3.96      0.00
  -12   26   14     -5.63      0.00
  -11   26   14      0.55      0.00
  -10   26   14      4.86      0.00
    0    1   15      0.93      0.00
    0    2   15      2.13      0.00
   -1    3   15     -0.39      0.00
    0    3   15      5.07      0.00
   -1    4   15      1.07      0.00
    0    4   15     -3.11      0.00
   -2    5   15     -0.78      0.00
   -1    5   15     -1.53      0.00
    0    5   15     -0.22      0.00
   -2    6   15      1.77      0.00
   -1    6   15      0.90      0.00
    0    6   15     -4.66      0.00
   -3    7   15     -1.75      0.00
   -2    7   15      0.94      0.00
   -1    7   15      1.32      0.00
    0    7   15      0.21      0.00
   -3    8   15      3.27      0.00
   -2    8   15     -0.69      0.00
   -1    8   15      0.39      0.00
    0    8   15      2.71      0.00
   -4    9   15     -1.98      0.00
   -3    9   15     -2.01      0.00
   -2    9   15      0.46      0.00
   -1    9   15     -2.08      0.00
    0    9   15      1.15      0.00
   -4   10   15     -2.25      0.00
   -3   10   15      1.72      0.00
   -2   10   15     -0.12      0.00
   -1   10   15      1.71      0.00
    0   10   15     -1.07      0.00
   -5   11   15     -1.15      0.00
   -4   11   15     -2.63      0.00
   -3   11   15     -1.02      0.00
   -2   11   15      1.23      0.00
   -1   11   15     -2.04      0.00
    0   11   15      2.28      0.00
   -5   12   15      1.92      0.00
   -4   12   15     -0.58      0.00
   -3   12   15     -0.92      0.00
   -2   12   15      0.06      0.00
   -1   12   15     -2.52      0.00
    0   12   15      2.39      0.00
   -6   13   15      0.58      0.00
   -5   13   15      1.06      0.00
   -4   13   15      0.02      0.00
   -3   13   15     -0.13      0.00
   -2   13   15      1.68      0.00
   -1   13   15     -3.51      0.00
    0   13   15      3.18      0.00
   -6   14   15      0.92      0.00
   -5   14   15     -0.96      0.00
   -4   14   15      2.41      0.00
   -3   14   15      1.89      0.00
   -2   14   15      0.90      0.00
   -1   14   15     -1.96      0.00
    0   14   15      1.81      0.00
   -7   15   15     -0.41      0.00
   -6   15   15     -0.95      0.00
   -5   15   15      0.46      0.00
   -4   15   15      2.79      0.00
   -3   15   15     -1.84      0.00
   -2   15   15      1.85      0.00
   -1   15   15     -1.58      0.00
    0   15   15      1.44      0.00
   -7   16   15     -0.52      0.00
   -6   16   15      0.81      0.00
   -5   16   15     -1.31      0.00
   -4   16   15      0.97      0.00
   -3   16   15     -0.41      0.00
   -2   16   15      0.66      0.00
   -1   16   15     -1.01      0.00
    0   16   15      0.67      0.00
   -8   17   15     -0.03      0.00
   -7   17   15      0.30      0.00
   -6   17   15      0.12      0.00
   -5   17   15     -1.73      0.00
   -4   17   15      0.30      0.00
   -3   17   15     -1.46      0.00
   -2   17   15     -0.55      0.00
   -1   17   15      1.40      0.00
    0   17   15     -2.24      0.00
   -8   18   15      1.72      0.00
   -7   18   15      1.25      0.00
   -6   18   15      1.42      0.00
   -5   18   15      0.09      0.00
   -4   18   15      0.59      0.00
   -3   18   15     -1.42      0.00
   -2   18   15      0.37      0.00
   -1   18   15      1.25      0.00
    0   18   15      0.35      0.00
   -9   19   15      0.33      0.00
   -8   19   15     -0.55      0.00
   -7   19   15      0.27      0.00
   -6   19   15      0.91      0.00
   -5   19   15      0.75      0.00
   -4   19   15     -0.40      0.00
   -3   19   15      1.78      0.00
   -2   19   15      2.01      0.00
   -1   19   15      0.11      0.00
    0   19   15     -1.46      0.00
   -9   20   15      1.52      0.00
   -8   20   15      1.59      0.00
   -7   20   15      1.46      0.00
   -6   20   15     -0.01      0.00
   -5   20   15      0.41      0.00
   -4   20   15      1.37      0.00
   -3   20   15     -0.12      0.00
   -2   20   15     -0.42      0.00
   -1   20   15      2.54      0.00
    0   20   15     -0.34      0.00
  -10   21   15     -2.07      0.00
   -9   21   15      0.86      0.00
   -8   21   15      0.66      0.00
   -7   21   15     -1.83      0.00
   -6   21   15     -0.46      0.00
   -5   21   15      1.23      0.00
   -4   21   15      1.79      0.00
   -3   21   15      0.44      0.00
   -2   21   15      2.01      0.00
   -1   21   15      0.41      0.00
    0   21   15      1.20      0.00
  -10   22   15     -0.34      0.00
   -9   22   15      1.16      0.00
   -8   22   15      0.83      0.00
   -7   22   15     -0.31      0.00
   -6   22   15     -1.21      0.00
   -5   22   15      0.49      0.00
   -4   22   15      1.80      0.00
   -3   22   15      1.52      0.00
   -2   22   15      0.16      0.00
   -1   22   15      1.69      0.00
    0   22   15      0.19      0.00
  -11   23   15     -0.47      0.00
  -10   23   15     -1.17      0.00
   -9   23   15      1.36      0.00
   -8   23   15     -2.88      0.00
   -7   23   15      0.63      0.00
   -6   23   15      0.24      0.00
   -5   23   15     -0.07      0.00
   -4   23   15      0.08      0.00
   -3   23   15      0.12      0.00
   -2   23   15      0.42      0.00
   -1   23   15     -1.41      0.00
  -11   24   15     -2.39      0.00
  -10   24   15     -0.88      0.00
   -9   24   15      0.90      0.00
   -8   24   15     -0.85      0.00
   -7   24   15     -0.49      0.00
   -6   24   15     -1.13      0.00
   -5   24   15      1.58      0.00
   -4   24   15     -1.44      0.00
  -12   25   15     -1.16      0.00
  -11   25   15     -0.45      0.00
  -10   25   15     -0.59      0.00
   -9   25   15     -2.16      0.00
   -8   25   15     -0.62      0.00
   -7   25   15     -2.14      0.00
    0    0   16      9.67      0.00
    0    1   16     -1.01      0.00
   -1    2   16      3.56      0.00
    0    2   16      2.62      0.00
   -1    3   16      0.06      0.00
    0    3   16     -5.11      0.00
   -2    4   16     -2.45      0.00
   -1    4   16      1.20      0.00
    0    4   16     -1.57      0.00
   -2    5   16      1.62      0.00
   -1    5   16      2.04      0.00
    0    5   16     -1.74      0.00
   -3    6   16      1.29      0.00
   -2    6   16     -0.97      0.00
   -1    6   16     -1.50      0.00
    0    6   16      2.47      0.00
   -3    7   16      3.25      0.00
   -2    7   16     -0.10      0.00
   -1    7   16      1.74      0.00
    0    7   16     -1.56      0.00
   -4    8   16     -3.62      0.00
   -3    8   16     -0.76      0.00
   -2    8   16      1.08      0.00
   -1    8   16     -0.89      0.00
    0    8   16      1.76      0.00
   -4    9   16     -1.50      0.00
   -3    9   16      1.08      0.00
   -2    9   16     -0.31      0.00
   -1    9   16      3.65      0.00
    0    9   16     -1.31      0.00
   -5   10   16     -2.41      0.00
   -4   10   16      0.41      0.00
   -3   10   16     -0.92      0.00
   -2   10   16     -0.17      0.00
   -1   10   16      0.34      0.00
    0   10   16     -0.91      0.00
   -5   11   16      1.16      0.00
   -4   11   16     -1.65      0.00
   -3   11   16      0.76      0.00
   -2   11   16     -0.08      0.00
   -1   11   16     -0.27      0.00
    0   11   16     -1.33      0.00
   -6   12   16     -1.36      0.00
   -5   12   16      1.95      0.00
   -4   12   16     -0.27      0.00
   -3   12   16     -1.62      0.00
   -2   12   16      0.30      0.00
   -1   12   16     -1.51      0.00
    0   12   16      3.41      0.00
   -6   13   16      0.81      0.00
   -5   13   16      0.83      0.00
   -4   13   16     -0.05      0.00
   -3   13   16     -1.85      0.00
   -2   13   16     -0.15      0.00
   -1   13   16     -1.59      0.00
    0   13   16      2.08      0.00
   -7   14   16      0.70      0.00
   -6   14   16      1.24      0.00
   -5   14   16     -0.55      0.00
   -4   14   16      1.11      0.00
   -3   14   16      0.64      0.00
   -2   14   16      1.80      0.00
   -1   14   16     -2.91      0.00
    0   14   16      2.76      0.00
   -7   15   16      1.08      0.00
   -6   15   16     -0.44      0.00
   -5   15   16      0.30      0.00
   -4   15   16      1.91      0.00
   -3   15   16     -0.25      0.00
   -2   15   16      0.62      0.00
   -1   15   16     -2.10      0.00
    0   15   16      2.04      0.00
   -8   16   16      1.14      0.00
   -7   16   16      0.54      0.00
   -6   16   16      0.86      0.00
   -5   16   16     -1.74      0.00
   -4   16   16     -1.46      0.00
   -3   16   16      1.83      0.00
   -2   16   16     -1.91      0.00
   -1   16   16     -0.85      0.00
    0   16   16     -0.19      0.00
   -8   17   16     -0.94      0.00
   -7   17   16      0.02      0.00
   -6   17   16      0.08      0.00
   -5   17   16     -0.68      0.00
   -4   17   16      0.76      0.00
   -3   17   16     -1.51      0.00
   -2   17   16      0.63      0.00
   -1   17   16      0.95      0.00
    0   17   16     -3.14      0.00
   -9   18   16      1.79      0.00
   -8   18   16     -0.14      0.00
   -7   18   16     -0.22      0.00
   -6   18   16     -0.55      0.00
   -5   18   16     -0.09      0.00
   -4   18   16      0.37      0.00
   -3   18   16     -0.64      0.00
   -2   18   16     -3.82      0.00
   -1   18   16      2.27      0.00
    0   18   16     -0.50      0.00
   -9   19   16      1.26      0.00
   -8   19   16      1.11      0.00
   -7   19   16     -1.41      0.00
   -6   19   16      0.42      0.00
   -5   19   16     -0.35      0.00
   -4   19   16     -1.27      0.00
   -3   19   16     -0.04      0.00
   -2   19   16     -2.92      0.00
   -1   19   16      2.06      0.00
    0   19   16      0.01      0.00
  -10   20   16      0.70      0.00
   -9   20   16      1.68      0.00
   -8   20   16      1.47      0.00
   -7   20   16     -0.20      0.00
   -6   20   16     -0.09      0.00
   -5   20   16      0.44      0.00
   -4   20   16     -1.12      0.00
   -3   20   16      0.27      0.00
   -2   20   16      0.30      0.00
   -1   20   16      0.77      0.00
    0   20   16     -0.27      0.00
  -10   21   16     -0.59      0.00
   -9   21   16      0.90      0.00
   -8   21   16     -0.37      0.00
   -7   21   16     -0.26      0.00
   -6   21   16     -0.92      0.00
   -5   21   16     -0.11      0.00
   -4   21   16      0.21      0.00
   -3   21   16     -0.90      0.00
   -2   21   16      1.23      0.00
   -1   21   16      0.42      0.00
    0   21   16      0.38      0.00
  -11   22   16      1.09      0.00
  -10   22   16     -0.88      0.00
   -9   22   16      0.85      0.00
   -8   22   16     -0.81      0.00
   -7   22   16      2.54      0.00
   -6   22   16      0.59      0.00
   -5   22   16     -0.35      0.00
   -4   22   16     -1.26      0.00
   -3   22   16      0.57      0.00
   -2   22   16      0.37      0.00
   -1   22   16     -0.80      0.00
    0   22   16      0.29      0.00
  -11   23   16     -0.62      0.00
  -10   23   16     -2.33      0.00
   -9   23   16      0.08      0.00
   -8   23   16     -0.29      0.00
   -7   23   16      2.50      0.00
   -6   23   16     -1.27      0.00
   -5   23   16      0.57      0.00
   -4   23   16      0.36      0.00
   -3   23   16     -0.18      0.00
   -2   23   16     -1.09      0.00
  -12   24   16      1.28      0.00
  -11   24   16     -1.60      0.00
  -10   24   16      3.30      0.00
   -9   24   16      0.32      0.00
   -8   24   16     -0.63      0.00
   -7   24   16     -1.24      0.00
   -6   24   16     -0.09      0.00
   -5   24   16      0.44      0.00
  -12   25   16      0.22      0.00
  -11   25   16      0.78      0.00
  -10   25   16     -1.35      0.00
   -9   25   16      0.14      0.00
   -8   25   16      2.37      0.00
    0    1   17     -1.29      0.00
    0    2   17      0.34      0.00
   -1    3   17      1.57      0.00
    0    3   17      1.56      0.00
   -1    4   17      2.86      0.00
    0    4   17      0.29      0.00
   -2    5   17      0.10      0.00
   -1    5   17     -1.03      0.00
    0    5   17      1.67      0.00
   -2    6   17      1.34      0.00
   -1    6   17     -1.08      0.00
    0    6   17     -3.26      0.00
   -3    7   17     -1.93      0.00
   -2    7   17     -1.22      0.00
   -1    7   17      1.56      0.00
    0    7   17     -5.42      0.00
   -3    8   17      1.91      0.00
   -2    8   17     -1.83      0.00
   -1    8   17     -0.73      0.00
    0    8   17     -1.37      0.00
   -4    9   17     -1.60      0.00
   -3    9   17     -0.09      0.00
   -2    9   17      0.01      0.00
   -1    9   17      0.82      0.00
    0    9   17     -2.03      0.00
   -4   10   17      1.97      0.00
   -3   10   17     -0.93      0.00
   -2   10   17      0.38      0.00
   -1   10   17      2.17      0.00
    0   10   17     -2.22      0.00
   -5   11   17     -0.85      0.00
   -4   11   17     -1.08      0.00
   -3   11   17     -1.38      0.00
   -2   11   17     -0.11      0.00
   -1   11   17      0.42      0.00
    0   11   17      0.31      0.00
   -5   12   17      0.82      0.00
   -4   12   17     -0.70      0.00
   -3   12   17     -0.58      0.00
   -2   12   17      0.00      0.00
   -1   12   17      0.29      0.00
    0   12   17     -1.26      0.00
   -6   13   17     -0.68      0.00
   -5   13   17      0.38      0.00
   -4   13   17      0.65      0.00
   -3   13   17     -0.33      0.00
   -2   13   17      0.99      0.00
   -1   13   17     -1.76      0.00
    0   13   17      0.27      0.00
   -6   14   17      0.12      0.00
   -5   14   17     -0.99      0.00
   -4   14   17      0.22      0.00
   -3   14   17     -1.47      0.00
   -2   14   17      0.14      0.00
   -1   14   17      0.95      0.00
    0   14   17     -3.02      0.00
   -7   15   17      0.80      0.00
   -6   15   17     -0.93      0.00
   -5   15   17      1.24      0.00
   -4   15   17      0.85      0.00
   -3   15   17     -1.25      0.00
   -2   15   17     -0.34      0.00
   -1   15   17     -0.23      0.00
    0   15   17      0.39      0.00
   -7   16   17     -0.87      0.00
   -6   16   17      1.03      0.00
   -5   16   17     -0.30      0.00
   -4   16   17      0.20      0.00
   -3   16   17      1.11      0.00
   -2   16   17     -0.74      0.00
   -1   16   17     -0.03      0.00
    0   16   17     -0.54      0.00
   -8   17   17      0.29      0.00
   -7   17   17      0.80      0.00
   -6   17   17      0.33      0.00
   -5   17   17      1.37      0.00
   -4   17   17     -0.55      0.00
   -3   17   17     -0.32      0.00
   -2   17   17     -0.53      0.00
   -1   17   17     -0.22      0.00
    0   17   17     -2.34      0.00
   -8   18   17     -0.36      0.00
   -7   18   17     -0.53      0.00
   -6   18   17      1.05      0.00
   -5   18   17      0.27      0.00
   -4   18   17     -2.36      0.00
   -3   18   17      1.97      0.00
   -2   18   17     -6.84      0.00
   -1   18   17      0.62      0.00
    0   18   17      0.07      0.00
   -9   19   17     -0.23      0.00
   -8   19   17      0.24      0.00
   -7   19   17      0.49      0.00
   -6   19   17      1.03      0.00
   -5   19   17     -0.65      0.00
   -4   19   17     -1.74      0.00
   -3   19   17     -0.01      0.00
   -2   19   17     -1.68      0.00
   -1   19   17     -0.07      0.00
    0   19   17      0.41      0.00
   -9   20   17     -0.79      0.00
   -8   20   17      3.80      0.00
   -7   20   17     -0.77      0.00
   -6   20   17      1.86      0.00
   -5   20   17     -0.20      0.00
   -4   20   17     -0.93      0.00
   -3   20   17      1.20      0.00
   -2   20   17      0.22      0.00
   -1   20   17      1.36      0.00
    0   20   17     -1.22      0.00
  -10   21   17     -0.48      0.00
   -9   21   17      0.38      0.00
   -8   21   17      2.37      0.00
   -7   21   17      0.47      0.00
   -6   21   17      0.20      0.00
   -5   21   17      0.01      0.00
   -4   21   17     -2.74      0.00
   -3   21   17      1.52      0.00
   -2   21   17     -0.37      0.00
   -1   21   17     -0.56      0.00
    0   21   17      2.32      0.00
  -10   22   17      2.02      0.00
   -9   22   17     -1.09      0.00
   -8   22   17     -0.41      0.00
   -7   22   17     -0.34      0.00
   -6   22   17      1.75      0.00
   -5   22   17      0.63      0.00
   -4   22   17      0.58      0.00
   -3   22   17     -0.90      0.00
   -2   22   17      0.89      0.00
   -1   22   17     -0.39      0.00
  -11   23   17     -0.59      0.00
  -10   23   17      1.98      0.00
   -9   23   17     -2.83      0.00
   -8   23   17     -0.28      0.00
   -7   23   17      0.99      0.00
   -6   23   17     -0.15      0.00
   -5   23   17      0.94      0.00
   -4   23   17     -1.79      0.00
   -3   23   17      1.74      0.00
  -11   24   17     -0.96      0.00
  -10   24   17     -0.37      0.00
   -9   24   17     -0.66      0.00
   -8   24   17      0.05      0.00
   -7   24   17     -1.09      0.00
   -6   24   17      0.71      0.00
   -5   24   17     -1.31      0.00
  -12   25   17      0.92      0.00
  -11   25   17     -0.31      0.00
  -10   25   17      0.38      0.00
    0    0   18      4.49      0.00
    0    1   18     -0.38      0.00
   -1    2   18     -0.22      0.00
    0    2   18      1.55      0.00
   -1    3   18      0.26      0.00
    0    3   18      1.04      0.00
   -2    4   18     -1.01      0.00
   -1    4   18     -0.57      0.00
    0    4   18      0.04      0.00
   -2    5   18     -2.03      0.00
   -1    5   18      3.81      0.00
    0    5   18     -2.52      0.00
   -3    6   18      0.64      0.00
   -2    6   18     -2.16      0.00
   -1    6   18     -2.75      0.00
    0    6   18      1.81      0.00
   -3    7   18     -0.44      0.00
   -2    7   18      0.58      0.00
   -1    7   18     -0.62      0.00
    0    7   18     -3.73      0.00
   -4    8   18      0.54      0.00
   -3    8   18     -1.28      0.00
   -2    8   18     -2.10      0.00
   -1    8   18     -0.67      0.00
    0    8   18      1.02      0.00
   -4    9   18      0.84      0.00
   -3    9   18      2.39      0.00
   -2    9   18     -2.31      0.00
   -1    9   18     -0.14      0.00
    0    9   18      1.47      0.00
   -5   10   18      0.93      0.00
   -4   10   18     -0.48      0.00
   -3   10   18      0.71      0.00
   -2   10   18      0.76      0.00
   -1   10   18     -2.38      0.00
    0   10   18      8.91      0.00
   -5   11   18      0.13      0.00
   -4   11   18      1.85      0.00
   -3   11   18     -0.91      0.00
   -2   11   18      0.41      0.00
   -1   11   18      0.72      0.00
    0   11   18     -1.32      0.00
   -6   12   18     -0.92      0.00
   -5   12   18     -0.73      0.00
   -4   12   18      0.10      0.00
   -3   12   18      0.62      0.00
   -2   12   18      0.92      0.00
   -1   12   18      1.33      0.00
    0   12   18     -0.07      0.00
   -6   13   18      0.61      0.00
   -5   13   18     -0.87      0.00
   -4   13   18      2.56      0.00
   -3   13   18     -1.66      0.00
   -2   13   18      0.39      0.00
   -1   13   18     -0.87      0.00
    0   13   18     -0.22      0.00
   -7   14   18      1.02      0.00
   -6   14   18     -0.98      0.00
   -5   14   18      0.37      0.00
   -4   14   18      1.08      0.00
   -3   14   18      0.02      0.00
   -2   14   18     -0.47      0.00
   -1   14   18     -0.85      0.00
    0   14   18      1.61      0.00
   -7   15   18     -0.60      0.00
   -6   15   18      0.04      0.00
   -5   15   18     -1.03      0.00
   -4   15   18      2.82      0.00
   -3   15   18     -1.03      0.00
   -2   15   18      1.09      0.00
   -1   15   18      0.37      0.00
    0   15   18     -1.13      0.00
   -8   16   18     -0.62      0.00
   -7   16   18      1.28      0.00
   -6   16   18     -0.29      0.00
   -5   16   18     -0.52      0.00
   -4   16   18     -0.22      0.00
   -3   16   18      2.46      0.00
   -2   16   18     -0.33      0.00
   -1   16   18      1.80      0.00
    0   16   18      0.83      0.00
   -8   17   18      0.03      0.00
   -7   17   18     -0.94      0.00
   -6   17   18      0.14      0.00
   -5   17   18      1.97      0.00
   -4   17   18     -2.62      0.00
   -3   17   18      2.78      0.00
   -2   17   18      0.66      0.00
   -1   17   18      1.01      0.00
    0   17   18     -1.53      0.00
   -9   18   18     -1.24      0.00
   -8   18   18     -1.91      0.00
   -7   18   18     -0.16      0.00
   -6   18   18     -1.79      0.00
   -5   18   18     -0.41      0.00
   -4   18   18     -0.16      0.00
   -3   18   18      2.65      0.00
   -2   18   18     -0.82      0.00
   -1   18   18      1.92      0.00
    0   18   18     -2.22      0.00
   -9   19   18      0.62      0.00
   -8   19   18     -0.78      0.00
   -7   19   18     -0.94      0.00
   -6   19   18     -2.36      0.00
   -5   19   18     -1.50      0.00
   -4   19   18     -1.33      0.00
   -3   19   18      1.64      0.00
   -2   19   18     -1.10      0.00
   -1   19   18      0.43      0.00
    0   19   18     -1.73      0.00
  -10   20   18     -3.98      0.00
   -9   20   18     -2.30      0.00
   -8   20   18     -1.42      0.00
   -7   20   18      0.04      0.00
   -6   20   18      1.25      0.00
   -5   20   18      0.58      0.00
   -4   20   18     -5.08      0.00
   -3   20   18     -0.06      0.00
   -2   20   18     -0.62      0.00
   -1   20   18     -0.40      0.00
    0   20   18      0.17      0.00
  -10   21   18      0.08      0.00
   -9   21   18      0.99      0.00
   -8   21   18     -0.16      0.00
   -7   21   18     -0.95      0.00
   -6   21   18     -0.67      0.00
   -5   21   18      0.07      0.00
   -4   21   18      1.72      0.00
   -3   21   18     -1.04      0.00
   -2   21   18     -0.60      0.00
   -1   21   18     -0.43      0.00
    0   21   18      1.18      0.00
  -11   22   18     -1.45      0.00
  -10   22   18      0.15      0.00
   -9   22   18     -0.32      0.00
   -8   22   18     -1.87      0.00
   -7   22   18      0.17      0.00
   -6   22   18      0.54      0.00
   -5   22   18     -1.00      0.00
   -4   22   18      0.22      0.00
   -3   22   18     -0.86      0.00
   -2   22   18     -0.43      0.00
   -1   22   18      1.80      0.00
  -11   23   18      0.83      0.00
  -10   23   18      0.51      0.00
   -9   23   18     -1.14      0.00
   -8   23   18      1.32      0.00
   -7   23   18      1.85      0.00
   -6   23   18      0.66      0.00
   -5   23   18     -0.63      0.00
   -4   23   18     -0.04      0.00
  -12   24   18     -2.14      0.00
  -11   24   18     -2.24      0.00
  -10   24   18      0.41      0.00
   -9   24   18      0.52      0.00
   -8   24   18      0.02      0.00
   -7   24   18     -0.54      0.00
    0    1   19     -0.04      0.00
    0    2   19      0.23      0.00
   -1    3   19      1.96      0.00
    0    3   19     -1.42      0.00
   -1    4   19     -0.12      0.00
    0    4   19      2.01      0.00
   -2    5   19      1.30      0.00
   -1    5   19      0.23      0.00
    0    5   19      1.41      0.00
   -2    6   19     -1.38      0.00
   -1    6   19     -0.78      0.00
    0    6   19     -1.32      0.00
   -3    7   19      2.05      0.00
   -2    7   19      0.14      0.00
   -1    7   19      1.60      0.00
    0    7   19     10.07      0.00
   -3    8   19      0.65      0.00
   -2    8   19      0.70      0.00
   -1    8   19     -1.19      0.00
    0    8   19      2.41      0.00
   -4    9   19     -1.10      0.00
   -3    9   19      2.56      0.00
   -2    9   19      0.79      0.00
   -1    9   19      0.68      0.00
    0    9   19      3.17      0.00
   -4   10   19      2.08      0.00
   -3   10   19     -0.45      0.00
   -2   10   19      1.82      0.00
   -1   10   19     -2.68      0.00
    0   10   19      0.07      0.00
   -5   11   19      0.54      0.00
   -4   11   19     -1.16      0.00
   -3   11   19     -0.85      0.00
   -2   11   19      0.14      0.00
   -1   11   19     -1.54      0.00
    0   11   19      1.77      0.00
   -5   12   19     -1.94      0.00
   -4   12   19      0.86      0.00
   -3   12   19      0.29      0.00
   -2   12   19      0.41      0.00
   -1   12   19     -2.08      0.00
    0   12   19      4.22      0.00
   -6   13   19     -2.73      0.00
   -5   13   19      1.33      0.00
   -4   13   19     -0.03      0.00
   -3   13   19      0.42      0.00
   -2   13   19     -1.19      0.00
   -1   13   19     -0.65      0.00
    0   13   19      0.44      0.00
   -6   14   19      1.17      0.00
   -5   14   19     -0.94      0.00
   -4   14   19      0.64      0.00
   -3   14   19     -1.06      0.00
   -2   14   19      0.42      0.00
   -1   14   19      0.09      0.00
    0   14   19      0.05      0.00
   -7   15   19      0.90      0.00
   -6   15   19     -0.51      0.00
   -5   15   19     -1.47      0.00
   -4   15   19      0.11      0.00
   -3   15   19      2.47      0.00
   -2   15   19     -1.76      0.00
   -1   15   19      0.82      0.00
    0   15   19     -1.93      0.00
   -7   16   19      0.55      0.00
   -6   16   19      0.96      0.00
   -5   16   19     -0.11      0.00
   -4   16   19      1.25      0.00
   -3   16   19     -0.79      0.00
   -2   16   19     -1.39      0.00
   -1   16   19     -0.37      0.00
    0   16   19      0.16      0.00
   -8   17   19      2.17      0.00
   -7   17   19      0.28      0.00
   -6   17   19     -0.84      0.00
   -5   17   19     -0.02      0.00
   -4   17   19     -2.31      0.00
   -3   17   19      2.03      0.00
   -2   17   19     -0.58      0.00
   -1   17   19      1.56      0.00
    0   17   19     -3.03      0.00
   -8   18   19      0.13      0.00
   -7   18   19      2.87      0.00
   -6   18   19     -0.15      0.00
   -5   18   19      1.20      0.00
   -4   18   19      0.12      0.00
   -3   18   19     -0.39      0.00
   -2   18   19      0.12      0.00
   -1   18   19      1.12      0.00
    0   18   19     -1.49      0.00
   -9   19   19      3.31      0.00
   -8   19   19      1.12      0.00
   -7   19   19      0.49      0.00
   -6   19   19     -1.31      0.00
   -5   19   19      0.06      0.00
   -4   19   19     -0.29      0.00
   -3   19   19      0.08      0.00
   -2   19   19      1.55      0.00
   -1   19   19      0.24      0.00
    0   19   19     -0.80      0.00
   -9   20   19      0.60      0.00
   -8   20   19     -2.58      0.00
   -7   20   19     -1.06      0.00
   -6   20   19      0.12      0.00
   -5   20   19      1.86      0.00
   -4   20   19      0.60      0.00
   -3   20   19     -1.87      0.00
   -2   20   19     -0.04      0.00
   -1   20   19      0.32      0.00
    0   20   19      2.27      0.00
  -10   21   19     -0.90      0.00
   -9   21   19     -0.52      0.00
   -8   21   19     -0.91      0.00
   -7   21   19      0.85      0.00
   -6   21   19     -0.59      0.00
   -5   21   19     -0.34      0.00
   -4   21   19      2.34      0.00
   -3   21   19     -0.57      0.00
   -2   21   19      1.52      0.00
   -1   21   19      0.25      0.00
    0   21   19     -0.60      0.00
  -10   22   19      1.65      0.00
   -9   22   19     -0.23      0.00
   -8   22   19     -0.34      0.00
   -7   22   19      0.22      0.00
   -6   22   19     -0.66      0.00
   -5   22   19      1.57      0.00
   -4   22   19      0.16      0.00
   -3   22   19     -0.17      0.00
   -2   22   19     -0.23      0.00
  -11   23   19     -0.07      0.00
  -10   23   19      0.37      0.00
   -9   23   19     -0.73      0.00
   -8   23   19     -1.42      0.00
   -7   23   19      0.55      0.00
   -6   23   19      1.02      0.00
   -5   23   19     -0.15      0.00
  -11   24   19      0.26      0.00
  -10   24   19      0.39      0.00
   -9   24   19      2.97      0.00
   -8   24   19      2.17      0.00
    0    0   20      3.57      0.00
    0    1   20     -0.93      0.00
   -1    2   20     -0.24      0.00
    0    2   20     -0.40      0.00
   -1    3   20      0.25      0.00
    0    3   20      0.80      0.00
   -2    4   20      0.03      0.00
   -1    4   20     -0.75      0.00
    0    4   20      0.81      0.00
   -2    5   20     -1.24      0.00
   -1    5   20      0.58      0.00
    0    5   20      0.80      0.00
   -3    6   20      2.05      0.00
   -2    6   20     -2.33      0.00
   -1    6   20     -0.69      0.00
    0    6   20      2.19      0.00
   -3    7   20      0.01      0.00
   -2    7   20      0.10      0.00
   -1    7   20      0.21      0.00
    0    7   20     -0.06      0.00
   -4    8   20      1.24      0.00
   -3    8   20      1.26      0.00
   -2    8   20     -0.46      0.00
   -1    8   20      1.40      0.00
    0    8   20     -3.38      0.00
   -4    9   20     -0.94      0.00
   -3    9   20      0.10      0.00
   -2    9   20      1.21      0.00
   -1    9   20      0.59      0.00
    0    9   20     -0.77      0.00
   -5   10   20      2.14      0.00
   -4   10   20     -1.45      0.00
   -3   10   20      0.42      0.00
   -2   10   20      0.56      0.00
   -1   10   20     -0.96      0.00
    0   10   20      4.19      0.00
   -5   11   20      1.56      0.00
   -4   11   20      0.08      0.00
   -3   11   20      0.21      0.00
   -2   11   20      0.57      0.00
   -1   11   20     -1.05      0.00
    0   11   20      0.48      0.00
   -6   12   20      1.14      0.00
   -5   12   20      0.22      0.00
   -4   12   20      2.28      0.00
   -3   12   20      2.28      0.00
   -2   12   20     -0.03      0.00
   -1   12   20      1.60      0.00
    0   12   20      1.24      0.00
   -6   13   20      0.47      0.00
   -5   13   20      1.25      0.00
   -4   13   20      1.46      0.00
   -3   13   20     -0.58      0.00
   -2   13   20      0.74      0.00
   -1   13   20      1.00      0.00
    0   13   20     -0.26      0.00
   -7   14   20      0.67      0.00
   -6   14   20      0.28      0.00
   -5   14   20      0.61      0.00
   -4   14   20     -0.65      0.00
   -3   14   20      0.85      0.00
   -2   14   20     -2.28      0.00
   -1   14   20     -0.29      0.00
    0   14   20      1.70      0.00
   -7   15   20      1.58      0.00
   -6   15   20     -0.91      0.00
   -5   15   20      0.05      0.00
   -4   15   20     -0.24      0.00
   -3   15   20     -0.33      0.00
   -2   15   20      0.58      0.00
   -1   15   20      0.81      0.00
    0   15   20     -1.34      0.00
   -8   16   20      0.27      0.00
   -7   16   20     -1.23      0.00
   -6   16   20      0.53      0.00
   -5   16   20     -0.06      0.00
   -4   16   20     -0.33      0.00
   -3   16   20      0.04      0.00
   -2   16   20     -0.62      0.00
   -1   16   20      1.07      0.00
    0   16   20     -0.37      0.00
   -8   17   20     -4.10      0.00
   -7   17   20     -2.50      0.00
   -6   17   20      0.48      0.00
   -5   17   20      1.53      0.00
   -4   17   20     -0.69      0.00
   -3   17   20     -0.71      0.00
   -2   17   20     -1.35      0.00
   -1   17   20      1.05      0.00
    0   17   20     -1.84      0.00
   -9   18   20     -1.54      0.00
   -8   18   20     -0.51      0.00
   -7   18   20     -0.92      0.00
   -6   18   20     -0.06      0.00
   -5   18   20      1.05      0.00
   -4   18   20      0.02      0.00
   -3   18   20     -1.35      0.00
   -2   18   20     -0.28      0.00
   -1   18   20      0.29      0.00
    0   18   20     -1.94      0.00
   -9   19   20     -1.03      0.00
   -8   19   20     -0.15      0.00
   -7   19   20      0.88      0.00
   -6   19   20      1.02      0.00
   -5   19   20     -0.03      0.00
   -4   19   20     -0.19      0.00
   -3   19   20      0.75      0.00
   -2   19   20     -0.62      0.00
   -1   19   20      1.34      0.00
    0   19   20     -0.33      0.00
  -10   20   20      3.23      0.00
   -9   20   20     -0.06      0.00
   -8   20   20      0.85      0.00
   -7   20   20      0.66      0.00
   -6   20   20      1.12      0.00
   -5   20   20      1.23      0.00
   -4   20   20     -1.16      0.00
   -3   20   20      0.17      0.00
   -2   20   20      1.25      0.00
   -1   20   20      0.45      0.00
    0   20   20      1.72      0.00
  -10   21   20      0.38      0.00
   -9   21   20      0.55      0.00
   -8   21   20      3.02      0.00
   -7   21   20     -0.75      0.00
   -6   21   20     -0.21      0.00
   -5   21   20     -0.75      0.00
   -4   21   20     -0.83      0.00
   -3   21   20     -2.27      0.00
   -2   21   20     -0.28      0.00
   -1   21   20     -1.14      0.00
  -11   22   20     -2.01      0.00
  -10   22   20      1.41      0.00
   -9   22   20      0.41      0.00
   -8   22   20      2.86      0.00
   -7   22   20      0.09      0.00
   -6   22   20     -0.58      0.00
   -5   22   20     -0.61      0.00
   -4   22   20     -0.08      0.00
   -3   22   20     -1.42      0.00
  -11   23   20      2.22      0.00
  -10   23   20     -1.28      0.00
   -9   23   20      1.71      0.00
   -8   23   20     -2.69      0.00
   -7   23   20      0.36      0.00
   -6   23   20      0.13      0.00
  -12   24   20      1.53      0.00
  -11   24   20     -0.07      0.00
    0    1   21     -1.12      0.00
    0    2   21     -0.70      0.00
   -1    3   21      0.59      0.00
    0    3   21     -1.51      0.00
   -1    4   21     -2.00      0.00
    0    4   21      0.41      0.00
   -2    5   21      2.39      0.00
   -1    5   21      0.96      0.00
    0    5   21      0.53      0.00
   -2    6   21     -1.97      0.00
   -1    6   21      2.49      0.00
    0    6   21     -2.01      0.00
   -3    7   21      1.91      0.00
   -2    7   21      0.46      0.00
   -1    7   21     -0.38      0.00
    0    7   21      1.11      0.00
   -3    8   21     -0.99      0.00
   -2    8   21      1.05      0.00
   -1    8   21     -1.55      0.00
    0    8   21     -0.72      0.00
   -4    9   21     -0.97      0.00
   -3    9   21      0.49      0.00
   -2    9   21     -0.37      0.00
   -1    9   21      1.38      0.00
    0    9   21      1.56      0.00
   -4   10   21      1.13      0.00
   -3   10   21      0.94      0.00
   -2   10   21     -0.21      0.00
   -1   10   21     -1.08      0.00
    0   10   21     -1.90      0.00
   -5   11   21      0.54      0.00
   -4   11   21      8.74      0.00
   -3   11   21     -0.51      0.00
   -2   11   21      1.30      0.00
   -1   11   21      1.67      0.00
    0   11   21     -0.83      0.00
   -5   12   21     -0.39      0.00
   -4   12   21     -0.83      0.00
   -3   12   21     -0.99      0.00
   -2   12   21      1.20      0.00
   -1   12   21     -0.89      0.00
    0   12   21     -2.19      0.00
   -6   13   21     -0.24      0.00
   -5   13   21      2.14      0.00
   -4   13   21     -0.25      0.00
   -3   13   21     -1.95      0.00
   -2   13   21      0.41      0.00
   -1   13   21     -0.91      0.00
    0   13   21     -1.77      0.00
   -6   14   21     -0.45      0.00
   -5   14   21      0.55      0.00
   -4   14   21      0.22      0.00
   -3   14   21      0.06      0.00
   -2   14   21     -0.57      0.00
   -1   14   21      1.41      0.00
    0   14   21     -1.16      0.00
   -7   15   21      0.84      0.00
   -6   15   21      2.80      0.00
   -5   15   21      0.62      0.00
   -4   15   21     -0.87      0.00
   -3   15   21     -1.13      0.00
   -2   15   21      0.95      0.00
   -1   15   21      0.61      0.00
    0   15   21     -1.99      0.00
   -7   16   21      1.39      0.00
   -6   16   21      1.12      0.00
   -5   16   21      2.01      0.00
   -4   16   21     -0.38      0.00
   -3   16   21      0.49      0.00
   -2   16   21     -1.28      0.00
   -1   16   21      0.17      0.00
    0   16   21     -0.46      0.00
   -8   17   21     -0.35      0.00
   -7   17   21     -0.73      0.00
   -6   17   21     -0.01      0.00
   -5   17   21     -0.63      0.00
   -4   17   21      0.45      0.00
   -3   17   21      1.24      0.00
   -2   17   21     -0.27      0.00
   -1   17   21      0.90      0.00
    0   17   21     -1.26      0.00
   -8   18   21     -1.28      0.00
   -7   18   21     -0.43      0.00
   -6   18   21     -0.43      0.00
   -5   18   21     -0.14      0.00
   -4   18   21      0.07      0.00
   -3   18   21      2.52      0.00
   -2   18   21     -0.98      0.00
   -1   18   21      0.37      0.00
    0   18   21     -0.26      0.00
   -9   19   21     -1.40      0.00
   -8   19   21      0.30      0.00
   -7   19   21     -0.76      0.00
   -6   19   21      1.72      0.00
   -5   19   21      0.09      0.00
   -4   19   21     -1.11      0.00
   -3   19   21      0.77      0.00
   -2   19   21     -0.27      0.00
   -1   19   21      0.13      0.00
    0   19   21     -0.97      0.00
   -9   20   21     -0.49      0.00
   -8   20   21      0.33      0.00
   -7   20   21     -1.63      0.00
   -6   20   21      1.48      0.00
   -5   20   21     -0.12      0.00
   -4   20   21      2.37      0.00
   -3   20   21      0.30      0.00
   -2   20   21     -0.32      0.00
   -1   20   21     -2.10      0.00
    0   20   21      0.11      0.00
  -10   21   21      2.37      0.00
   -9   21   21     -0.07      0.00
   -8   21   21      2.07      0.00
   -7   21   21      0.75      0.00
   -6   21   21     -0.20      0.00
   -5   21   21     -1.16      0.00
   -4   21   21     -2.45      0.00
   -3   21   21     -0.02      0.00
   -2   21   21      0.28      0.00
  -10   22   21     -0.83      0.00
   -9   22   21     -1.64      0.00
   -8   22   21      1.31      0.00
   -7   22   21      0.95      0.00
   -6   22   21     -0.76      0.00
   -5   22   21     -1.01      0.00
   -4   22   21      0.65      0.00
  -11   23   21     -0.86      0.00
  -10   23   21      0.02      0.00
   -9   23   21      0.82      0.00
   -8   23   21      0.99      0.00
    0    0   22     -3.22      0.00
    0    1   22     -0.27      0.00
   -1    2   22     -0.38      0.00
    0    2   22      0.09      0.00
   -1    3   22      0.35      0.00
    0    3   22     -1.10      0.00
   -2    4   22      1.40      0.00
   -1    4   22     -0.58      0.00
    0    4   22      0.49      0.00
   -2    5   22      0.26      0.00
   -1    5   22     -1.71      0.00
    0    5   22      1.65      0.00
   -3    6   22      0.86      0.00
   -2    6   22      2.31      0.00
   -1    6   22      1.09      0.00
    0    6   22     -1.36      0.00
   -3    7   22     -0.54      0.00
   -2    7   22     -0.63      0.00
   -1    7   22      0.95      0.00
    0    7   22      1.30      0.00
   -4    8   22     -1.23      0.00
   -3    8   22     -0.30      0.00
   -2    8   22     -0.11      0.00
   -1    8   22     -0.93      0.00
    0    8   22     -0.94      0.00
   -4    9   22     -0.20      0.00
   -3    9   22     -1.68      0.00
   -2    9   22      1.69      0.00
   -1    9   22      0.83      0.00
    0    9   22     -2.65      0.00
   -5   10   22     -0.53      0.00
   -4   10   22      1.45      0.00
   -3   10   22     -2.35      0.00
   -2   10   22      0.02      0.00
   -1   10   22      0.17      0.00
    0   10   22     -0.84      0.00
   -5   11   22     -0.40      0.00
   -4   11   22      0.91      0.00
   -3   11   22      0.36      0.00
   -2   11   22      1.66      0.00
   -1   11   22     -0.77      0.00
    0   11   22     -1.18      0.00
   -6   12   22     -0.62      0.00
   -5   12   22     -0.25      0.00
   -4   12   22     -2.03      0.00
   -3   12   22     -0.50      0.00
   -2   12   22      1.88      0.00
   -1   12   22      0.52      0.00
    0   12   22     -1.00      0.00
   -6   13   22      0.55      0.00
   -5   13   22     -0.49      0.00
   -4   13   22     -3.11      0.00
   -3   13   22     -1.09      0.00
   -2   13   22      0.92      0.00
   -1   13   22      0.39      0.00
    0   13   22     -0.03      0.00
   -7   14   22     -0.31      0.00
   -6   14   22     -0.10      0.00
   -5   14   22      0.03      0.00
   -4   14   22      1.04      0.00
   -3   14   22      1.45      0.00
   -2   14   22     -0.01      0.00
   -1   14   22      1.52      0.00
    0   14   22     -2.58      0.00
   -7   15   22     -1.64      0.00
   -6   15   22     -1.44      0.00
   -5   15   22      0.15      0.00
   -4   15   22     -0.94      0.00
   -3   15   22     -0.83      0.00
   -2   15   22      0.08      0.00
   -1   15   22     -0.65      0.00
    0   15   22      1.69      0.00
   -8   16   22     -0.05      0.00
   -7   16   22     -0.28      0.00
   -6   16   22      0.62      0.00
   -5   16   22     -1.99      0.00
   -4   16   22     -0.67      0.00
   -3   16   22      0.17      0.00
   -2   16   22     -0.25      0.00
   -1   16   22     -0.06      0.00
    0   16   22      2.32      0.00
   -8   17   22      2.56      0.00
   -7   17   22     -0.21      0.00
   -6   17   22      1.52      0.00
   -5   17   22     -0.79      0.00
   -4   17   22     -1.57      0.00
   -3   17   22     -3.08      0.00
   -2   17   22     -0.03      0.00
   -1   17   22      1.42      0.00
    0   17   22      2.48      0.00
   -9   18   22     -0.06      0.00
   -8   18   22      0.12      0.00
   -7   18   22      0.02      0.00
   -6   18   22     -0.56      0.00
   -5   18   22     -0.95      0.00
   -4   18   22      0.88      0.00
   -3   18   22      1.59      0.00
   -2   18   22      0.40      0.00
   -1   18   22      0.72      0.00
    0   18   22      0.26      0.00
   -9   19   22      0.22      0.00
   -8   19   22     -0.49      0.00
   -7   19   22     -0.52      0.00
   -6   19   22     -1.47      0.00
   -5   19   22      0.40      0.00
   -4   19   22     -0.65      0.00
   -3   19   22     -0.10      0.00
   -2   19   22     -0.71      0.00
   -1   19   22     -1.00      0.00
    0   19   22     -2.13      0.00
  -10   20   22     -0.14      0.00
   -9   20   22     -1.39      0.00
   -8   20   22     -1.59      0.00
   -7   20   22      0.37      0.00
   -6   20   22     -1.22      0.00
   -5   20   22     -0.63      0.00
   -4   20   22     -2.37      0.00
   -3   20   22     -0.32      0.00
   -2   20   22      0.05      0.00
   -1   20   22     -2.46      0.00
  -10   21   22      0.54      0.00
   -9   21   22     -1.39      0.00
   -8   21   22     -1.78      0.00
   -7   21   22     -1.14      0.00
   -6   21   22     -0.70      0.00
   -5   21   22     -0.06      0.00
   -4   21   22      2.17      0.00
   -3   21   22     -2.34      0.00
  -11   22   22      0.21      0.00
  -10   22   22     -0.86      0.00
   -9   22   22     -0.49      0.00
   -8   22   22      0.53      0.00
   -7   22   22     -0.24      0.00
   -6   22   22      0.19      0.00
    0    1   23     -0.58      0.00
    0    2   23      0.68      0.00
   -1    3   23      0.82      0.00
    0    3   23     -1.58      0.00
   -1    4   23      0.58      0.00
    0    4   23     -1.54      0.00
   -2    5   23     -0.87      0.00
   -1    5   23     -0.04      0.00
    0    5   23      0.13      0.00
   -2    6   23     -0.95      0.00
   -1    6   23      2.65      0.00
    0    6   23     -0.89      0.00
   -3    7   23     -0.17      0.00
   -2    7   23      0.82      0.00
   -1    7   23     -0.16      0.00
    0    7   23     -0.35      0.00
   -3    8   23      0.02      0.00
   -2    8   23      0.15      0.00
   -1    8   23      0.02      0.00
    0    8   23      0.27      0.00
   -4    9   23     -1.08      0.00
   -3    9   23     -0.09      0.00
   -2    9   23     -0.41      0.00
   -1    9   23     -0.50      0.00
    0    9   23      1.90      0.00
   -4   10   23     -0.70      0.00
   -3   10   23     -0.62      0.00
   -2   10   23      0.51      0.00
   -1   10   23      0.34      0.00
    0   10   23      0.82      0.00
   -5   11   23     -1.07      0.00
   -4   11   23     -0.87      0.00
   -3   11   23      0.53      0.00
   -2   11   23     -0.27      0.00
   -1   11   23     -0.43      0.00
    0   11   23     -1.14      0.00
   -5   12   23     -0.77      0.00
   -4   12   23     -0.85      0.00
   -3   12   23      2.71      0.00
   -2   12   23      3.23      0.00
   -1   12   23      0.86      0.00
    0   12   23      0.14      0.00
   -6   13   23     -0.53      0.00
   -5   13   23      4.11      0.00
   -4   13   23     -0.41      0.00
   -3   13   23     -0.69      0.00
   -2   13   23     -0.29      0.00
   -1   13   23      1.71      0.00
    0   13   23     -0.30      0.00
   -6   14   23     -0.37      0.00
   -5   14   23     -0.55      0.00
   -4   14   23      2.79      0.00
   -3   14   23      0.55      0.00
   -2   14   23      0.30      0.00
   -1   14   23     -0.13      0.00
    0   14   23     -2.28      0.00
   -7   15   23     -0.39      0.00
   -6   15   23      0.11      0.00
   -5   15   23      0.37      0.00
   -4   15   23     -0.53      0.00
   -3   15   23     -0.10      0.00
   -2   15   23     -0.22      0.00
   -1   15   23      0.55      0.00
    0   15   23     -0.19      0.00
   -7   16   23     -1.12      0.00
   -6   16   23      0.65      0.00
   -5   16   23      0.02      0.00
   -4   16   23      0.73      0.00
   -3   16   23      0.35      0.00
   -2   16   23     -0.26      0.00
   -1   16   23     -0.10      0.00
    0   16   23      0.67      0.00
   -8   17   23     -0.62      0.00
   -7   17   23     -1.97      0.00
   -6   17   23      0.99      0.00
   -5   17   23      2.12      0.00
   -4   17   23      0.31      0.00
   -3   17   23      0.07      0.00
   -2   17   23      0.49      0.00
   -1   17   23     -0.83      0.00
    0   17   23      0.43      0.00
   -8   18   23      0.44      0.00
   -7   18   23      1.18      0.00
   -6   18   23     -0.27      0.00
   -5   18   23     -0.28      0.00
   -4   18   23     -0.36      0.00
   -3   18   23      0.50      0.00
   -2   18   23     -0.14      0.00
   -1   18   23     -0.21      0.00
    0   18   23     -2.45      0.00
   -9   19   23     -0.16      0.00
   -8   19   23      0.36      0.00
   -7   19   23     -1.76      0.00
   -6   19   23      0.20      0.00
   -5   19   23     -0.35      0.00
   -4   19   23     -0.60      0.00
   -3   19   23      0.14      0.00
   -2   19   23      1.88      0.00
   -1   19   23      0.88      0.00
    0   19   23     -1.53      0.00
   -9   20   23     -1.75      0.00
   -8   20   23     -3.17      0.00
   -7   20   23      0.08      0.00
   -6   20   23     -1.37      0.00
   -5   20   23     -0.01      0.00
   -4   20   23      0.76      0.00
   -3   20   23     -2.68      0.00
   -2   20   23     -0.61      0.00
  -10   21   23     -1.32      0.00
   -9   21   23      0.04      0.00
   -8   21   23     -0.26      0.00
   -7   21   23     -3.17      0.00
   -6   21   23      0.11      0.00
   -5   21   23      0.37      0.00
   -4   21   23      3.22      0.00
  -10   22   23     -2.11      0.00
   -9   22   23     -0.14      0.00
   -8   22   23     -1.44      0.00
    0    0   24     -0.43      0.00
    0    1   24      1.47      0.00
   -1    2   24     -0.07      0.00
    0    2   24     -1.49      0.00
   -1    3   24      0.47      0.00
    0    3   24     -1.33      0.00
   -2    4   24      1.34      0.00
   -1    4   24      0.87      0.00
    0    4   24     -0.32      0.00
   -2    5   24      0.85      0.00
   -1    5   24     -1.94      0.00
    0    5   24     -1.34      0.00
   -3    6   24     -1.13      0.00
   -2    6   24      0.25      0.00
   -1    6   24      0.31      0.00
    0    6   24     -0.09      0.00
   -3    7   24     -0.23      0.00
   -2    7   24     -0.33      0.00
   -1    7   24     -0.07      0.00
    0    7   24      0.50      0.00
   -4    8   24      1.66      0.00
   -3    8   24      2.88      0.00
   -2    8   24     -0.09      0.00
   -1    8   24      0.37      0.00
    0    8   24      2.52      0.00
   -4    9   24     -1.14      0.00
   -3    9   24     -0.69      0.00
   -2    9   24      1.33      0.00
   -1    9   24      0.47      0.00
    0    9   24     -1.07      0.00
   -5   10   24      1.47      0.00
   -4   10   24      1.28      0.00
   -3   10   24     -1.40      0.00
   -2   10   24      0.85      0.00
   -1   10   24     -1.39      0.00
    0   10   24     -1.26      0.00
   -5   11   24     -1.51      0.00
   -4   11   24      0.02      0.00
   -3   11   24      0.12      0.00
   -2   11   24      1.56      0.00
   -1   11   24     -0.20      0.00
    0   11   24      0.19      0.00
   -6   12   24      0.86      0.00
   -5   12   24      0.34      0.00
   -4   12   24     -0.18      0.00
   -3   12   24      0.23      0.00
   -2   12   24     -0.36      0.00
   -1   12   24      1.91      0.00
    0   12   24     -0.53      0.00
   -6   13   24      0.44      0.00
   -5   13   24      0.64      0.00
   -4   13   24      3.20      0.00
   -3   13   24     -0.83      0.00
   -2   13   24     -0.11      0.00
   -1   13   24      1.43      0.00
    0   13   24     -0.15      0.00
   -7   14   24      0.80      0.00
   -6   14   24     -1.02      0.00
   -5   14   24      0.40      0.00
   -4   14   24     -2.45      0.00
   -3   14   24     -0.09      0.00
   -2   14   24     -0.95      0.00
   -1   14   24      1.04      0.00
    0   14   24      0.75      0.00
   -7   15   24      0.45      0.00
   -6   15   24      0.49      0.00
   -5   15   24      0.63      0.00
   -4   15   24     -0.04      0.00
   -3   15   24      0.72      0.00
   -2   15   24     -1.66      0.00
   -1   15   24      0.60      0.00
    0   15   24     -0.50      0.00
   -8   16   24     -0.16      0.00
   -7   16   24     -1.35      0.00
   -6   16   24      0.20      0.00
   -5   16   24     -4.08      0.00
   -4   16   24     -2.95      0.00
   -3   16   24      1.39      0.00
   -2   16   24      1.17      0.00
   -1   16   24     -0.69      0.00
    0   16   24     -1.86      0.00
   -8   17   24      0.84      0.00
   -7   17   24      0.56      0.00
   -6   17   24      0.31      0.00
   -5   17   24      0.91      0.00
   -4   17   24      0.45      0.00
   -3   17   24      0.42      0.00
   -2   17   24      0.27      0.00
   -1   17   24     -0.25      0.00
    0   17   24      0.81      0.00
   -9   18   24     -0.44      0.00
   -8   18   24      0.41      0.00
   -7   18   24     -0.11      0.00
   -6   18   24     -0.26      0.00
   -5   18   24      0.11      0.00
   -4   18   24      0.13      0.00
   -3   18   24      0.25      0.00
   -2   18   24     -1.33      0.00
   -1   18   24     -0.04      0.00
    0   18   24      0.93      0.00
   -9   19   24     -0.84      0.00
   -8   19   24     -0.83      0.00
   -7   19   24      1.41      0.00
   -6   19   24     -0.09      0.00
   -5   19   24      1.54      0.00
   -4   19   24     -0.12      0.00
   -3   19   24     -0.02      0.00
   -2   19   24      0.48      0.00
   -1   19   24     -1.47      0.00
  -10   20   24     -0.58      0.00
   -9   20   24     -1.29      0.00
   -8   20   24      0.52      0.00
   -7   20   24      0.54      0.00
   -6   20   24     -0.15      0.00
   -5   20   24      1.02      0.00
   -4   20   24      0.82      0.00
   -3   20   24      0.13      0.00
  -10   21   24     -1.28      0.00
   -9   21   24     -0.58      0.00
   -8   21   24      1.18      0.00
   -7   21   24      0.79      0.00
   -6   21   24      2.11      0.00
    0    1   25      1.49      0.00
    0    2   25      0.05      0.00
   -1    3   25     -1.29      0.00
    0    3   25     -0.22      0.00
   -1    4   25      0.39      0.00
    0    4   25     -0.48      0.00
   -2    5   25     -1.45      0.00
   -1    5   25      0.43      0.00
    0    5   25     -0.40      0.00
   -2    6   25      0.51      0.00
   -1    6   25     -1.24      0.00
    0    6   25      0.38      0.00
   -3    7   25      1.30      0.00
   -2    7   25      0.02      0.00
   -1    7   25      1.84      0.00
    0    7   25     -0.22      0.00
   -3    8   25      0.26      0.00
   -2    8   25      0.59      0.00
   -1    8   25     -0.35      0.00
    0    8   25     -0.69      0.00
   -4    9   25     -1.15      0.00
   -3    9   25     -0.24      0.00
   -2    9   25      0.59      0.00
   -1    9   25     -2.35      0.00
    0    9   25      0.48      0.00
   -4   10   25      0.61      0.00
   -3   10   25     -0.09      0.00
   -2   10   25      0.49      0.00
   -1   10   25      1.04      0.00
    0   10   25     -0.73      0.00
   -5   11   25      0.46      0.00
   -4   11   25     -0.75      0.00
   -3   11   25      0.65      0.00
   -2   11   25      0.01      0.00
   -1   11   25     -0.66      0.00
    0   11   25      0.18      0.00
   -5   12   25     -2.59      0.00
   -4   12   25     -0.77      0.00
   -3   12   25     -0.05      0.00
   -2   12   25     -0.23      0.00
   -1   12   25     -0.20      0.00
    0   12   25      0.56      0.00
   -6   13   25      1.56      0.00
   -5   13   25      1.23      0.00
   -4   13   25      1.62      0.00
   -3   13   25      2.64      0.00
   -2   13   25     -0.97      0.00
   -1   13   25     -1.44      0.00
    0   13   25     -0.12      0.00
   -6   14   25     -2.24      0.00
   -5   14   25      0.01      0.00
   -4   14   25      0.72      0.00
   -3   14   25      2.73      0.00
   -2   14   25     -0.58      0.00
   -1   14   25     -0.61      0.00
    0   14   25      1.01      0.00
   -7   15   25     -0.50      0.00
   -6   15   25     -0.54      0.00
   -5   15   25     -0.90      0.00
   -4   15   25      0.95      0.00
   -3   15   25      1.83      0.00
   -2   15   25     -0.29      0.00
   -1   15   25      0.64      0.00
    0   15   25     -2.56      0.00
   -7   16   25      0.66      0.00
   -6   16   25      1.26      0.00
   -5   16   25      0.05      0.00
   -4   16   25     -0.43      0.00
   -3   16   25     -0.65      0.00
   -2   16   25     -1.58      0.00
   -1   16   25      0.78      0.00
    0   16   25      2.78      0.00
   -8   17   25     -1.40      0.00
   -7   17   25      0.87      0.00
   -6   17   25      0.59      0.00
   -5   17   25      1.32      0.00
   -4   17   25      1.35      0.00
   -3   17   25     -0.18      0.00
   -2   17   25     -0.28      0.00
   -1   17   25     -1.28      0.00
    0   17   25     -0.61      0.00
   -8   18   25      0.55      0.00
   -7   18   25      0.07      0.00
   -6   18   25     -1.08      0.00
   -5   18   25      0.39      0.00
   -4   18   25     -0.24      0.00
   -3   18   25      1.57      0.00
   -2   18   25     -0.16      0.00
   -1   18   25      0.00      0.00
   -9   19   25      0.39      0.00
   -8   19   25     -0.13      0.00
   -7   19   25      0.53      0.00
   -6   19   25      2.49      0.00
   -5   19   25     -0.01      0.00
   -4   19   25     -0.76      0.00
   -3   19   25     -0.12      0.00
   -2   19   25     -1.54      0.00
   -9   20   25     -0.62      0.00
   -8   20   25      0.76      0.00
   -7   20   25     -0.05      0.00
   -6   20   25      1.98      0.00
   -5   20   25      1.12      0.00
    0    0   26     -4.65      0.00
    0    1   26     -0.06      0.00
   -1    2   26      1.20      0.00
    0    2   26     -0.37      0.00
   -1    3   26      0.00      0.00
    0    3   26      0.54      0.00
   -2    4   26     -0.21      0.00
   -1    4   26      0.95      0.00
    0    4   26      0.54      0.00
   -2    5   26     -0.89      0.00
   -1    5   26     -0.65      0.00
    0    5   26      2.51      0.00
   -3    6   26     -0.01      0.00
   -2    6   26     -0.84      0.00
   -1    6   26      0.19      0.00
    0    6   26      0.44      0.00
   -3    7   26     -0.29      0.00
   -2    7   26     -0.18      0.00
   -1    7   26     -0.84      0.00
    0    7   26      0.64      0.00
   -4    8   26      0.02      0.00
   -3    8   26     -0.44      0.00
   -2    8   26     -1.52      0.00
   -1    8   26      0.23      0.00
    0    8   26     -0.08      0.00
   -4    9   26      0.83      0.00
   -3    9   26      0.46      0.00
   -2    9   26      2.04      0.00
   -1    9   26      1.07      0.00
    0    9   26      1.21      0.00
   -5   10   26      1.17      0.00
   -4   10   26     -1.20      0.00
   -3   10   26      1.89      0.00
   -2   10   26     -0.38      0.00
   -1   10   26      3.09      0.00
    0   10   26      8.09      0.00
   -5   11   26     -0.96      0.00
   -4   11   26      0.98      0.00
   -3   11   26     -0.42      0.00
   -2   11   26     -0.61      0.00
   -1   11   26      1.93      0.00
    0   11   26      0.50      0.00
   -6   12   26     -1.72      0.00
   -5   12   26     -1.12      0.00
   -4   12   26      1.39      0.00
   -3   12   26      2.15      0.00
   -2   12   26      0.50      0.00
   -1   12   26     -0.64      0.00
    0   12   26      0.50      0.00
   -6   13   26     -0.79      0.00
   -5   13   26     -1.60      0.00
   -4   13   26     -0.30      0.00
   -3   13   26      0.56      0.00
   -2   13   26     -0.93      0.00
   -1   13   26      0.36      0.00
    0   13   26     -0.48      0.00
   -7   14   26     -1.96      0.00
   -6   14   26     -2.88      0.00
   -5   14   26      0.89      0.00
   -4   14   26      1.34      0.00
   -3   14   26      0.53      0.00
   -2   14   26      0.26      0.00
   -1   14   26      0.18      0.00
    0   14   26      1.24      0.00
   -7   15   26     -1.16      0.00
   -6   15   26     -0.71      0.00
   -5   15   26     -0.87      0.00
   -4   15   26      0.03      0.00
   -3   15   26     -0.40      0.00
   -2   15   26      0.64      0.00
   -1   15   26     -2.25      0.00
    0   15   26     -0.19      0.00
   -8   16   26      1.96      0.00
   -7   16   26     -0.22      0.00
   -6   16   26      1.46      0.00
   -5   16   26     -1.47      0.00
   -4   16   26      2.23      0.00
   -3   16   26      0.42      0.00
   -2   16   26      1.01      0.00
   -1   16   26      0.76      0.00
    0   16   26     -0.67      0.00
   -8   17   26     -0.49      0.00
   -7   17   26     -4.25      0.00
   -6   17   26      0.37      0.00
   -5   17   26      0.10      0.00
   -4   17   26     -0.61      0.00
   -3   17   26     -0.10      0.00
   -2   17   26     -0.45      0.00
   -1   17   26      0.79      0.00
    0   17   26     -1.99      0.00
   -9   18   26      2.12      0.00
   -8   18   26     -1.08      0.00
   -7   18   26     -1.89      0.00
   -6   18   26      0.23      0.00
   -5   18   26     -1.54      0.00
   -4   18   26     -0.87      0.00
   -3   18   26      0.72      0.00
   -2   18   26      1.13      0.00
   -9   19   26     -0.46      0.00
   -8   19   26      0.50      0.00
   -7   19   26      0.05      0.00
   -6   19   26     -1.74      0.00
   -5   19   26      0.11      0.00
   -4   19   26      0.81      0.00
   -9   20   26     -0.66      0.00
   -8   20   26      0.63      0.00
   -7   20   26      0.61      0.00
    0    1   27      0.35      0.00
    0    2   27     -0.55      0.00
   -1    3   27     -1.12      0.00
    0    3   27      1.61      0.00
   -1    4   27      2.19      0.00
    0    4   27     -0.15      0.00
   -2    5   27      0.37      0.00
   -1    5   27     -0.48      0.00
    0    5   27     -0.26      0.00
   -2    6   27      1.45      0.00
   -1    6   27     -1.95      0.00
    0    6   27     -1.61      0.00
   -3    7   27     -2.96      0.00
   -2    7   27      0.15      0.00
   -1    7   27     -0.47      0.00
    0    7   27     -3.28      0.00
   -3    8   27     -0.15      0.00
   -2    8   27      1.46      0.00
   -1    8   27     -0.40      0.00
    0    8   27      1.16      0.00
   -4    9   27      0.70      0.00
   -3    9   27      0.24      0.00
   -2    9   27      1.09      0.00
   -1    9   27      0.52      0.00
    0    9   27     -0.73      0.00
   -4   10   27     -1.90      0.00
   -3   10   27      1.57      0.00
   -2   10   27      0.11      0.00
   -1   10   27     -0.42      0.00
    0   10   27     -0.56      0.00
   -5   11   27     -0.43      0.00
   -4   11   27      1.75      0.00
   -3   11   27      0.00      0.00
   -2   11   27     -0.24      0.00
   -1   11   27      0.71      0.00
    0   11   27      2.15      0.00
   -5   12   27     -1.77      0.00
   -4   12   27      2.44      0.00
   -3   12   27     -1.06      0.00
   -2   12   27      2.11      0.00
   -1   12   27      0.75      0.00
    0   12   27      0.36      0.00
   -6   13   27      3.37      0.00
   -5   13   27      2.94      0.00
   -4   13   27     -1.27      0.00
   -3   13   27     -3.49      0.00
   -2   13   27     -1.40      0.00
   -1   13   27      0.17      0.00
    0   13   27      0.81      0.00
   -6   14   27     -0.68      0.00
   -5   14   27      2.64      0.00
   -4   14   27     -0.63      0.00
   -3   14   27     -1.10      0.00
   -2   14   27     -0.70      0.00
   -1   14   27     -0.44      0.00
    0   14   27      1.56      0.00
   -7   15   27      0.25      0.00
   -6   15   27      0.52      0.00
   -5   15   27     -0.04      0.00
   -4   15   27     -2.08      0.00
   -3   15   27      0.45      0.00
   -2   15   27      0.62      0.00
   -1   15   27      0.81      0.00
    0   15   27     -1.03      0.00
   -7   16   27     -0.53      0.00
   -6   16   27     -0.25      0.00
   -5   16   27     -1.31      0.00
   -4   16   27      0.40      0.00
   -3   16   27     -2.57      0.00
   -2   16   27      0.09      0.00
   -1   16   27     -0.95      0.00
    0   16   27      2.34      0.00
   -8   17   27      1.21      0.00
   -7   17   27     -1.91      0.00
   -6   17   27     -2.15      0.00
   -5   17   27     -2.20      0.00
   -4   17   27     -0.11      0.00
   -3   17   27     -0.06      0.00
   -2   17   27     -0.96      0.00
   -1   17   27     -1.15      0.00
   -8   18   27     -0.90      0.00
   -7   18   27      2.21      0.00
   -6   18   27     -0.27      0.00
   -5   18   27     -2.00      0.00
   -4   18   27     -2.16      0.00
   -3   18   27      0.07      0.00
   -9   19   27     -4.08      0.00
   -8   19   27      1.26      0.00
   -7   19   27     -0.34      0.00
   -6   19   27     -1.90      0.00
    0    0   28      0.09      0.00
    0    1   28      0.47      0.00
   -1    2   28      0.11      0.00
    0    2   28     -1.14      0.00
   -1    3   28     -1.17      0.00
    0    3   28     -0.12      0.00
   -2    4   28     -0.39      0.00
   -1    4   28     -0.64      0.00
    0    4   28     -0.35      0.00
   -2    5   28     -1.23      0.00
   -1    5   28     -1.28      0.00
    0    5   28      1.62      0.00
   -3    6   28      0.69      0.00
   -2    6   28      0.13      0.00
   -1    6   28      0.04      0.00
    0    6   28     -0.25      0.00
   -3    7   28     -1.76      0.00
   -2    7   28     -1.25      0.00
   -1    7   28     -0.61      0.00
    0    7   28      1.31      0.00
   -4    8   28     -2.30      0.00
   -3    8   28      0.27      0.00
   -2    8   28      1.35      0.00
   -1    8   28     -0.03      0.00
    0    8   28      0.95      0.00
   -4    9   28     -4.65      0.00
   -3    9   28     -0.55      0.00
   -2    9   28      1.18      0.00
   -1    9   28      1.00      0.00
    0    9   28     -0.43      0.00
   -5   10   28     -0.27      0.00
   -4   10   28      0.43      0.00
   -3   10   28     -1.22      0.00
   -2   10   28      1.11      0.00
   -1   10   28     -1.85      0.00
    0   10   28     -3.08      0.00
   -5   11   28      1.81      0.00
   -4   11   28      0.12      0.00
   -3   11   28      0.58      0.00
   -2   11   28      2.16      0.00
   -1   11   28     -0.42      0.00
    0   11   28     -0.79      0.00
   -6   12   28      3.12      0.00
   -5   12   28     -0.20      0.00
   -4   12   28     -0.51      0.00
   -3   12   28     -0.73      0.00
   -2   12   28     -2.13      0.00
   -1   12   28     -0.43      0.00
    0   12   28     -1.95      0.00
   -6   13   28      2.22      0.00
   -5   13   28      1.81      0.00
   -4   13   28     -0.80      0.00
   -3   13   28     -1.11      0.00
   -2   13   28      1.40      0.00
   -1   13   28      1.08      0.00
    0   13   28     -2.10      0.00
   -7   14   28      2.19      0.00
   -6   14   28      1.49      0.00
   -5   14   28      1.46      0.00
   -4   14   28     -2.26      0.00
   -3   14   28      1.53      0.00
   -2   14   28     -1.40      0.00
   -1   14   28      0.00      0.00
    0   14   28     -0.82      0.00
   -7   15   28      1.17      0.00
   -6   15   28     -0.54      0.00
   -5   15   28      0.14      0.00
   -4   15   28      3.51      0.00
   -3   15   28      2.17      0.00
   -2   15   28     -1.84      0.00
   -1   15   28     -0.30      0.00
    0   15   28      0.53      0.00
   -8   16   28      0.81      0.00
   -7   16   28     -2.65      0.00
   -6   16   28      1.14      0.00
   -5   16   28     -0.63      0.00
   -4   16   28      3.47      0.00
   -3   16   28      2.19      0.00
   -2   16   28     -0.53      0.00
   -1   16   28     -2.51      0.00
    0   16   28     -4.74      0.00
   -8   17   28     -3.03      0.00
   -7   17   28      0.85      0.00
   -6   17   28     -0.53      0.00
   -5   17   28      0.39      0.00
   -4   17   28     -1.56      0.00
   -3   17   28      1.11      0.00
   -2   17   28     -5.34      0.00
   -8   18   28     -0.51      0.00
   -7   18   28     -1.78      0.00
   -6   18   28      0.31      0.00
   -5   18   28      3.34      0.00
    0    1   29      0.45      0.00
    0    2   29      0.20      0.00
   -1    3   29     -0.17      0.00
    0    3   29     -0.33      0.00
   -1    4   29     -0.96      0.00
    0    4   29      0.72      0.00
   -2    5   29     -4.54      0.00
   -1    5   29     -0.58      0.00
    0    5   29      0.05      0.00
   -2    6   29      0.62      0.00
   -1    6   29     -0.51      0.00
    0    6   29      0.11      0.00
   -3    7   29     -0.56      0.00
   -2    7   29     -0.94      0.00
   -1    7   29      0.85      0.00
    0    7   29      2.86      0.00
   -3    8   29     -0.85      0.00
   -2    8   29     -0.20      0.00
   -1    8   29      0.84      0.00
    0    8   29      0.71      0.00
   -4    9   29     -0.23      0.00
   -3    9   29     -0.16      0.00
   -2    9   29     -0.70      0.00
   -1    9   29      1.24      0.00
    0    9   29      2.11      0.00
   -4   10   29      1.74      0.00
   -3   10   29      1.19      0.00
   -2   10   29      0.40      0.00
   -1   10   29      0.22      0.00
    0   10   29     -1.09      0.00
   -5   11   29      0.79      0.00
   -4   11   29      2.96      0.00
   -3   11   29     -0.01      0.00
   -2   11   29     -0.81      0.00
   -1   11   29      0.15      0.00
    0   11   29      2.60      0.00
   -5   12   29     -2.26      0.00
   -4   12   29     -0.67      0.00
   -3   12   29     -1.23      0.00
   -2   12   29      1.83      0.00
   -1   12   29      0.05      0.00
    0   12   29     -1.62      0.00
   -6   13   29      0.83      0.00
   -5   13   29     -2.78      0.00
   -4   13   29     -0.40      0.00
   -3   13   29      1.83      0.00
   -2   13   29     -0.02      0.00
   -1   13   29      1.67      0.00
    0   13   29      1.47      0.00
   -6   14   29     -1.97      0.00
   -5   14   29     -1.42      0.00
   -4   14   29     -3.21      0.00
   -3   14   29      2.75      0.00
   -2   14   29      0.07      0.00
   -1   14   29      1.58      0.00
    0   14   29     -0.93      0.00
   -7   15   29     -1.18      0.00
   -6   15   29     -0.22      0.00
   -5   15   29     -1.30      0.00
   -4   15   29      2.94      0.00
   -3   15   29      1.13      0.00
   -2   15   29      2.48      0.00
   -1   15   29      0.22      0.00
    0   15   29     -0.40      0.00
   -7   16   29     -0.11      0.00
   -6   16   29     -1.75      0.00
   -5   16   29      0.77      0.00
   -4   16   29     -2.72      0.00
   -3   16   29     -0.25      0.00
   -2   16   29      2.46      0.00
   -1   16   29      1.34      0.00
   -8   17   29      0.84      0.00
   -7   17   29      1.39      0.00
   -6   17   29     -1.30      0.00
   -5   17   29     -1.91      0.00
   -4   17   29      3.56      0.00
    0    0   30      0.75      0.00
    0    1   30      0.17      0.00
   -1    2   30      0.40      0.00
    0    2   30     -0.58      0.00
   -1    3   30     -0.77      0.00
    0    3   30      2.80      0.00
   -2    4   30      1.15      0.00
   -1    4   30     -0.50      0.00
    0    4   30     -0.85      0.00
   -2    5   30     -0.26      0.00
   -1    5   30     -0.05      0.00
    0    5   30      0.08      0.00
   -3    6   30     -2.51      0.00
   -2    6   30     -0.45      0.00
   -1    6   30     -0.19      0.00
    0    6   30      1.14      0.00
   -3    7   30     -0.51      0.00
   -2    7   30     -0.46      0.00
   -1    7   30      0.79      0.00
    0    7   30     -0.23      0.00
   -4    8   30      1.91      0.00
   -3    8   30     -2.33      0.00
   -2    8   30     -0.69      0.00
   -1    8   30      0.23      0.00
    0    8   30     -0.08      0.00
   -4    9   30      1.94      0.00
   -3    9   30      1.65      0.00
   -2    9   30      0.34      0.00
   -1    9   30     -0.34      0.00
    0    9   30      1.61      0.00
   -5   10   30     -2.32      0.00
   -4   10   30      1.12      0.00
   -3   10   30     -2.28      0.00
   -2   10   30     -1.57      0.00
   -1   10   30      1.09      0.00
    0   10   30      0.67      0.00
   -5   11   30     -2.33      0.00
   -4   11   30     -0.47      0.00
   -3   11   30     -1.21      0.00
   -2   11   30     -3.90      0.00
   -1   11   30     -1.83      0.00
    0   11   30      2.35      0.00
   -6   12   30     -3.84      0.00
   -5   12   30     -0.38      0.00
   -4   12   30     -0.18      0.00
   -3   12   30      2.45      0.00
   -2   12   30      1.13      0.00
   -1   12   30      1.42      0.00
    0   12   30     -0.92      0.00
   -6   13   30     -1.12      0.00
   -5   13   30     -1.43      0.00
   -4   13   30     -0.66      0.00
   -3   13   30      2.55      0.00
   -2   13   30      0.26      0.00
   -1   13   30     -1.71      0.00
    0   13   30     -1.17      0.00
   -7   14   30     -3.26      0.00
   -6   14   30     -3.11      0.00
   -5   14   30      2.40      0.00
   -4   14   30      3.68      0.00
   -3   14   30     -1.10      0.00
   -2   14   30     -0.07      0.00
   -1   14   30     -0.45      0.00
    0   14   30     -1.29      0.00
   -7   15   30     -0.16      0.00
   -6   15   30     -0.15      0.00
   -5   15   30      0.42      0.00
   -4   15   30      1.26      0.00
   -3   15   30     -1.94      0.00
   -2   15   30     -0.75      0.00
   -1   15   30     -0.07      0.00
   -8   16   30     -0.23      0.00
   -7   16   30      0.16      0.00
   -6   16   30      0.81      0.00
   -5   16   30     -2.63      0.00
   -4   16   30     -4.05      0.00
   -8   17   30     -4.51      0.00
    0    1   31      2.62      0.00
    0    2   31     -0.23      0.00
   -1    3   31      0.71      0.00
    0    3   31      2.81      0.00
   -1    4   31      0.07      0.00
    0    4   31      3.09      0.00
   -2    5   31      1.87      0.00
   -1    5   31     -0.42      0.00
    0    5   31     -0.26      0.00
   -2    6   31      0.25      0.00
   -1    6   31      2.64      0.00
    0    6   31      1.50      0.00
   -3    7   31     -1.58      0.00
   -2    7   31      0.14      0.00
   -1    7   31     -2.44      0.00
    0    7   31     -4.86      0.00
   -3    8   31      1.39      0.00
   -2    8   31      0.10      0.00
   -1    8   31      0.99      0.00
    0    8   31      1.06      0.00
   -4    9   31      0.43      0.00
   -3    9   31      0.55      0.00
   -2    9   31     -4.01      0.00
   -1    9   31      1.66      0.00
    0    9   31     -1.00      0.00
   -4   10   31     -1.43      0.00
   -3   10   31     -1.63      0.00
   -2   10   31      0.34      0.00
   -1   10   31      0.24      0.00
    0   10   31      1.86      0.00
   -5   11   31     -0.21      0.00
   -4   11   31     -1.26      0.00
   -3   11   31     -0.62      0.00
   -2   11   31     -2.82      0.00
   -1   11   31     -0.33      0.00
    0   11   31     -4.37      0.00
   -5   12   31      0.07      0.00
   -4   12   31     -0.56      0.00
   -3   12   31      0.81      0.00
   -2   12   31      1.09      0.00
   -1   12   31      1.05      0.00
    0   12   31     -2.39      0.00
   -6   13   31      0.89      0.00
   -5   13   31      2.74      0.00
   -4   13   31      2.27      0.00
   -3   13   31      3.75      0.00
   -2   13   31     -2.61      0.00
   -1   13   31      0.59      0.00
    0   13   31      0.07      0.00
   -6   14   31      0.24      0.00
   -5   14   31      0.96      0.00
   -4   14   31      0.04      0.00
   -3   14   31     -1.31      0.00
   -2   14   31     -0.23      0.00
   -1   14   31     -1.45      0.00
   -7   15   31     -1.06      0.00
   -6   15   31     -1.39      0.00
   -5   15   31     -0.44      0.00
   -4   15   31     -2.24      0.00
    0    0   32     -3.32      0.00
    0    1   32      1.94      0.00
   -1    2   32     -0.50      0.00
    0    2   32      0.28      0.00
   -1    3   32     -0.64      0.00
    0    3   32     -0.94      0.00
   -2    4   32     -0.19      0.00
   -1    4   32     -1.44      0.00
    0    4   32     -0.05      0.00
   -2    5   32      0.43      0.00
   -1    5   32      0.53      0.00
    0    5   32     -0.74      0.00
   -3    6   32      1.09      0.00
   -2    6   32      0.03      0.00
   -1    6   32     -1.07      0.00
    0    6   32      1.13      0.00
   -3    7   32      1.40      0.00
   -2    7   32      0.85      0.00
   -1    7   32      0.74      0.00
    0    7   32      2.25      0.00
   -4    8   32      2.95      0.00
   -3    8   32      2.11      0.00
   -2    8   32     -0.11      0.00
   -1    8   32     -1.09      0.00
    0    8   32      0.01      0.00
   -4    9   32     -2.27      0.00
   -3    9   32     -1.65      0.00
   -2    9   32      0.13      0.00
   -1    9   32     -0.87      0.00
    0    9   32     -1.92      0.00
   -5   10   32      2.04      0.00
   -4   10   32     -0.63      0.00
   -3   10   32     -1.40      0.00
   -2   10   32      0.71      0.00
   -1   10   32      2.43      0.00
    0   10   32      1.02      0.00
   -5   11   32      0.62      0.00
   -4   11   32      0.17      0.00
   -3   11   32      4.24      0.00
   -2   11   32     -0.96      0.00
   -1   11   32      0.68      0.00
    0   11   32      0.81      0.00
   -6   12   32     -2.77      0.00
   -5   12   32      2.57      0.00
   -4   12   32      0.51      0.00
   -3   12   32     -1.17      0.00
   -2   12   32      0.37      0.00
   -1   12   32     -1.66      0.00
    0   12   32     -1.63      0.00
   -6   13   32      0.03      0.00
   -5   13   32      1.58      0.00
   -4   13   32     -3.02      0.00
   -3   13   32     -1.69      0.00
   -2   13   32      0.47      0.00
   -1   13   32      0.43      0.00
   -7   14   32      1.41      0.00
   -6   14   32      1.63      0.00
   -5   14   32     -0.15      0.00
   -4   14   32     -0.03      0.00
    0    1   33     -0.70      0.00
    0    2   33      0.66      0.00
   -1    3   33      0.71      0.00
    0    3   33      2.21      0.00
   -1    4   33     -0.06      0.00
    0    4   33      3.80      0.00
   -2    5   33      2.17      0.00
   -1    5   33     -0.69      0.00
    0    5   33      1.11      0.00
   -2    6   33     -2.17      0.00
   -1    6   33     -0.85      0.00
    0    6   33     -0.76      0.00
   -3    7   33      0.31      0.00
   -2    7   33      0.51      0.00
   -1    7   33     -1.79      0.00
    0    7   33      1.00      0.00
   -3    8   33     -1.82      0.00
   -2    8   33     -1.47      0.00
   -1    8   33     -1.77      0.00
    0    8   33     -7.47      0.00
   -4    9   33     -3.17      0.00
   -3    9   33      0.95      0.00
   -2    9   33     -2.69      0.00
   -1    9   33     -2.42      0.00
    0    9   33      3.40      0.00
   -4   10   33      0.00      0.00
   -3   10   33     -2.13      0.00
   -2   10   33     -1.58      0.00
   -1   10   33     -2.68      0.00
    0   10   33      1.16      0.00
   -5   11   33      0.15      0.00
   -4   11   33      1.79      0.00
   -3   11   33     -1.11      0.00
   -2   11   33      3.53      0.00
   -1   11   33     -0.67      0.00
    0   11   33      1.76      0.00
   -5   12   33     -3.00      0.00
   -4   12   33     -1.05      0.00
   -3   12   33      0.60      0.00
   -2   12   33     -0.48      0.00
   -1   12   33      1.23      0.00
   -6   13   33      1.59      0.00
   -5   13   33     -2.29      0.00
   -4   13   33     -1.51      0.00
    0    0   34     -8.31      0.00
    0    1   34      3.28      0.00
   -1    2   34     -1.33      0.00
    0    2   34      3.28      0.00
   -1    3   34      1.19      0.00
    0    3   34     -4.72      0.00
   -2    4   34     -0.56      0.00
   -1    4   34      0.24      0.00
    0    4   34     -2.18      0.00
   -2    5   34      4.79      0.00
   -1    5   34      0.93      0.00
    0    5   34     -5.80      0.00
   -3    6   34      0.71      0.00
   -2    6   34      0.00      0.00
   -1    6   34     -1.79      0.00
    0    6   34     -9.47      0.00
   -3    7   34      2.38      0.00
   -2    7   34      1.03      0.00
   -1    7   34     -2.04      0.00
    0    7   34     -2.76      0.00
   -4    8   34     -6.32      0.00
   -3    8   34     -3.76      0.00
   -2    8   34     -1.61      0.00
   -1    8   34     -6.44      0.00
    0    8   34     -5.09      0.00
   -4    9   34     -0.17      0.00
   -3    9   34     -1.05      0.00
   -2    9   34     -1.82      0.00
   -1    9   34      3.39      0.00
    0    9   34     -3.71      0.00
   -5   10   34     -2.55      0.00
   -4   10   34      1.79      0.00
   -3   10   34     -2.64      0.00
   -2   10   34     -0.48      0.00
   -1   10   34     -0.47      0.00
    0   10   34     -5.89      0.00
   -5   11   34      0.90      0.00
   -4   11   34     -2.74      0.00
   -3   11   34      0.36      0.00
   -2   11   34     -0.87      0.00
    0    1   35    -10.03      0.00
    0    2   35      4.82      0.00
   -1    3   35     -6.45      0.00
    0    3   35    -11.15      0.00
   -1    4   35     -6.34      0.00
    0    4   35     -5.47      0.00
   -2    5   35      4.33      0.00
   -1    5   35     -2.60      0.00
    0    5   35      1.98      0.00
   -2    6   35      3.22      0.00
   -1    6   35     -2.37      0.00
    0    6   35     -5.48      0.00
   -3    7   35      0.12      0.00
   -2    7   35     -0.97      0.00
   -1    7   35      2.62      0.00
    0    7   35      1.16      0.00
   -3    8   35      0.87      0.00
   -2    8   35     -1.44      0.00
   -1    8   35      6.66      0.00
    0    8   35     -7.62      0.00
   -4    9   35     -2.41      0.00
   -3    9   35      1.02      0.00
   -2    9   35     -0.47      0.00
   -1    9   35      1.40      0.00
   -1    3   36      7.54      0.00
    0    3   36     13.30      0.00
   -2    4   36      8.94      0.00
   -1    4   36     -1.69      0.00
    0    4   36     10.49      0.00
   -2    5   36     -8.09      0.00
   -1    5   36      1.20      0.00
    0    5   36      1.22      0.00
   -2    6   36     -7.70      0.00
   -1    6   36      9.04      0.00
    0    6   36     -1.53      0.00
   -2    7   36    -13.33      0.00
    0    1    0     19.38      0.00
   -1   25    0      1.36      0.00
   -3   26    0     -0.37      0.00
   -9   28    0     -3.38      0.00
    0    1    1    -68.34      0.00
   -1   25    1      3.19      0.00
   -3   26    1     -0.99      0.00
   -9   28    1     -1.38      0.00
    0    0    2     -3.60      0.00
   -1   25    2      1.47      0.00
   -3   26    2     -0.77      0.00
   -9   28    2     -1.09      0.00
   -1   25    3     -1.49      0.00
   -3   26    3      1.00      0.00
   -6   27    3      1.47      0.00
  -10   28    3      0.28      0.00
   -9   28    3     -1.54      0.00
   -1   25    4     -0.63      0.00
   -3   26    4      1.94      0.00
   -6   27    4     -0.38      0.00
  -10   28    4      0.45      0.00
    0   24    5     -0.64      0.00
   -1   25    5      0.15      0.00
   -6   27    5     -0.12      0.00
  -11   28    5      2.16      0.00
  -10   28    5      2.35      0.00
    0   24    6     -0.60      0.00
   -1   25    6      2.26      0.00
   -7   27    6     -1.39      0.00
  -12   28    6     -0.02      0.00
  -11   28    6      1.10      0.00
    0   24    7      1.88      0.00
   -4   26    7     -1.15      0.00
   -7   27    7      1.86      0.00
  -13   28    7      0.59      0.00
  -12   28    7      1.06      0.00
    0   24    8      1.23      0.00
   -2   25    8      1.97      0.00
   -4   26    8      1.38      0.00
   -7   27    8     -0.22      0.00
  -14   28    8     -3.64      0.00
  -13   28    8      0.24      0.00
    0   24    9     -5.13      0.00
   -2   25    9     -0.78      0.00
   -5   26    9      1.06      0.00
   -8   27    9     -0.72      0.00
   -5   26   10     -1.27      0.00
   -9   27   10      0.48      0.00
   -1   24   11     -0.61      0.00
   -3   25   11     -0.86      0.00
   -6   26   11     -0.81      0.00
  -13   27   11     -0.11      0.00
  -12   27   11     -2.97      0.00
  -11   27   11      0.86      0.00
  -10   27   11     -0.82      0.00
   -1   24   12      1.44      0.00
  -13   27   12     -3.47      0.00
  -12   27   12      1.58      0.00
  -11   27   12     -5.20      0.00
    0   23   13      4.78      0.00
   -4   25   13      0.90      0.00
   -8   26   13      0.32      0.00
   -7   26   13      0.97      0.00
    0   23   14      3.01      0.00
   -5   25   14     -2.87      0.00
   -9   26   14     -2.03      0.00
   -3   24   15      0.50      0.00
   -6   25   15      1.29      0.00
  -12   26   15      0.26      0.00
  -11   26   15     -1.81      0.00
  -10   26   15     -0.78      0.00
   -4   24   16     -0.54      0.00
   -7   25   16      0.11      0.00
    0   22   17      0.72      0.00
   -2   23   17     -0.06      0.00
   -9   25   17     -1.85      0.00
   -8   25   17     -0.91      0.00
   -3   23   18     -1.42      0.00
   -6   24   18      2.62      0.00
  -12   25   18      1.44      0.00
  -11   25   18     -2.76      0.00
  -10   25   18      0.35      0.00
   -4   23   19      3.59      0.00
   -7   24   19      1.06      0.00
    0   21   20     -1.12      0.00
   -5   23   20     -1.70      0.00
  -10   24   20      0.76      0.00
   -9   24   20      0.15      0.00
   -1   21   21     -1.31      0.00
   -7   23   21      0.02      0.00
    0   20   22     -2.61      0.00
   -2   21   22     -0.42      0.00
   -5   22   22     -1.45      0.00
  -11   23   22     -0.67      0.00
  -10   23   22      0.94      0.00
   -9   23   22      0.99      0.00
   -1   20   23     -3.25      0.00
   -3   21   23     -0.81      0.00
   -7   22   23      0.55      0.00
    0   19   24      4.86      0.00
   -2   20   24      1.24      0.00
   -5   21   24      1.29      0.00
  -11   22   24      0.46      0.00
  -10   22   24     -1.30      0.00
   -9   22   24      0.18      0.00
    0   18   25     -0.47      0.00
   -1   19   25      1.65      0.00
   -4   20   25     -0.52      0.00
  -10   21   25      0.08      0.00
   -9   21   25      3.08      0.00
   -8   21   25      0.19      0.00
   -7   21   25      0.17      0.00
   -1   18   26     -2.14      0.00
   -3   19   26     -2.18      0.00
  -10   20   26      2.15      0.00
   -6   20   26     -0.96      0.00
    0   17   27      3.33      0.00
   -2   18   27      0.04      0.00
   -5   19   27     -0.01      0.00
   -1   17   28     -0.92      0.00
   -9   18   28     -1.49      0.00
   -4   18   28     -0.73      0.00
   -9   19   28     -1.21      0.00
   -8   19   28      0.26      0.00
   -7   19   28     -0.77      0.00
   -3   17   29      0.49      0.00
   -8   18   29     -1.52      0.00
   -7   18   29     -2.36      0.00
   -6   18   29     -1.45      0.00
    0   15   30      2.88      0.00
   -3   16   30     -1.73      0.00
   -7   17   30      1.84      0.00
   -6   17   30      4.49      0.00
    0   14   31     -0.19      0.00
   -3   15   31      0.02      0.00
   -2   15   31     -2.88      0.00
   -7   16   31      1.42      0.00
   -6   16   31      1.55      0.00
    0   13   32      1.62      0.00
   -3   14   32     -5.38      0.00
   -2   14   32      1.56      0.00
   -7   15   32     -0.13      0.00
   -6   15   32     -3.08      0.00
    0   12   33      0.69      0.00
   -3   13   33     -5.40      0.00
   -1   11   34     -2.40      0.00
   -6   12   34      4.06      0.00
   -5   12   34     -1.15      0.00
   -4   12   34     -2.68      0.00
    0    9   35     -1.49      0.00
   -4   10   35      0.31      0.00
   -3   10   35      0.95      0.00
   -2   10   35      4.18      0.00
    0    0   36     -1.60      0.00
    0    1   36     11.81      0.00
   -1    2   36     -6.32      0.00
    0    2   36      9.70      0.00
   -3    6   36     -0.69      0.00
   -3    7   36     -5.89      0.00
   -1    7   36     -2.86      0.00
    0    7   36      5.82      0.00
   -4    8   36     -3.75      0.00
   -3    8   36      0.39      0.00
   -2    8   36      1.64      0.00
    0    1   37     -2.70      0.00
    0    2   37      5.81      0.00
   -1    3   37     -2.15      0.00
    0    3   37      7.37      0.00
   -1    4   37      8.66      0.00
    0    4   37     -3.52      0.00
   -2    5   37     -7.73      0.00
   -1    5   37      3.22      0.00
    0    0    0      0.00      0.00
# SQUEEZE RESULTS (Version = 191017)
# Note: Data are Listed for all Voids in the P1 Unit Cell
# i.e. Centre of Gravity, Solvent Accessible Volume,
# Recovered number of Electrons in the Void and
# Details about the Squeezed Material
loop_
  _platon_squeeze_void_nr
  _platon_squeeze_void_average_x
  _platon_squeeze_void_average_y
  _platon_squeeze_void_average_z
  _platon_squeeze_void_volume
  _platon_squeeze_void_count_electrons
  _platon_squeeze_void_content
   1 -0.013 -0.008  0.000      9054      1565 ' '
# Missing Reflections Below sin(th)/lambda = 0.25
loop_
  _platon_missing_refln_index_h
  _platon_missing_refln_index_k
  _platon_missing_refln_index_l
  _platon_missing_refln_theta
    0    1    0     2.229
    0    1    1     2.669
    0    0    2     2.936
_platon_squeeze_void_probe_radius                  1.20
_platon_squeeze_details
)
TITL a         P 63/m m c   R = 0.09
CELL   22.8847   22.8847   30.1026     90.00     90.00    120.00
SPGR P63/mmc
# Solvent Accessible Volume =      9058
# Electrons Found in S.A.V. =      1546
# Note: Atoms in Void are Labelled as Cxxx and Qxxx for all Others
C101 1.000 1.000 0.492 !       1.65 eA-3
C102 0.679 0.345 0.601 !       1.27 eA-3
Q103 0.647 0.700 0.002 !       1.08 eA-3
Q104 0.491 0.360 0.063 !       1.00 eA-3
C105 0.702 0.298 0.923 !       0.98 eA-3
C106 0.672 0.329 0.930 !       0.96 eA-3
C107 0.703 0.347 0.930 !       0.95 eA-3
Q108 0.516 0.034 0.534 !       0.88 eA-3
Q109 0.188 0.944-0.001 !       0.87 eA-3
Q110 0.594 0.504 0.047 !       0.78 eA-3
Q111 0.421 0.489 0.970 !       0.77 eA-3
C112 0.549 0.767 0.516 !       0.77 eA-3
C113 0.227 0.459 0.982 !       0.77 eA-3
C114 0.218 0.439 0.993 !       0.77 eA-3
C115 0.713 0.286 0.556 !       0.76 eA-3
C116 0.752 0.509 0.514 !       0.76 eA-3
C117 0.234 0.474 0.507 !       0.75 eA-3
C118 0.633 0.578 0.747 !       0.74 eA-3
Q119 0.485 0.965 0.570 !       0.71 eA-3
C120 0.484 0.739 0.039 !       0.69 eA-3
Q121 0.451 0.893 0.009 !       0.69 eA-3
Q122 0.092 0.661 0.492 !       0.66 eA-3
C123 0.010 0.625 0.249 !       0.65 eA-3
C124 0.734 0.471 0.502 !       0.65 eA-3
Q125 0.188 0.371 0.148 !       0.64 eA-3
Q126 0.205 0.449 0.014 !       0.64 eA-3
Q127 0.954 0.714 0.536 !       0.63 eA-3
C128 0.401 1.000 0.245 !       0.63 eA-3
Q129 0.440 1.000-0.001 !       0.63 eA-3
Q130 0.438 0.716 0.234 !       0.62 eA-3
C131 0.043 0.411 0.227 !       0.61 eA-3
C132 0.962 0.484 0.750 !       0.61 eA-3
Q133 0.563 0.125 0.752 !       0.59 eA-3
C134 0.203 0.403 0.541 !       0.59 eA-3
Q135 0.529 0.765 0.047 !       0.59 eA-3
C136 0.898 0.094 0.625 !       0.58 eA-3
Q137 0.407 0.199 0.898 !       0.58 eA-3
C138 0.077 0.159 0.124 !       0.58 eA-3
C139 0.623 0.008 0.781 !       0.56 eA-3
C140 0.947 0.994 0.977 !       0.54 eA-3
Q141 0.999 0.273 0.071 !       0.53 eA-3
C142 0.640 0.010 0.804 !       0.53 eA-3
C143 1.000 1.000 0.750 !       0.53 eA-3
C144 0.645 0.674 0.280 !       0.51 eA-3
C145 0.187 0.060 0.633 !       0.50 eA-3
)
;
_shelx_fab_checksum              54131
loop_
_space_group_symop_operation_xyz
'x, y, z'
'x-y, x, z+1/2'
'-y, x-y, z'
'-x, -y, z+1/2'
'-x+y, -x, z'
'y, -x+y, z+1/2'
'x-y, -y, -z'
'-x, -x+y, -z'
'y, x, -z'
'-y, -x, -z+1/2'
'-x+y, y, -z+1/2'
'x, x-y, -z+1/2'
'-x, -y, -z'
'-x+y, -x, -z-1/2'
'y, -x+y, -z'
'x, y, -z-1/2'
'x-y, x, -z'
'-y, x-y, -z-1/2'
'-x+y, y, z'
'x, x-y, z'
'-y, -x, z'
'y, x, z-1/2'
'x-y, -y, z-1/2'
'-x, -x+y, z-1/2'
loop_
_atom_site_label
_atom_site_type_symbol
_atom_site_fract_x
_atom_site_fract_y
_atom_site_fract_z
_atom_site_U_iso_or_equiv
_atom_site_adp_type
_atom_site_occupancy
_atom_site_site_symmetry_order
_atom_site_calc_flag
_atom_site_refinement_flags_posn
_atom_site_refinement_flags_adp
_atom_site_refinement_flags_occupancy
C1 C 0.3266(3) 0.3182(4) 0.4648(2) 0.204(9) Uani 0.5 1 d G U P
H1 H 0.345137 0.294143 0.448423 0.245 Uiso 0.5 1 calc R U P
C2 C 0.2532(4) 0.2833(4) 0.4528(3) 0.089(2) Uani 0.5 1 d G U P
H2A H 0.248667 0.287571 0.421087 0.107 Uiso 0.5 1 calc R U P
H2B H 0.231741 0.304877 0.468096 0.107 Uiso 0.5 1 calc R U P
C3 C 0.2183(4) 0.2100(4) 0.4650(3) 0.234(11) Uani 0.5 1 d G U P
H3A H 0.170470 0.189693 0.458956 0.280 Uiso 0.5 1 calc R U P
H3B H 0.235896 0.187206 0.446886 0.280 Uiso 0.5 1 calc R U P
C4 C 0.2283(4) 0.2004(3) 0.5131(3) 0.098(3) Uani 0.5 1 d G U P
H4A H 0.208129 0.152543 0.519350 0.118 Uiso 0.5 1 calc R U P
H4B H 0.205680 0.218035 0.531284 0.118 Uiso 0.5 1 calc R U P
C5 C 0.3017(4) 0.2354(3) 0.5251(3) 0.137(5) Uani 0.5 1 d G U P
H5A H 0.306290 0.231070 0.556779 0.165 Uiso 0.5 1 calc R U P
H5B H 0.323208 0.213819 0.509753 0.165 Uiso 0.5 1 calc R U P
C6 C 0.3365(3) 0.3087(3) 0.5129(2) 0.087(2) Uani 0.5 1 d G U P
H6 H 0.313894 0.328282 0.529710 0.104 Uiso 0.5 1 calc R U P
In1 In 0.71794(2) 0.43588(2) 0.750000 0.04779(18) Uani 1 4 d S T P
Cu1 Cu 0.45303(8) 0.42168(8) 0.48453(7) 0.1547(12) Uani 0.5 1 d . U P
O1 O 0.77163(13) 0.5433(3) 0.750000 0.0833(15) Uani 1 4 d S TU P
O2 O 0.666667 0.333333 0.750000 0.0506(14) Uani 1 12 d S TU P
O3 O 0.65520(14) 0.44267(14) 0.69910(9) 0.0761(7) Uani 1 1 d . U .
O4 O 0.5329(3) 0.4671(3) 0.5186(3) 0.110(3) Uani 0.5 2 d S TU P
O5 O 0.4991(3) 0.5009(3) 0.4505(3) 0.108(3) Uani 0.5 2 d S TU P
O6 O 0.8544(6) 0.6185(6) 0.8337(4) 0.317(5) Uani 1 1 d . U .
O7 O 0.8124(4) 0.6249(7) 0.8919(5) 0.259(5) Uani 1 2 d S TU P
N1 N 0.4084(5) 0.3483(4) 0.5245(3) 0.096(2) Uani 0.5 1 d . U P
N2 N 0.3704(4) 0.3890(4) 0.4541(3) 0.099(2) Uani 0.5 1 d . U P
N3 N 0.8092(4) 0.6185(8) 0.8522(6) 0.200(5) Uani 1 2 d S TU P
C7 C 0.59774(14) 0.40226(14) 0.68411(18) 0.0698(12) Uani 1 2 d S TU P
C8 C 0.57566(18) 0.42434(18) 0.6447(2) 0.0923(19) Uani 1 2 d S TU P
C9 C 0.5199(5) 0.3766(5) 0.6197(3) 0.071(2) Uani 0.5 1 d . U P
H9 H 0.493789 0.333241 0.630982 0.086 Uiso 0.5 1 calc R U P
C10 C 0.5021(5) 0.3921(5) 0.5780(3) 0.083(2) Uani 0.5 1 d . U P
C11 C 0.5470(4) 0.4530(4) 0.5583(5) 0.089(3) Uani 0.5 2 d S TU P
C12 C 0.4348(5) 0.3424(5) 0.5614(4) 0.092(3) Uani 0.5 1 d . U P
H12 H 0.409259 0.304042 0.578452 0.110 Uiso 0.5 1 calc R U P
C13 C 0.3608(6) 0.4179(5) 0.4204(4) 0.096(3) Uani 0.5 1 d . U P
H13 H 0.319701 0.393887 0.405717 0.115 Uiso 0.5 1 calc R U P
C14 C 0.4735(4) 0.5265(4) 0.4219(5) 0.094(3) Uani 0.5 2 d S TU P
C15 C 0.4078(5) 0.4842(5) 0.4034(3) 0.084(2) Uani 0.5 1 d . U P
C16 C 0.3898(6) 0.5081(6) 0.3674(4) 0.078(3) Uani 0.5 1 d . U P
H16 H 0.353093 0.478018 0.350422 0.094 Uiso 0.5 1 calc R U P
loop_
_atom_site_aniso_label
_atom_site_aniso_U_11
_atom_site_aniso_U_22
_atom_site_aniso_U_33
_atom_site_aniso_U_23
_atom_site_aniso_U_13
_atom_site_aniso_U_12
C1 0.204(10) 0.201(10) 0.207(10) 0.007(5) -0.007(5) 0.100(6)
C2 0.076(4) 0.078(4) 0.086(4) 0.022(3) -0.023(3) 0.019(3)
C3 0.233(12) 0.232(12) 0.232(12) 0.001(5) -0.005(5) 0.113(7)
C4 0.092(4) 0.080(4) 0.093(4) 0.027(3) -0.022(3) 0.021(3)
C5 0.133(6) 0.134(6) 0.136(7) 0.008(4) -0.005(4) 0.061(5)
C6 0.075(4) 0.076(4) 0.077(4) 0.024(3) -0.030(3) 0.014(3)
In1 0.0539(2) 0.0541(3) 0.0355(3) 0.000 0.000 0.02706(13)
Cu1 0.1153(12) 0.1070(11) 0.150(2) 0.0715(11) -0.0808(12) -0.0132(9)
O1 0.096(3) 0.057(3) 0.084(3) 0.000 0.000 0.0283(13)
O2 0.0529(19) 0.0529(19) 0.046(3) 0.000 0.000 0.0264(9)
O3 0.0832(16) 0.0739(15) 0.0699(15) 0.0094(12) -0.0203(13) 0.0383(13)
O4 0.101(3) 0.101(3) 0.100(4) 0.034(2) -0.034(2) 0.030(3)
O5 0.099(3) 0.099(3) 0.100(4) 0.033(2) -0.033(2) 0.031(3)
O6 0.335(9) 0.335(9) 0.339(9) 0.016(7) 0.068(7) 0.210(8)
O7 0.264(8) 0.292(9) 0.230(8) -0.028(7) -0.014(4) 0.146(4)
N1 0.094(4) 0.089(4) 0.086(4) 0.030(3) -0.020(3) 0.031(3)
N2 0.094(4) 0.084(4) 0.094(4) 0.027(3) -0.030(3) 0.026(3)
N3 0.193(6) 0.211(6) 0.202(6) 0.003(4) 0.002(2) 0.105(3)
C7 0.0751(19) 0.0751(19) 0.062(3) 0.0094(11) -0.0094(11) 0.040(2)
C8 0.092(2) 0.092(2) 0.085(3) 0.0236(16) -0.0236(16) 0.040(3)
C9 0.073(4) 0.069(4) 0.070(4) 0.011(3) -0.014(3) 0.033(3)
C10 0.082(4) 0.079(4) 0.080(4) 0.013(3) -0.017(3) 0.035(3)
C11 0.090(4) 0.090(4) 0.080(5) 0.017(2) -0.017(2) 0.041(4)
C12 0.091(4) 0.086(4) 0.082(4) 0.018(3) -0.021(3) 0.032(3)
C13 0.091(4) 0.094(4) 0.089(5) 0.017(4) -0.026(4) 0.036(3)
C14 0.093(4) 0.093(4) 0.089(5) 0.017(3) -0.017(3) 0.040(4)
C15 0.081(4) 0.083(4) 0.077(4) 0.016(3) -0.020(3) 0.033(3)
C16 0.079(4) 0.079(4) 0.075(5) 0.008(3) -0.013(3) 0.037(3)
loop_
_atom_type_symbol
_atom_type_description
_atom_type_scat_dispersion_real
_atom_type_scat_dispersion_imag
_atom_type_scat_source
C C 0.0181 0.0091 'International Tables Vol C Tables 4.2.6.8 and 6.1.1.4'
H H 0.0000 0.0000 'International Tables Vol C Tables 4.2.6.8 and 6.1.1.4'
N N 0.0311 0.0180 'International Tables Vol C Tables 4.2.6.8 and 6.1.1.4'
O O 0.0492 0.0322 'International Tables Vol C Tables 4.2.6.8 and 6.1.1.4'
Cu Cu -1.9646 0.5888 'International Tables Vol C Tables 4.2.6.8 and 6.1.1.4'
In In 0.0822 5.0449 'International Tables Vol C Tables 4.2.6.8 and 6.1.1.4'
loop_
_geom_angle_atom_site_label_1
_geom_angle_atom_site_label_2
_geom_angle_atom_site_label_3
_geom_angle
_geom_angle_site_symmetry_1
_geom_angle_site_symmetry_3
N2 C1 C6 107.9(6) . .
N2 C1 C2 120.4(6) . .
C6 C1 C2 111.5 . .
N2 C1 H1 105.3 . .
C6 C1 H1 105.3 . .
C2 C1 H1 105.3 . .
N2 C1 H6 121.6(14) . 9_556
C2 C1 H6 111.4(18) . 9_556
H1 C1 H6 84.0 . 9_556
C1 C2 C3 111.4 . .
C1 C2 H2A 109.3 . .
C3 C2 H2A 109.3 . .
C1 C2 H2B 109.3 . .
C3 C2 H2B 109.3 . .
H2A C2 H2B 108.0 . .
C3 C2 H6 105.4(5) . 9_556
H2A C2 H6 115.4 . 9_556
H2B C2 H6 109.2 . 9_556
C1 C2 H5A 123.29(16) . 9_556
C3 C2 H5A 124.59(18) . 9_556
H2A C2 H5A 61.8 . 9_556
H2B C2 H5A 46.2 . 9_556
H6 C2 H5A 128.5 9_556 9_556
C4 C3 C2 111.5 . .
C4 C3 H3A 109.3 . .
C2 C3 H3A 109.3 . .
C4 C3 H3B 109.3 . .
C2 C3 H3B 109.3 . .
H3A C3 H3B 108.0 . .
C4 C3 H4A 85.5(9) . 9_556
C2 C3 H4A 94.1(5) . 9_556
H3B C3 H4A 144.1 . 9_556
C2 C3 H4B 140(4) . 9_556
H3A C3 H4B 99.1 . 9_556
H3B C3 H4B 87.6 . 9_556
H4A C3 H4B 91.9 9_556 9_556
C3 C4 C5 111.5 . .
C3 C4 H4A 109.3 . .
C5 C4 H4A 109.3 . .
C3 C4 H4B 109.3 . .
C5 C4 H4B 109.3 . .
H4A C4 H4B 108.0 . .
C5 C4 H4B 112.5(4) . 9_556
H4A C4 H4B 106.4 . 9_556
H4B C4 H4B 111.2 . 9_556
C6 C5 C4 111.5 . .
C6 C5 H5A 109.3 . .
C4 C5 H5A 109.3 . .
C6 C5 H5B 109.3 . .
C4 C5 H5B 109.3 . .
H5A C5 H5B 108.0 . .
N1 C6 C1 110.2(6) . .
N1 C6 C5 115.9(6) . .
C1 C6 C5 111.5 . .
N1 C6 H6 106.2 . .
C1 C6 H6 106.2 . .
C5 C6 H6 106.2 . .
N1 C6 H6 110.2(7) . 9_556
C5 C6 H6 108.8(4) . 9_556
H6 C6 H6 109.3 . 9_556
O2 In1 O1 180.0 . .
O2 In1 O3 93.58(8) . .
O1 In1 O3 86.42(7) . .
O2 In1 O3 93.58(7) . 11_656
O1 In1 O3 86.42(8) . 11_656
O3 In1 O3 172.84(15) . 11_656
O2 In1 O3 93.58(7) . 19_655
O1 In1 O3 86.42(8) . 19_655
O3 In1 O3 89.06(17) . 19_655
O3 In1 O3 90.49(17) 11_656 19_655
O2 In1 O3 93.58(8) . 16_557
O1 In1 O3 86.42(7) . 16_557
O3 In1 O3 90.49(17) . 16_557
O3 In1 O3 89.06(17) 11_656 16_557
O3 In1 O3 172.84(15) 19_655 16_557
O5 Cu1 N2 94.9(3) . .
O5 Cu1 O4 81.0(3) . .
N2 Cu1 O4 169.6(5) . .
O5 Cu1 N1 173.5(5) . .
N2 Cu1 N1 88.2(3) . .
O4 Cu1 N1 95.0(3) . .
O5 Cu1 Cu1 40.30(19) . 21_665
N2 Cu1 Cu1 134.4(2) . 21_665
O4 Cu1 Cu1 40.68(19) . 21_665
N1 Cu1 Cu1 135.4(3) . 21_665
In1 O2 In1 120.000(2) 14_667 .
In1 O2 In1 120.0 14_667 3_655
In1 O2 In1 120.000(2) . 3_655
C7 O3 In1 133.8(3) . .
C11 O4 Cu1 130.1(3) . 21_665
C11 O4 Cu1 130.1(3) . .
Cu1 O4 Cu1 98.6(4) 21_665 .
C11 O4 Cu1 111.9(8) . 9_556
Cu1 O4 Cu1 98.1(4) 21_665 9_556
C11 O4 Cu1 111.9(8) . 13_666
Cu1 O4 Cu1 98.1(4) . 13_666
Cu1 O4 Cu1 73.2(3) 9_556 13_666
C14 O5 O4 76.5(10) . 13_666
C14 O5 O4 76.5(10) . 9_556
C14 O5 Cu1 128.2(4) . .
O4 O5 Cu1 87.7(5) 13_666 .
O4 O5 Cu1 87.7(5) 9_556 .
C14 O5 Cu1 128.2(4) . 21_665
O4 O5 Cu1 87.7(5) 13_666 21_665
O4 O5 Cu1 87.7(5) 9_556 21_665
Cu1 O5 Cu1 99.4(4) . 21_665
C12 N1 C6 125.0(8) . .
C12 N1 C1 109.3(8) . 9_556
C12 N1 Cu1 124.1(7) . .
C6 N1 Cu1 109.6(5) . .
C1 N1 Cu1 111.9(5) 9_556 .
C12 N1 Cu1 112.7(8) . 9_556
C6 N1 Cu1 98.0(5) . 9_556
C1 N1 Cu1 81.4(4) 9_556 9_556
N1 N2 C13 91.2(10) 9_556 .
N1 N2 C1 97.2(10) 9_556 .
C13 N2 C1 123.2(8) . .
N1 N2 C6 61.2(8) 9_556 9_556
C13 N2 C6 122.8(9) . 9_556
N1 N2 Cu1 97.7(8) 9_556 .
C13 N2 Cu1 125.0(7) . .
C1 N2 Cu1 109.3(5) . .
C6 N2 Cu1 108.6(5) 9_556 .
N1 N2 Cu1 55.3(6) 9_556 9_556
C13 N2 Cu1 118.1(7) . 9_556
C1 N2 Cu1 112.5(5) . 9_556
C6 N2 Cu1 87.5(5) 9_556 9_556
O6 N3 O6 123(2) . 19_655
O6 N3 O7 118.2(11) . .
O6 N3 O7 118.2(11) 19_655 .
O3 C7 O3 126.6(5) 21_665 .
O3 C7 C8 116.7(2) 21_665 .
O3 C7 C8 116.7(2) . .
C16 C8 C16 114.5(10) 9_556 13_666
C16 C8 C9 120.7(6) 9_556 21_665
C16 C8 C9 120.7(6) 13_666 .
C9 C8 C9 113.8(10) 21_665 .
C16 C8 C7 119.5(5) 9_556 .
C16 C8 C7 119.5(5) 13_666 .
C9 C8 C7 119.8(5) 21_665 .
C9 C8 C7 119.8(5) . .
C8 C9 C10 122.8(8) . .
C8 C9 H9 118.6 . .
C10 C9 H9 118.6 . .
C8 C9 H16 98.8(10) . 9_556
C10 C9 H16 120.1(11) . 9_556
H9 C9 H16 47.0 . 9_556
C11 C10 C9 118.0(9) . .
C11 C10 C12 126.5(9) . .
C9 C10 C12 115.4(9) . .
C14 C11 O4 101.4(15) 13_666 .
C14 C11 C10 86.2(11) 13_666 21_665
O4 C11 C10 119.0(6) . 21_665
C14 C11 C10 86.2(11) 13_666 .
O4 C11 C10 119.0(6) . .
C10 C11 C10 121.9(12) 21_665 .
O4 C11 O5 56.8(8) . 9_556
C10 C11 O5 106.8(9) 21_665 9_556
C10 C11 O5 106.9(9) . 9_556
O4 C11 O5 56.8(8) . 13_666
C10 C11 O5 106.8(9) 21_665 13_666
C10 C11 O5 106.9(9) . 13_666
N1 C12 C10 124.8(9) . .
N1 C12 H12 117.6 . .
C10 C12 H12 117.6 . .
N1 C12 H13 114.7(11) . 9_556
C10 C12 H13 108.8(10) . 9_556
N2 C13 C15 126.1(9) . .
N2 C13 H13 116.9 . .
C15 C13 H13 116.9 . .
C11 C14 O5 103.3(15) 13_666 .
C11 C14 O5 103.3(15) 9_556 .
C11 C14 C15 88.2(11) 13_666 21_665
C11 C14 C15 88.2(11) 9_556 21_665
O5 C14 C15 119.9(6) . 21_665
C11 C14 C15 88.2(11) 13_666 .
C11 C14 C15 88.2(11) 9_556 .
O5 C14 C15 119.9(6) . .
C15 C14 C15 119.3(11) 21_665 .
C11 C14 C10 56.5(8) 13_666 13_666
C11 C14 C10 56.5(8) 9_556 13_666
O5 C14 C10 121.2(8) . 13_666
C15 C14 C10 114.2(11) . 13_666
C11 C14 C10 56.5(8) 13_666 9_556
C11 C14 C10 56.5(8) 9_556 9_556
O5 C14 C10 121.2(8) . 9_556
C15 C14 C10 114.2(11) 21_665 9_556
C10 C14 C10 93.8(11) 13_666 9_556
C11 C14 O4 45.5(10) 13_666 9_556
C11 C14 O4 45.5(10) 9_556 9_556
O5 C14 O4 57.8(8) . 9_556
C15 C14 O4 109.7(9) 21_665 9_556
C15 C14 O4 109.7(9) . 9_556
C10 C14 O4 84.2(9) 13_666 9_556
C10 C14 O4 84.2(9) 9_556 9_556
C11 C14 O4 45.5(10) 13_666 13_666
C11 C14 O4 45.5(10) 9_556 13_666
O5 C14 O4 57.8(8) . 13_666
C15 C14 O4 109.7(9) 21_665 13_666
C15 C14 O4 109.7(9) . 13_666
C10 C14 O4 84.2(9) 13_666 13_666
C10 C14 O4 84.2(9) 9_556 13_666
C10 C15 C16 92.5(12) 9_556 .
C10 C15 C14 88.5(13) 9_556 .
C16 C15 C14 117.4(9) . .
C10 C15 C13 90.0(12) 9_556 .
C16 C15 C13 119.2(9) . .
C14 C15 C13 123.4(8) . .
C10 C15 C9 67.7(10) 9_556 9_556
C14 C15 C9 115.9(9) . 9_556
C13 C15 C9 115.5(9) . 9_556
C10 C15 C12 58.9(10) 9_556 9_556
C16 C15 C12 114.6(9) . 9_556
C14 C15 C12 118.7(9) . 9_556
C9 C15 C12 98.6(8) 9_556 9_556
C10 C15 C11 52.8(10) 9_556 13_666
C16 C15 C11 111.8(9) . 13_666
C13 C15 C11 117.3(8) . 13_666
C9 C15 C11 96.1(9) 9_556 13_666
C12 C15 C11 95.6(8) 9_556 13_666
C10 C15 C11 52.8(10) 9_556 9_556
C16 C15 C11 111.8(9) . 9_556
C13 C15 C11 117.3(8) . 9_556
C9 C15 C11 96.1(9) 9_556 9_556
C12 C15 C11 95.6(8) 9_556 9_556
C15 C16 C8 122.6(10) . 13_666
C15 C16 H16 118.7 . .
C8 C16 H16 118.7 13_666 .
loop_
_geom_bond_atom_site_label_1
_geom_bond_atom_site_label_2
_geom_bond_distance
_geom_bond_site_symmetry_2
C1 N2 1.452(10) .
C1 C6 1.498(4) .
C1 C2 1.499(4) .
C1 H1 0.9800 .
C1 H6 0.206(14) 9_556
C2 C3 1.499(4) .
C2 H2A 0.9700 .
C2 H2B 0.9700 .
C2 H5A 0.940(19) 9_556
C3 C4 1.498(4) .
C3 H3A 0.9700 .
C3 H3B 0.9700 .
C3 H4B 0.146(14) 9_556
C4 C5 1.499(4) .
C4 H4A 0.9700 .
C4 H4B 0.9700 .
C5 C6 1.499(4) .
C5 H5A 0.9700 .
C5 H5B 0.9700 .
C6 N1 1.470(10) .
C6 H6 0.9800 .
In1 O2 2.0323(4) .
In1 O1 2.128(5) .
In1 O3 2.158(2) .
In1 O3 2.158(2) 11_656
In1 O3 2.158(2) 19_655
In1 O3 2.158(2) 16_557
Cu1 O5 1.880(5) .
Cu1 N2 1.887(8) .
Cu1 O4 1.891(5) .
Cu1 N1 1.897(8) .
Cu1 Cu1 2.867(3) 21_665
O3 C7 1.254(3) .
O4 C11 1.318(15) .
O5 C14 1.332(15) .
O6 N3 1.173(11) .
O7 N3 1.201(16) .
N1 C12 1.301(12) .
N2 C13 1.288(12) .
C7 C8 1.473(7) .
C8 C16 1.387(12) 9_556
C8 C16 1.387(12) 13_666
C8 C9 1.413(11) 21_665
C8 C9 1.413(11) .
C9 C10 1.418(13) .
C9 H9 0.9300 .
C9 H16 1.226(17) 9_556
C10 C11 1.385(11) .
C10 C12 1.470(13) .
C11 C14 1.009(19) 13_666
C12 H12 0.9300 .
C12 H13 1.282(16) 9_556
C13 C15 1.445(14) .
C13 H13 0.9300 .
C14 C15 1.433(11) 21_665
C14 C15 1.433(11) .
C15 C16 1.366(14) .
C16 H16 0.9300 .
