#------------------------------------------------------------------------------
#$Date: 2019-11-17 05:27:08 +0200 (Sun, 17 Nov 2019) $
#$Revision: 228125 $
#$URL: file:///home/coder/svn-repositories/cod/cif/7/12/16/7121605.cif $
#------------------------------------------------------------------------------
#
# This file is available in the Crystallography Open Database (COD),
# http://www.crystallography.net/
#
# All data on this site have been placed in the public domain by the
# contributors.
#
data_7121605
loop_
_publ_author_name
'Wu, Xue-Song'
'Wang, Xin-Long'
'Zhu, Fu-Long'
'Bao, Hong-Fei'
'Qin, Chao'
'Su, Zhong-Min'
_publ_section_title
;
 Guest exchange in a porous cucurbit[6]uril-based metal-organic rotaxane
 framework probed by NMR and X-ray crystallography.
;
_journal_issue                   43
_journal_name_full
'Chemical communications (Cambridge, England)'
_journal_page_first              5474
_journal_page_last               5477
_journal_paper_doi               10.1039/c8cc02847h
_journal_volume                  54
_journal_year                    2018
_chemical_formula_moiety
'0.25(C96 H80 Cl4 Cu8 N8 O32), 0.5(C36 H36 N24 O12)'
_chemical_formula_sum            'C51 H59 Cl Cu2 N17 O17'
_chemical_formula_weight         1344.68
_space_group_crystal_system      orthorhombic
_space_group_IT_number           58
_space_group_name_Hall           '-P 2 2n'
_space_group_name_H-M_alt        'P n n m'
_symmetry_space_group_name_Hall  '-P 2 2n'
_symmetry_space_group_name_H-M   'P n n m'
_atom_sites_solution_hydrogens   geom
_atom_sites_solution_primary     dual
_audit_creation_date             2018-03-29
_audit_creation_method
;
Olex2 1.2
(compiled 2017.08.10 svn.r3458 for OlexSys, GUI svn.r5381)
;
_audit_update_record
;
2018-04-09 deposited with the CCDC.
2018-05-02 downloaded from the CCDC.
;
_cell_angle_alpha                90
_cell_angle_beta                 90
_cell_angle_gamma                90
_cell_formula_units_Z            4
_cell_length_a                   16.418(7)
_cell_length_b                   29.213(13)
_cell_length_c                   14.052(5)
_cell_measurement_reflns_used    9918
_cell_measurement_temperature    173(2)
_cell_measurement_theta_max      50.000
_cell_measurement_theta_min      1.953
_cell_volume                     6740(5)
_computing_cell_refinement       'SAINT+ Ver. 2016.5-0 (Bruker-AXS, 2016)'
_computing_data_collection       'APEX3 Ver. 2016.5-0 (Bruker-AXS, 2016)'
_computing_data_reduction        'SAINT+ Ver. 2016.5-0 (Bruker-AXS, 2016)'
_computing_molecular_graphics    'Olex2 (Dolomanov et al., 2009)'
_computing_publication_material  'Olex2 (Dolomanov et al., 2009)'
_computing_structure_refinement  'ShelXL (Sheldrick, 2015)'
_computing_structure_solution    'ShelXT (Sheldrick, 2015)'
_diffrn_ambient_temperature      173.15
_diffrn_detector                 'charge-coupled device (CCD) area detector'
_diffrn_detector_area_resol_mean 7.9
_diffrn_detector_type            'Bruker APEX II'
_diffrn_measured_fraction_theta_full 0.987
_diffrn_measured_fraction_theta_max 0.987
_diffrn_measurement_device       'three-circle diffractometer'
_diffrn_measurement_device_type  'Bruker APEX II Quazar'
_diffrn_measurement_method       '0.5\% \w and 0.5\% \f scans'
_diffrn_radiation_collimation    'focusing mirrors'
_diffrn_radiation_detector       'Bruker APEX II'
_diffrn_radiation_monochromator  'mirror optics'
_diffrn_radiation_probe          x-ray
_diffrn_radiation_type           MoK\a
_diffrn_radiation_wavelength     0.71073
_diffrn_reflns_av_R_equivalents  0.0446
_diffrn_reflns_av_unetI/netI     0.0628
_diffrn_reflns_Laue_measured_fraction_full 0.987
_diffrn_reflns_Laue_measured_fraction_max 0.987
_diffrn_reflns_limit_h_max       19
_diffrn_reflns_limit_h_min       -19
_diffrn_reflns_limit_k_max       34
_diffrn_reflns_limit_k_min       -34
_diffrn_reflns_limit_l_max       16
_diffrn_reflns_limit_l_min       -16
_diffrn_reflns_number            17592
_diffrn_reflns_point_group_measured_fraction_full 0.987
_diffrn_reflns_point_group_measured_fraction_max 0.987
_diffrn_reflns_theta_full        25.093
_diffrn_reflns_theta_max         25.093
_diffrn_reflns_theta_min         2.789
_diffrn_source                   'microfocus sealed X-ray tube'
_diffrn_source_type              'Incoatec I\ms'
_exptl_absorpt_coefficient_mu    0.745
_exptl_absorpt_correction_T_max  0.86
_exptl_absorpt_correction_T_min  0.84
_exptl_absorpt_correction_type   multi-scan
_exptl_absorpt_process_details
'SADABS-2016/2 (Krause et al., 2015) was used for absorption correction.'
_exptl_crystal_colour            colorless
_exptl_crystal_density_diffrn    1.325
_exptl_crystal_density_method    'not measured'
_exptl_crystal_description       block
_exptl_crystal_F_000             2780
_exptl_crystal_size_max          0.24
_exptl_crystal_size_mid          0.22
_exptl_crystal_size_min          0.2
_refine_diff_density_max         0.347
_refine_diff_density_min         -0.503
_refine_diff_density_rms         0.068
_refine_ls_extinction_method     none
_refine_ls_goodness_of_fit_ref   1.013
_refine_ls_hydrogen_treatment    constr
_refine_ls_matrix_type           full
_refine_ls_number_parameters     346
_refine_ls_number_reflns         6189
_refine_ls_number_restraints     0
_refine_ls_restrained_S_all      1.013
_refine_ls_R_factor_all          0.0596
_refine_ls_R_factor_gt           0.0402
_refine_ls_shift/su_max          0.001
_refine_ls_shift/su_mean         0.000
_refine_ls_structure_factor_coef Fsqd
_refine_ls_weighting_details
'w=1/[\s^2^(Fo^2^)+(0.0617P)^2^] where P=(Fo^2^+2Fc^2^)/3'
_refine_ls_weighting_scheme      calc
_refine_ls_wR_factor_gt          0.1103
_refine_ls_wR_factor_ref         0.1188
_reflns_Friedel_coverage         0.000
_reflns_number_gt                4474
_reflns_number_total             6189
_reflns_threshold_expression     'I > 2\s(I)'
_cod_data_source_file            c8cc02847h2.cif
_cod_data_source_block           MORF-1
_cod_depositor_comments
'Adding full bibliography for 7121605--7121606.cif.'
_cod_original_cell_volume        6739(5)
_cod_database_code               7121605
_shelx_shelxl_version_number     2018/1
_shelx_space_group_comment
;
The symmetry employed for this shelxl refinement is uniquely defined
by the following loop, which should always be used as a source of
symmetry information in preference to the above space-group names.
They are only intended as comments.
;
_shelx_estimated_absorpt_t_max   0.54
_shelx_estimated_absorpt_t_min   0.21
_olex2_refinement_description
;
1. Fixed Uiso
 At 1.2 times of:
  All C(H) groups, All C(H,H) groups, All N(H,H) groups
2. Others
 Fixed Sof: H2A(0.5) H2B(0.5) H12A(0.5) H12B(0.5) H13A(0.5) H13B(0.5)
 H14A(0.5) H14B(0.5)
3.a Ternary CH refined with riding coordinates:
 C16(H16), C20(H20), C21(H21)
3.b Secondary CH2 refined with riding coordinates:
 N2(H2A,H2B), C12(H12A,H12B), C13(H13A,H13B), C14(H14A,H14B), C17(H17A,H17B),
 C19(H19A,H19B), C22(H22A,H22B), C24(H24A,H24B)
3.c Aromatic/amide H refined with riding coordinates:
 C2(H2), C3(H3), C5(H5), C6(H6), C9(H9), C10(H10)
;
_shelx_res_file
;
TITL mo_WUXS201711152DIWEN_0m_a.res in Pnnm
    1_sq.res
    created by SHELXL-2018/1 at 09:09:09 on 29-Mar-2018
CELL 0.71073 16.4182 29.2128 14.0515 90 90 90
ZERR 4 0.0069 0.013 0.0053 0 0 0
LATT 1
SYMM 0.5+X,0.5-Y,0.5-Z
SYMM 0.5-X,0.5+Y,0.5-Z
SYMM -X,-Y,+Z
SFAC C H Cl Cu N O
UNIT 204 236 4 8 68 68

L.S. 30 0 79
PLAN  20
TEMP 20
BOND $H
ABIN
fmap 2
acta
MERG 2
OMIT 2 0 0
OMIT 0 1 3
OMIT 3 1 4
OMIT 5 0 1
OMIT 5 4 1
OMIT 4 3 2
OMIT 0 6 0
OMIT 1 2 4
OMIT 2 1 1
OMIT 0 4 2
OMIT 3 2 0
OMIT 0 9 1
OMIT 2 1 4
OMIT 1 5 0
OMIT 2 3 4
OMIT 2 3 1
OMIT 4 4 1
OMIT 2 0 4
OMIT 4 2 1
OMIT 1 0 3
OMIT 5 3 0
OMIT 3 5 0
OMIT 3 0 5
OMIT 1 9 0
OMIT 2 2 0
OMIT 2 2 4
OMIT 2 2 1
OMIT 1 3 2
OMIT 5 6 4
OMIT 6 5 1
OMIT 2 6 2
OMIT 7 8 6
OMIT 7 0 1
OMIT 2 8 4
OMIT 7 3 1
OMIT 7 5 0
OMIT 2 2 3
OMIT 7 2 0
OMIT 3 4 0
OMIT 1 4 7
OMIT 3 1 0
OMIT 1 1 5
OMIT 1 2 5
OMIT 4 1 0
OMIT 3 4 1
OMIT 3 5 2
OMIT 1 3 5
OMIT 6 6 3
OMIT 2 4 3
REM <olex2.extras>
REM <HklSrc "%.\\1_sq.hkl">
REM </olex2.extras>

WGHT    0.061700
FVAR       0.23054
CU1   4    0.464631    0.702905    0.000000    10.50000    0.00767    0.02191 =
         0.01095    0.00000    0.00000    0.00055
CU2   4    0.957153    0.705196    0.500000    10.50000    0.00905    0.02257 =
         0.01282    0.00000    0.00000   -0.00116
CL1   3    0.478440    0.621588    0.000000    10.50000    0.04352    0.02248 =
         0.01914    0.00000    0.00000    0.00385
O1    6    0.875267    0.717848    0.401823    11.00000    0.03447    0.03067 =
         0.04242    0.00336   -0.02926   -0.00469
O2    6    0.878990    0.794028    0.401363    11.00000    0.02429    0.02892 =
         0.02573    0.00095   -0.01245   -0.00514
O3    6    0.546943    0.717018    0.098436    11.00000    0.02225    0.03178 =
         0.03129    0.00006   -0.01163   -0.00207
O4    6    0.543983    0.793681    0.096155    11.00000    0.03382    0.02846 =
         0.03325    0.00251   -0.01941   -0.00367
N1    5    0.919249    0.633936    0.500000    10.50000    0.02398    0.02706 =
         0.02630    0.00000    0.00000   -0.00281
N2    5    0.680666    0.533899    0.500000    10.50000    0.02382    0.02845 =
         0.04270    0.00000    0.00000   -0.00768
AFIX  23
H2A   2    0.674128    0.551499    0.551132    10.50000   -1.20000
H2B   2    0.674128    0.551499    0.448868    10.50000   -1.20000
AFIX   0
C1    1    0.779334    0.756764    0.308540    11.00000    0.01815    0.03305 =
         0.02077    0.00318   -0.00693   -0.00600
C2    1    0.754807    0.796788    0.263603    11.00000    0.02585    0.03169 =
         0.03213    0.00677   -0.01389   -0.01259
AFIX  43
H2    2    0.783355    0.823811    0.274171    11.00000   -1.20000
AFIX   0
C3    1    0.688298    0.796790    0.203287    11.00000    0.02983    0.02766 =
         0.03621    0.00834   -0.01505   -0.00479
AFIX  43
H3    2    0.672957    0.823681    0.172732    11.00000   -1.20000
AFIX   0
C4    1    0.644189    0.756816    0.188024    11.00000    0.01884    0.03652 =
         0.02401    0.00554   -0.00877   -0.00778
C5    1    0.669024    0.716834    0.233439    11.00000    0.02932    0.03244 =
         0.03979    0.01429   -0.01868   -0.01292
AFIX  43
H5    2    0.640362    0.689817    0.223243    11.00000   -1.20000
AFIX   0
C6    1    0.735061    0.716746    0.292900    11.00000    0.03203    0.03334 =
         0.04140    0.01320   -0.02099   -0.00834
AFIX  43
H6    2    0.750510    0.689781    0.323099    11.00000   -1.20000
AFIX   0
C7    1    0.850327    0.756221    0.375436    11.00000    0.01481    0.03300 =
         0.01642    0.00123   -0.00264   -0.00466
C8    1    0.572843    0.755852    0.122970    11.00000    0.01523    0.03766 =
         0.01613    0.00174   -0.00222   -0.00361
C9    1    0.894850    0.614048    0.419702    11.00000    0.04646    0.03595 =
         0.03081   -0.00317    0.00444   -0.00771
AFIX  43
H9    2    0.910865    0.627157    0.362365    11.00000   -1.20000
AFIX   0
C10   1    0.847388    0.575285    0.416360    11.00000    0.04422    0.03458 =
         0.03401   -0.00700   -0.00076   -0.00820
AFIX  43
H10   2    0.832144    0.562746    0.358191    11.00000   -1.20000
AFIX   0
C11   1    0.822837    0.555368    0.500000    10.50000    0.02353    0.02764 =
         0.04014    0.00000    0.00000   -0.00130
C12   1    0.764177    0.515637    0.500000    10.50000    0.02931    0.02686 =
         0.05316    0.00000    0.00000   -0.00080
AFIX  23
H12A  2    0.772848    0.496828    0.444020    10.50000   -1.20000
H12B  2    0.772848    0.496828    0.555980    10.50000   -1.20000
AFIX   0
C13   1    0.617264    0.498454    0.500000    10.50000    0.03058    0.02316 =
         0.02850    0.00000    0.00000   -0.00561
AFIX  23
H13A  2    0.624178    0.479268    0.555759    10.50000   -1.20000
H13B  2    0.624178    0.479268    0.444241    10.50000   -1.20000
AFIX   0
C14   1    0.531970    0.517769    0.500000    10.50000    0.02767    0.02438 =
         0.04216    0.00000    0.00000   -0.00542
AFIX  23
H14A  2    0.525103    0.536966    0.555752    10.50000   -1.20000
H14B  2    0.525102    0.536966    0.444248    10.50000   -1.20000
AFIX   0

O5    6    0.681535    0.512436    0.722617    11.00000    0.02920    0.04852 =
         0.04197   -0.00621    0.01299   -0.00357
O6    6    0.656822    0.615006    0.611679    11.00000    0.03178    0.04023 =
         0.03144   -0.00343    0.00255   -0.00423
O7    6    0.292883    0.596086    0.615733    11.00000    0.03501    0.04909 =
         0.03740   -0.00212   -0.00634    0.00463
N3    5    0.580487    0.467129    0.789432    11.00000    0.02726    0.03952 =
         0.02686    0.00094    0.00526    0.00220
N4    5    0.565773    0.542449    0.792396    11.00000    0.02955    0.03484 =
         0.02573   -0.00091    0.00267   -0.00010
N5    5    0.549468    0.615844    0.716489    11.00000    0.03364    0.03879 =
         0.02802   -0.00593    0.00205    0.00207
N6    5    0.541069    0.658153    0.585896    11.00000    0.04084    0.03516 =
         0.02892   -0.00268    0.00053   -0.00052
N7    5    0.393486    0.649749    0.586471    11.00000    0.03652    0.03717 =
         0.03638    0.00215   -0.00698    0.00829
N8    5    0.402120    0.607083    0.716749    11.00000    0.03382    0.03532 =
         0.02969   -0.00196   -0.00535   -0.00173
C15   1    0.616615    0.507839    0.763968    11.00000    0.03108    0.04343 =
         0.02081   -0.00490   -0.00670    0.00041
C16   1    0.494761    0.526062    0.842215    11.00000    0.02686    0.03933 =
         0.01902   -0.00091    0.00049    0.00307
AFIX  13
H16   2    0.491349    0.538464    0.906895    11.00000   -1.20000
AFIX   0
C17   1    0.589472    0.589638    0.790442    11.00000    0.02711    0.04342 =
         0.02471   -0.00447   -0.00286   -0.00267
AFIX  23
H17A  2    0.647925    0.591432    0.781121    11.00000   -1.20000
H17B  2    0.577125    0.603339    0.851645    11.00000   -1.20000
AFIX   0
C18   1    0.589705    0.627879    0.634567    11.00000    0.03596    0.02723 =
         0.02813   -0.01132   -0.00051   -0.00523
C19   1    0.567903    0.680718    0.500000    10.50000    0.05362    0.02584 =
         0.03805    0.00000    0.00000   -0.00621
AFIX  23
H19A  2    0.626932    0.682098    0.500000    10.50000   -1.20000
H19B  2    0.547593    0.711899    0.500000    10.50000   -1.20000
AFIX   0
C20   1    0.464650    0.667309    0.633789    11.00000    0.04963    0.02219 =
         0.03627   -0.00825    0.00498    0.00576
AFIX  13
H20   2    0.458729    0.699902    0.648779    11.00000   -1.20000
AFIX   0
C21   1    0.470356    0.637822    0.725802    11.00000    0.03676    0.03306 =
         0.02845   -0.01284    0.00308    0.00372
AFIX  13
H21   2    0.466779    0.656562    0.783498    11.00000   -1.20000
AFIX   0
C22   1    0.359111    0.668036    0.500000    10.50000    0.04615    0.03595 =
         0.03983    0.00000    0.00000    0.02047
AFIX  23
H22A  2    0.366515    0.700979    0.500000    10.50000   -1.20000
H22B  2    0.300991    0.662071    0.499999    10.50000   -1.20000
AFIX   0
C23   1    0.356260    0.615097    0.636753    11.00000    0.03584    0.03165 =
         0.02983   -0.00769    0.00063    0.01265
C24   1    0.374927    0.575452    0.789632    11.00000    0.03143    0.04185 =
         0.02731   -0.00258    0.00273    0.00507
AFIX  23
H24A  2    0.380838    0.589863    0.851439    11.00000   -1.20000
H24B  2    0.317548    0.569009    0.780087    11.00000   -1.20000
AFIX   0
HKLF 4




REM  mo_WUXS201711152DIWEN_0m_a.res in Pnnm
REM R1 =  0.0402 for    4474 Fo > 4sig(Fo)  and  0.0596 for all    6189 data
REM    346 parameters refined using      0 restraints

END

WGHT      0.0617      0.0000

REM Highest difference peak  0.347,  deepest hole -0.503,  1-sigma level  0.068
Q1    1   0.5000  0.5000  0.8372  10.50000  0.05    0.35
Q2    1   0.6202  0.7556  0.1342  11.00000  0.05    0.30
Q3    1   0.6060  0.7514  0.1687  11.00000  0.05    0.29
Q4    1   0.5651  0.7420  0.1103  11.00000  0.05    0.27
Q5    1   0.6713  0.7691  0.1755  11.00000  0.05    0.27
Q6    1   0.5040  0.6265  0.7280  11.00000  0.05    0.25
Q7    1   0.2401  0.5932  0.6603  11.00000  0.05    0.25
Q8    1   0.6617  0.7368  0.1969  11.00000  0.05    0.24
Q9    1   0.5143  0.5430  0.5000  10.50000  0.05    0.24
Q10   1   0.8416  0.6421  0.3399  11.00000  0.05    0.23
Q11   1   0.4657  0.6197  0.5000  10.50000  0.05    0.22
Q12   1   0.8534  0.7769  0.4025  11.00000  0.05    0.22
Q13   1   0.8225  0.6192  0.5000  10.50000  0.05    0.22
Q14   1   0.4399  0.6206  0.7302  11.00000  0.05    0.22
Q15   1   0.7393  0.7043  0.3160  11.00000  0.05    0.22
Q16   1   0.5407  0.5889 -0.0261  11.00000  0.05    0.22
Q17   1   0.7496  0.7371  0.3175  11.00000  0.05    0.21
Q18   1   0.6982  0.5005  0.6759  11.00000  0.05    0.21
Q19   1   0.3364  0.5993  0.6139  11.00000  0.05    0.21
Q20   1   0.3731  0.6335  0.6013  11.00000  0.05    0.21
;
_shelx_res_checksum              69492
_shelx_fab_file
;
    0    0    2    211.39      0.00
    0    0    4     87.82      0.00
    0    0    6     48.60      0.00
    0    0    8      6.75      0.00
    0    0   10      4.28      0.00
    0    0   12      6.13      0.00
    0    0   14      7.95      0.00
    0    0   16     -0.36      0.00
    1    0    3    -52.90      0.00
    1    0    5    -24.61      0.00
    1    0    7     -9.63      0.00
    1    0    9    -10.49      0.00
    1    0   11     -1.26      0.00
    1    0   13     -0.83      0.00
    1    0   15     -3.43      0.00
    2    0    0   -180.31      0.00
    2    0    2   -130.91      0.00
    2    0    4    -70.37      0.00
    2    0    6     -6.96      0.00
    2    0    8    -14.94      0.00
    2    0   10     -1.31      0.00
    2    0   12      3.93      0.00
    2    0   14     -1.80      0.00
    2    0   16     -0.85      0.00
    3    0    1    -16.89      0.00
    3    0    3      4.37      0.00
    3    0    5     42.87      0.00
    3    0    7     14.78      0.00
    3    0    9      6.58      0.00
    3    0   11      4.66      0.00
    3    0   13      1.01      0.00
    3    0   15     -0.07      0.00
    4    0    0     -0.58      0.00
    4    0    2     43.28      0.00
    4    0    4      3.48      0.00
    4    0    6     -4.01      0.00
    4    0    8    -11.72      0.00
    4    0   10     -8.07      0.00
    4    0   12     -5.93      0.00
    4    0   14     -2.91      0.00
    4    0   16      1.79      0.00
    5    0    1     10.08      0.00
    5    0    3     -6.56      0.00
    5    0    5     -2.17      0.00
    5    0    7      9.96      0.00
    5    0    9      0.24      0.00
    5    0   11      1.18      0.00
    5    0   13      1.07      0.00
    5    0   15      0.00      0.00
    6    0    2    -11.87      0.00
    6    0    4     -8.07      0.00
    6    0    6      7.96      0.00
    6    0    8     20.46      0.00
    6    0   10      6.66      0.00
    6    0   12      1.57      0.00
    6    0   14     -3.66      0.00
    7    0    1    -11.18      0.00
    7    0    3    -15.62      0.00
    7    0    5     -4.28      0.00
    7    0    7      3.07      0.00
    7    0    9     -1.54      0.00
    7    0   11     -1.74      0.00
    7    0   13     -4.55      0.00
    7    0   15      1.63      0.00
    8    0    0      7.66      0.00
    8    0    2     11.96      0.00
    8    0    4     18.61      0.00
    8    0    6      2.31      0.00
    8    0    8      0.43      0.00
    8    0   10      3.44      0.00
    8    0   12      3.30      0.00
    8    0   14     -0.98      0.00
    9    0    1    -14.60      0.00
    9    0    3      8.34      0.00
    9    0    5     -5.63      0.00
    9    0    7     -6.20      0.00
    9    0    9     -2.21      0.00
    9    0   11     -1.16      0.00
    9    0   13     -0.98      0.00
   10    0    0      2.69      0.00
   10    0    2     -2.34      0.00
   10    0    4    -10.65      0.00
   10    0    6     -1.94      0.00
   10    0    8     -0.05      0.00
   10    0   10     -0.07      0.00
   10    0   12     -1.18      0.00
   10    0   14     -1.82      0.00
   11    0    1    -12.92      0.00
   11    0    3      1.80      0.00
   11    0    5      4.08      0.00
   11    0    7      5.87      0.00
   11    0    9     10.95      0.00
   11    0   11      6.52      0.00
   11    0   13      3.81      0.00
   12    0    0      1.60      0.00
   12    0    2     -0.77      0.00
   12    0    4     -5.49      0.00
   12    0    6     -6.73      0.00
   12    0    8     -2.87      0.00
   12    0   10     -4.94      0.00
   12    0   12     -1.16      0.00
   13    0    1      6.80      0.00
   13    0    3      8.41      0.00
   13    0    5      6.16      0.00
   13    0    7      3.76      0.00
   13    0    9      0.12      0.00
   13    0   11      0.38      0.00
   14    0    0      4.08      0.00
   14    0    2     -2.41      0.00
   14    0    4     -3.42      0.00
   14    0    6     -1.56      0.00
   14    0    8     -1.85      0.00
   14    0   10     -3.01      0.00
   15    0    1     -5.33      0.00
   15    0    3     -8.63      0.00
   15    0    5     -7.60      0.00
   15    0    7     -4.63      0.00
   15    0    9     -3.40      0.00
   16    0    0      1.71      0.00
   16    0    2      0.08      0.00
   16    0    4      4.22      0.00
   16    0    6      0.57      0.00
   16    0    8      0.60      0.00
   17    0    1      4.11      0.00
   17    0    5      0.43      0.00
   17    0    7      1.15      0.00
   18    0    0      0.09      0.00
   18    0    2     -1.24      0.00
   18    0    4     -1.28      0.00
   18    0    6     -1.23      0.00
   19    0    1      2.94      0.00
   19    0    3     -0.14      0.00
    0    1    3    -71.67      0.00
    0    1    5    -36.10      0.00
    0    1    7    -26.21      0.00
    0    1    9    -11.09      0.00
    0    1   11     -7.63      0.00
    0    1   13     -6.70      0.00
    0    1   15     -1.03      0.00
    1    1    2     31.12      0.00
    1    1    3      6.23      0.00
    1    1    4     24.35      0.00
    1    1    5      0.55      0.00
    1    1    6      5.76      0.00
    1    1    7      4.13      0.00
    1    1    8     16.90      0.00
    1    1    9     10.23      0.00
    1    1   10      6.91      0.00
    1    1   11      3.87      0.00
    1    1   12      1.88      0.00
    1    1   13     -0.23      0.00
    1    1   14      1.00      0.00
    1    1   15      2.20      0.00
    1    1   16      3.34      0.00
    2    1    1    145.17      0.00
    2    1    2     16.21      0.00
    2    1    3     82.07      0.00
    2    1    4     20.82      0.00
    2    1    5      8.47      0.00
    2    1    6      9.61      0.00
    2    1    7      7.16      0.00
    2    1    8      6.04      0.00
    2    1    9      1.88      0.00
    2    1   10      2.18      0.00
    2    1   11     -2.29      0.00
    2    1   12     -0.74      0.00
    2    1   13      1.32      0.00
    2    1   14     -1.99      0.00
    2    1   15      0.82      0.00
    2    1   16      2.31      0.00
    3    1    0     51.73      0.00
    3    1    1     -1.90      0.00
    3    1    2    -37.30      0.00
    3    1    3     15.46      0.00
    3    1    4    -18.37      0.00
    3    1    5     -3.62      0.00
    3    1    6    -21.71      0.00
    3    1    7     -1.26      0.00
    3    1    8     -3.03      0.00
    3    1    9      2.51      0.00
    3    1   10     -5.87      0.00
    3    1   11     -4.03      0.00
    3    1   12     -4.07      0.00
    3    1   13     -3.24      0.00
    3    1   14     -0.55      0.00
    3    1   15     -0.12      0.00
    3    1   16     -2.36      0.00
    4    1    0      1.31      0.00
    4    1    1    -34.41      0.00
    4    1    2    -14.65      0.00
    4    1    3     -1.79      0.00
    4    1    4    -12.09      0.00
    4    1    5      0.56      0.00
    4    1    6    -11.63      0.00
    4    1    7     10.88      0.00
    4    1    8      0.15      0.00
    4    1    9     10.58      0.00
    4    1   10      0.47      0.00
    4    1   11      6.24      0.00
    4    1   12     -2.37      0.00
    4    1   13      2.71      0.00
    4    1   14      1.59      0.00
    4    1   15      3.08      0.00
    4    1   16      0.71      0.00
    5    1    0     11.70      0.00
    5    1    1    -18.38      0.00
    5    1    2    -12.03      0.00
    5    1    3    -14.31      0.00
    5    1    4      2.66      0.00
    5    1    5     -9.83      0.00
    5    1    6      3.81      0.00
    5    1    7     -0.51      0.00
    5    1    8     -4.36      0.00
    5    1    9      2.76      0.00
    5    1   10     -2.05      0.00
    5    1   11      1.02      0.00
    5    1   12     -1.22      0.00
    5    1   13      0.30      0.00
    5    1   14      0.77      0.00
    5    1   15     -0.61      0.00
    5    1   16      0.37      0.00
    6    1    0    -16.46      0.00
    6    1    1      9.28      0.00
    6    1    2     -6.15      0.00
    6    1    3     10.22      0.00
    6    1    4     -0.19      0.00
    6    1    5      1.41      0.00
    6    1    6     -2.93      0.00
    6    1    7    -14.39      0.00
    6    1    8      0.01      0.00
    6    1    9     -5.50      0.00
    6    1   10      1.86      0.00
    6    1   11     -3.04      0.00
    6    1   12     -1.53      0.00
    6    1   13      1.93      0.00
    6    1   14     -0.97      0.00
    6    1   15     -0.64      0.00
    7    1    0     13.55      0.00
    7    1    1      3.08      0.00
    7    1    2      7.56      0.00
    7    1    3      2.70      0.00
    7    1    4      5.03      0.00
    7    1    5      1.05      0.00
    7    1    6      3.06      0.00
    7    1    7     -0.26      0.00
    7    1    8     -2.61      0.00
    7    1    9      3.32      0.00
    7    1   10      2.19      0.00
    7    1   11      0.96      0.00
    7    1   12      2.10      0.00
    7    1   13     -1.84      0.00
    7    1   14      2.78      0.00
    7    1   15     -2.91      0.00
    8    1    0     -1.81      0.00
    8    1    1     -6.83      0.00
    8    1    2      4.46      0.00
    8    1    3    -10.84      0.00
    8    1    4     -1.18      0.00
    8    1    5     -7.10      0.00
    8    1    6     -2.33      0.00
    8    1    7      0.47      0.00
    8    1    8      4.79      0.00
    8    1    9      0.31      0.00
    8    1   10      1.62      0.00
    8    1   11     -2.29      0.00
    8    1   12     -0.38      0.00
    8    1   13     -1.27      0.00
    8    1   14     -1.96      0.00
    8    1   15     -1.96      0.00
    9    1    0     -6.40      0.00
    9    1    1     10.46      0.00
    9    1    2     -5.39      0.00
    9    1    3     -3.10      0.00
    9    1    4     -7.12      0.00
    9    1    5     -2.06      0.00
    9    1    6      0.14      0.00
    9    1    7      0.74      0.00
    9    1    8      3.29      0.00
    9    1    9     -1.99      0.00
    9    1   10     -1.39      0.00
    9    1   11     -2.39      0.00
    9    1   12     -1.01      0.00
    9    1   13      0.26      0.00
    9    1   14      3.28      0.00
   10    1    0     -5.46      0.00
   10    1    1     20.13      0.00
   10    1    2     -3.12      0.00
   10    1    3      3.35      0.00
   10    1    4     -2.53      0.00
   10    1    5      7.05      0.00
   10    1    6     -2.10      0.00
   10    1    7      0.66      0.00
   10    1    8     -3.42      0.00
   10    1    9     -2.77      0.00
   10    1   10      0.11      0.00
   10    1   11     -0.65      0.00
   10    1   12     -1.58      0.00
   10    1   13      1.26      0.00
   10    1   14      0.66      0.00
   11    1    0     -9.79      0.00
   11    1    1     -8.34      0.00
   11    1    2     -2.41      0.00
   11    1    3     -6.64      0.00
   11    1    4      4.22      0.00
   11    1    5     -7.36      0.00
   11    1    6     -3.46      0.00
   11    1    7     -6.59      0.00
   11    1    8     -5.60      0.00
   11    1    9     -2.74      0.00
   11    1   10     -4.62      0.00
   11    1   11     -2.88      0.00
   11    1   12     -2.10      0.00
   11    1   13      0.74      0.00
   12    1    0      4.60      0.00
   12    1    1      6.10      0.00
   12    1    2      3.12      0.00
   12    1    3     -3.60      0.00
   12    1    4     -0.32      0.00
   12    1    5     -3.26      0.00
   12    1    6      2.77      0.00
   12    1    7      3.03      0.00
   12    1    8     -1.47      0.00
   12    1    9      0.57      0.00
   12    1   10     -2.23      0.00
   12    1   11      0.73      0.00
   12    1   12      2.88      0.00
   12    1   13      0.34      0.00
   13    1    0     -3.22      0.00
   13    1    1      3.53      0.00
   13    1    2     -1.78      0.00
   13    1    3      4.47      0.00
   13    1    4     -0.98      0.00
   13    1    5      6.42      0.00
   13    1    6      1.30      0.00
   13    1    7      3.75      0.00
   13    1    8      0.80      0.00
   13    1    9     -1.43      0.00
   13    1   10      3.53      0.00
   13    1   11      4.08      0.00
   13    1   12     -0.19      0.00
   14    1    0      3.54      0.00
   14    1    1     -3.86      0.00
   14    1    2      0.71      0.00
   14    1    3     -2.41      0.00
   14    1    4     -0.77      0.00
   14    1    5     -2.41      0.00
   14    1    6      0.70      0.00
   14    1    7     -3.60      0.00
   14    1    8      0.09      0.00
   14    1    9     -2.30      0.00
   14    1   10      2.82      0.00
   14    1   11     -3.60      0.00
   15    1    0      5.09      0.00
   15    1    1     -1.19      0.00
   15    1    2      8.43      0.00
   15    1    3      0.00      0.00
   15    1    4      5.27      0.00
   15    1    5      1.20      0.00
   15    1    6      6.98      0.00
   15    1    7     -1.19      0.00
   15    1    8      5.90      0.00
   15    1    9      1.37      0.00
   15    1   10      4.70      0.00
   16    1    0      1.25      0.00
   16    1    1     -3.05      0.00
   16    1    2     -0.40      0.00
   16    1    3     -0.59      0.00
   16    1    4      0.12      0.00
   16    1    5     -0.83      0.00
   16    1    6      0.04      0.00
   16    1    7     -1.20      0.00
   16    1    8     -1.90      0.00
   16    1    9     -2.41      0.00
   17    1    0     -2.46      0.00
   17    1    1      2.04      0.00
   17    1    2     -2.67      0.00
   17    1    3      1.03      0.00
   17    1    4     -2.94      0.00
   17    1    5      0.53      0.00
   17    1    6     -0.82      0.00
   17    1    7     -0.13      0.00
   17    1    8      0.24      0.00
   18    1    0     -1.21      0.00
   18    1    1      0.17      0.00
   18    1    2     -0.61      0.00
   18    1    3      3.47      0.00
   18    1    4      0.05      0.00
   18    1    5      1.86      0.00
   18    1    6      0.71      0.00
   19    1    0      0.23      0.00
   19    1    1     -1.54      0.00
   19    1    2     -1.29      0.00
   19    1    3     -0.50      0.00
    0    2    2      1.45      0.00
    0    2    4     41.55      0.00
    0    2    6     23.79      0.00
    0    2    8     10.52      0.00
    0    2   10      8.65      0.00
    0    2   12      5.47      0.00
    0    2   14      2.71      0.00
    0    2   16      0.17      0.00
    1    2    2     -2.23      0.00
    1    2    3    -41.29      0.00
    1    2    4     -8.31      0.00
    1    2    5    -12.33      0.00
    1    2    6     -6.61      0.00
    1    2    7    -10.81      0.00
    1    2    8     -4.95      0.00
    1    2    9     -2.61      0.00
    1    2   10     -3.13      0.00
    1    2   11     -4.39      0.00
    1    2   12     -2.61      0.00
    1    2   13     -4.13      0.00
    1    2   14      5.36      0.00
    1    2   15     -2.02      0.00
    1    2   16     -1.69      0.00
    2    2    0    -34.62      0.00
    2    2    1     43.73      0.00
    2    2    2    -15.41      0.00
    2    2    3    -33.44      0.00
    2    2    4     -2.01      0.00
    2    2    5     -1.64      0.00
    2    2    6      1.41      0.00
    2    2    7     -1.32      0.00
    2    2    8     -5.93      0.00
    2    2    9     -9.22      0.00
    2    2   10     -0.63      0.00
    2    2   11     -1.15      0.00
    2    2   12     -1.43      0.00
    2    2   13      1.80      0.00
    2    2   14      0.90      0.00
    2    2   15     -2.03      0.00
    2    2   16      1.13      0.00
    3    2    0    -57.71      0.00
    3    2    1     32.12      0.00
    3    2    2    -11.23      0.00
    3    2    3     27.40      0.00
    3    2    4     -8.92      0.00
    3    2    5     29.64      0.00
    3    2    6      4.16      0.00
    3    2    7     10.12      0.00
    3    2    8      4.25      0.00
    3    2    9      8.81      0.00
    3    2   10      2.79      0.00
    3    2   11      6.51      0.00
    3    2   12      4.38      0.00
    3    2   13      2.96      0.00
    3    2   14     -0.89      0.00
    3    2   15      0.07      0.00
    3    2   16     -2.08      0.00
    4    2    0    -19.07      0.00
    4    2    1      8.10      0.00
    4    2    2     18.58      0.00
    4    2    3      8.99      0.00
    4    2    4    -17.64      0.00
    4    2    5     14.87      0.00
    4    2    6    -23.87      0.00
    4    2    7      1.94      0.00
    4    2    8    -15.11      0.00
    4    2    9     -1.23      0.00
    4    2   10     -5.43      0.00
    4    2   11      1.07      0.00
    4    2   12     -3.10      0.00
    4    2   13      1.58      0.00
    4    2   14     -2.89      0.00
    4    2   15     -0.23      0.00
    4    2   16     -2.03      0.00
    5    2    0     10.93      0.00
    5    2    1     11.72      0.00
    5    2    2     12.65      0.00
    5    2    3      4.43      0.00
    5    2    4     10.59      0.00
    5    2    5     -6.16      0.00
    5    2    6      3.25      0.00
    5    2    7     -4.42      0.00
    5    2    8     -2.75      0.00
    5    2    9     -0.78      0.00
    5    2   10     -1.59      0.00
    5    2   11      1.74      0.00
    5    2   12      0.50      0.00
    5    2   13      0.83      0.00
    5    2   14     -1.70      0.00
    5    2   15      0.90      0.00
    5    2   16      0.43      0.00
    6    2    0     -2.18      0.00
    6    2    1     -3.93      0.00
    6    2    2      7.76      0.00
    6    2    3     -1.15      0.00
    6    2    4      2.92      0.00
    6    2    5     -9.97      0.00
    6    2    6      1.13      0.00
    6    2    7     -5.41      0.00
    6    2    8      7.24      0.00
    6    2    9     -3.30      0.00
    6    2   10      2.73      0.00
    6    2   11     -1.80      0.00
    6    2   12      2.75      0.00
    6    2   13      0.11      0.00
    6    2   14     -1.11      0.00
    6    2   15      1.90      0.00
    7    2    0     13.82      0.00
    7    2    1     -8.32      0.00
    7    2    2      1.55      0.00
    7    2    3    -15.78      0.00
    7    2    4     -0.02      0.00
    7    2    5     -7.66      0.00
    7    2    6      4.32      0.00
    7    2    7     -4.04      0.00
    7    2    8      0.14      0.00
    7    2    9     -8.51      0.00
    7    2   10     -3.69      0.00
    7    2   11     -4.08      0.00
    7    2   12      1.26      0.00
    7    2   13     -2.36      0.00
    7    2   14      2.55      0.00
    7    2   15      2.47      0.00
    8    2    0     23.70      0.00
    8    2    1     -7.33      0.00
    8    2    2     14.02      0.00
    8    2    3      8.94      0.00
    8    2    4     15.23      0.00
    8    2    5      5.23      0.00
    8    2    6      7.12      0.00
    8    2    7     -1.16      0.00
    8    2    8     -0.06      0.00
    8    2    9     -0.44      0.00
    8    2   10      2.12      0.00
    8    2   11     -0.69      0.00
    8    2   12      3.05      0.00
    8    2   13      1.25      0.00
    8    2   14      1.73      0.00
    8    2   15      0.42      0.00
    9    2    0      2.57      0.00
    9    2    1     -2.08      0.00
    9    2    2     -4.73      0.00
    9    2    3      5.32      0.00
    9    2    4     -2.19      0.00
    9    2    5      3.37      0.00
    9    2    6     -4.15      0.00
    9    2    7      0.21      0.00
    9    2    8     -4.71      0.00
    9    2    9      1.80      0.00
    9    2   10     -0.50      0.00
    9    2   11      2.80      0.00
    9    2   12     -0.35      0.00
    9    2   13      0.59      0.00
    9    2   14      1.68      0.00
   10    2    0      2.07      0.00
   10    2    1     -2.27      0.00
   10    2    2     -7.81      0.00
   10    2    3      5.70      0.00
   10    2    4     -8.79      0.00
   10    2    5      4.44      0.00
   10    2    6     -0.63      0.00
   10    2    7      4.75      0.00
   10    2    8     -1.61      0.00
   10    2    9      1.13      0.00
   10    2   10      0.66      0.00
   10    2   11      1.70      0.00
   10    2   12     -2.50      0.00
   10    2   13     -1.66      0.00
   10    2   14     -3.70      0.00
   11    2    0      5.02      0.00
   11    2    1     -0.96      0.00
   11    2    2      1.81      0.00
   11    2    3      5.35      0.00
   11    2    4      4.23      0.00
   11    2    5      6.35      0.00
   11    2    6      3.86      0.00
   11    2    7      5.04      0.00
   11    2    8      5.40      0.00
   11    2    9      4.53      0.00
   11    2   10      0.24      0.00
   11    2   11      3.81      0.00
   11    2   12     -0.29      0.00
   11    2   13      0.25      0.00
   12    2    0      3.96      0.00
   12    2    1      5.08      0.00
   12    2    2      1.15      0.00
   12    2    3     -0.22      0.00
   12    2    4     -0.19      0.00
   12    2    5      0.96      0.00
   12    2    6     -4.79      0.00
   12    2    7      0.88      0.00
   12    2    8     -6.14      0.00
   12    2    9      4.81      0.00
   12    2   10     -3.66      0.00
   12    2   11      1.08      0.00
   12    2   12     -1.19      0.00
   12    2   13     -0.27      0.00
   13    2    0    -13.62      0.00
   13    2    1     -3.85      0.00
   13    2    2     -7.69      0.00
   13    2    3      3.19      0.00
   13    2    4     -2.79      0.00
   13    2    5      4.49      0.00
   13    2    6     -6.98      0.00
   13    2    7     -0.21      0.00
   13    2    8     -1.73      0.00
   13    2    9      1.50      0.00
   13    2   10     -1.59      0.00
   13    2   11      1.70      0.00
   13    2   12     -2.97      0.00
   14    2    0     -0.53      0.00
   14    2    1     -0.07      0.00
   14    2    2     -1.53      0.00
   14    2    3     -0.85      0.00
   14    2    4      2.43      0.00
   14    2    5     -2.35      0.00
   14    2    6      1.50      0.00
   14    2    7     -0.32      0.00
   14    2    8      0.67      0.00
   14    2    9     -0.91      0.00
   14    2   10      1.53      0.00
   14    2   11     -3.15      0.00
   15    2    0      0.19      0.00
   15    2    1     -1.49      0.00
   15    2    2      2.91      0.00
   15    2    3     -1.30      0.00
   15    2    4      4.70      0.00
   15    2    5     -0.69      0.00
   15    2    6      1.77      0.00
   15    2    7     -2.34      0.00
   15    2    8      1.83      0.00
   15    2    9      0.55      0.00
   15    2   10      0.26      0.00
   16    2    0      2.31      0.00
   16    2    1     -2.75      0.00
   16    2    2      3.71      0.00
   16    2    3     -1.91      0.00
   16    2    4      3.17      0.00
   16    2    5     -3.14      0.00
   16    2    6     -0.73      0.00
   16    2    7      1.65      0.00
   16    2    8      0.62      0.00
   16    2    9      0.34      0.00
   17    2    0     -2.32      0.00
   17    2    1      2.59      0.00
   17    2    2      1.67      0.00
   17    2    3      0.60      0.00
   17    2    4      1.24      0.00
   17    2    5     -1.24      0.00
   17    2    6      0.72      0.00
   17    2    7      0.34      0.00
   17    2    8      1.85      0.00
   18    2    0     -3.92      0.00
   18    2    1     -0.91      0.00
   18    2    2     -0.25      0.00
   18    2    3      0.74      0.00
   18    2    4     -0.79      0.00
   18    2    5      2.42      0.00
   18    2    6     -0.78      0.00
   19    2    0      2.25      0.00
   19    2    1     -2.84      0.00
   19    2    2     -1.14      0.00
   19    2    3      0.03      0.00
    0    3    3    -26.35      0.00
    0    3    5    -28.84      0.00
    0    3    7     -7.81      0.00
    0    3    9    -13.31      0.00
    0    3   11     -4.07      0.00
    0    3   13     -0.57      0.00
    0    3   15     -3.48      0.00
    1    3    1    -11.82      0.00
    1    3    2     50.41      0.00
    1    3    3     29.43      0.00
    1    3    4      6.21      0.00
    1    3    5     -3.90      0.00
    1    3    6     15.44      0.00
    1    3    7     -2.15      0.00
    1    3    8     10.44      0.00
    1    3    9      3.85      0.00
    1    3   10      4.78      0.00
    1    3   11      0.94      0.00
    1    3   12      3.99      0.00
    1    3   13     -3.64      0.00
    1    3   14      2.24      0.00
    1    3   15      0.25      0.00
    1    3   16      0.02      0.00
    2    3    0     66.63      0.00
    2    3    1     17.00      0.00
    2    3    2      8.99      0.00
    2    3    3      5.91      0.00
    2    3    4      4.92      0.00
    2    3    5     -4.29      0.00
    2    3    6      2.14      0.00
    2    3    7     -1.39      0.00
    2    3    8     -4.78      0.00
    2    3    9     -2.88      0.00
    2    3   10     -1.03      0.00
    2    3   11      0.43      0.00
    2    3   12      2.53      0.00
    2    3   13      0.95      0.00
    2    3   14     -2.22      0.00
    2    3   15     -0.37      0.00
    2    3   16      1.19      0.00
    3    3    0    -59.25      0.00
    3    3    1    -45.34      0.00
    3    3    2    -66.69      0.00
    3    3    3    -13.26      0.00
    3    3    4    -28.16      0.00
    3    3    5    -16.71      0.00
    3    3    6    -16.27      0.00
    3    3    7     -7.46      0.00
    3    3    8    -10.95      0.00
    3    3    9     -1.60      0.00
    3    3   10     -6.82      0.00
    3    3   11     -0.52      0.00
    3    3   12     -2.11      0.00
    3    3   13     -0.28      0.00
    3    3   14     -3.64      0.00
    3    3   15      0.21      0.00
    3    3   16      0.31      0.00
    4    3    0     37.53      0.00
    4    3    1     17.72      0.00
    4    3    2      4.74      0.00
    4    3    3     19.73      0.00
    4    3    4      2.83      0.00
    4    3    5     22.41      0.00
    4    3    6      4.22      0.00
    4    3    7     16.60      0.00
    4    3    8      0.07      0.00
    4    3    9      7.99      0.00
    4    3   10     -0.67      0.00
    4    3   11      2.97      0.00
    4    3   12      0.13      0.00
    4    3   13      0.86      0.00
    4    3   14      3.84      0.00
    4    3   15      1.29      0.00
    4    3   16      2.59      0.00
    5    3    0     -5.20      0.00
    5    3    1     25.34      0.00
    5    3    2    -18.11      0.00
    5    3    3      9.28      0.00
    5    3    4      1.51      0.00
    5    3    5     16.07      0.00
    5    3    6      6.17      0.00
    5    3    7     14.89      0.00
    5    3    8      1.21      0.00
    5    3    9      2.65      0.00
    5    3   10     -1.16      0.00
    5    3   11      3.09      0.00
    5    3   12     -3.11      0.00
    5    3   13      0.85      0.00
    5    3   14     -0.47      0.00
    5    3   15      0.31      0.00
    5    3   16      1.05      0.00
    6    3    0      1.85      0.00
    6    3    1     -4.44      0.00
    6    3    2      3.31      0.00
    6    3    3     -6.39      0.00
    6    3    4      1.58      0.00
    6    3    5     -5.63      0.00
    6    3    6      8.35      0.00
    6    3    7     -3.47      0.00
    6    3    8     -2.41      0.00
    6    3    9     -2.23      0.00
    6    3   10     -1.15      0.00
    6    3   11     -3.37      0.00
    6    3   12     -1.51      0.00
    6    3   13     -0.98      0.00
    6    3   14      1.13      0.00
    6    3   15     -1.09      0.00
    7    3    0      4.07      0.00
    7    3    1      3.82      0.00
    7    3    2     12.75      0.00
    7    3    3    -10.89      0.00
    7    3    4      8.58      0.00
    7    3    5      1.44      0.00
    7    3    6      7.53      0.00
    7    3    7     -2.00      0.00
    7    3    8      8.67      0.00
    7    3    9     -2.86      0.00
    7    3   10      7.29      0.00
    7    3   11      0.91      0.00
    7    3   12     -1.76      0.00
    7    3   13     -0.01      0.00
    7    3   14     -0.65      0.00
    7    3   15      0.62      0.00
    8    3    0    -23.23      0.00
    8    3    1    -12.05      0.00
    8    3    2     -6.46      0.00
    8    3    3     -3.82      0.00
    8    3    4     -6.89      0.00
    8    3    5     -8.46      0.00
    8    3    6     -3.60      0.00
    8    3    7     -5.99      0.00
    8    3    8      3.95      0.00
    8    3    9      1.28      0.00
    8    3   10      3.01      0.00
    8    3   11     -1.19      0.00
    8    3   12      3.69      0.00
    8    3   13     -3.01      0.00
    8    3   14     -2.31      0.00
    8    3   15     -3.87      0.00
    9    3    0    -16.84      0.00
    9    3    1     11.36      0.00
    9    3    2     -0.34      0.00
    9    3    3     -6.31      0.00
    9    3    4     -1.67      0.00
    9    3    5      0.32      0.00
    9    3    6     -3.76      0.00
    9    3    7      3.79      0.00
    9    3    8      1.51      0.00
    9    3    9     -2.26      0.00
    9    3   10     -1.32      0.00
    9    3   11      0.17      0.00
    9    3   12      2.80      0.00
    9    3   13     -0.32      0.00
    9    3   14      0.42      0.00
   10    3    0      0.21      0.00
   10    3    1      7.76      0.00
   10    3    2      8.06      0.00
   10    3    3      6.27      0.00
   10    3    4     10.46      0.00
   10    3    5      1.92      0.00
   10    3    6      6.19      0.00
   10    3    7      1.49      0.00
   10    3    8      1.60      0.00
   10    3    9      2.43      0.00
   10    3   10      3.62      0.00
   10    3   11      0.97      0.00
   10    3   12      1.74      0.00
   10    3   13      1.66      0.00
   10    3   14     -1.24      0.00
   11    3    0     -9.69      0.00
   11    3    1     -6.35      0.00
   11    3    2     -3.52      0.00
   11    3    3      0.94      0.00
   11    3    4     -3.32      0.00
   11    3    5     -5.58      0.00
   11    3    6     -3.76      0.00
   11    3    7     -5.82      0.00
   11    3    8     -1.44      0.00
   11    3    9     -0.49      0.00
   11    3   10     -0.74      0.00
   11    3   11     -0.93      0.00
   11    3   12     -1.50      0.00
   11    3   13      2.45      0.00
   12    3    0      3.20      0.00
   12    3    1      0.29      0.00
   12    3    2      2.78      0.00
   12    3    3      0.32      0.00
   12    3    4     -3.90      0.00
   12    3    5      1.18      0.00
   12    3    6      0.30      0.00
   12    3    7      5.36      0.00
   12    3    8     -0.56      0.00
   12    3    9      3.25      0.00
   12    3   10     -0.55      0.00
   12    3   11     -0.05      0.00
   12    3   12      2.32      0.00
   12    3   13      1.16      0.00
   13    3    0     -1.07      0.00
   13    3    1      0.78      0.00
   13    3    2      1.75      0.00
   13    3    3      2.72      0.00
   13    3    4     -1.98      0.00
   13    3    5      1.62      0.00
   13    3    6      0.64      0.00
   13    3    7      3.23      0.00
   13    3    8      5.26      0.00
   13    3    9     -0.39      0.00
   13    3   10      0.90      0.00
   13    3   11      2.18      0.00
   13    3   12      1.01      0.00
   14    3    0      6.86      0.00
   14    3    1      4.04      0.00
   14    3    2      0.64      0.00
   14    3    3      0.25      0.00
   14    3    4     -4.89      0.00
   14    3    5     -5.67      0.00
   14    3    6     -1.85      0.00
   14    3    7     -1.69      0.00
   14    3    8     -2.07      0.00
   14    3    9     -1.28      0.00
   14    3   10      0.46      0.00
   14    3   11     -1.60      0.00
   15    3    0      1.90      0.00
   15    3    1     -2.01      0.00
   15    3    2      0.43      0.00
   15    3    3     -0.08      0.00
   15    3    4     -0.04      0.00
   15    3    5      1.64      0.00
   15    3    6      1.58      0.00
   15    3    7     -1.79      0.00
   15    3    8      1.57      0.00
   15    3    9      0.36      0.00
   15    3   10     -1.43      0.00
   16    3    0      1.24      0.00
   16    3    1     -5.56      0.00
   16    3    2     -2.33      0.00
   16    3    3     -4.14      0.00
   16    3    4     -2.54      0.00
   16    3    5     -2.84      0.00
   16    3    6      0.45      0.00
   16    3    7     -0.20      0.00
   16    3    8     -1.21      0.00
   16    3    9     -4.93      0.00
   17    3    0      1.60      0.00
   17    3    1      2.70      0.00
   17    3    2     -0.49      0.00
   17    3    3     -0.06      0.00
   17    3    4      2.59      0.00
   17    3    5     -0.57      0.00
   17    3    6      1.28      0.00
   17    3    7      0.51      0.00
   17    3    8      0.15      0.00
   18    3    0      1.77      0.00
   18    3    1      3.25      0.00
   18    3    2      0.17      0.00
   18    3    3     -0.23      0.00
   18    3    4      1.01      0.00
   18    3    5      0.55      0.00
   18    3    6     -0.66      0.00
   19    3    0      4.02      0.00
   19    3    1     -0.06      0.00
   19    3    2     -1.09      0.00
   19    3    3     -0.88      0.00
    0    4    0      3.99      0.00
    0    4    2     46.00      0.00
    0    4    4     40.69      0.00
    0    4    6      9.64      0.00
    0    4    8      5.52      0.00
    0    4   10      4.56      0.00
    0    4   12      5.98      0.00
    0    4   14      0.79      0.00
    0    4   16      4.29      0.00
    1    4    1    -17.19      0.00
    1    4    2    -16.58      0.00
    1    4    3     -9.43      0.00
    1    4    4     -7.51      0.00
    1    4    5     -8.30      0.00
    1    4    6     -5.30      0.00
    1    4    7    -12.13      0.00
    1    4    8      1.99      0.00
    1    4    9     -3.10      0.00
    1    4   10      0.39      0.00
    1    4   11     -2.85      0.00
    1    4   12     -0.07      0.00
    1    4   13     -3.00      0.00
    1    4   14      1.75      0.00
    1    4   15      1.12      0.00
    1    4   16     -1.00      0.00
    2    4    0     19.61      0.00
    2    4    1     34.13      0.00
    2    4    2     -3.48      0.00
    2    4    3      7.16      0.00
    2    4    4     -6.70      0.00
    2    4    5     15.46      0.00
    2    4    6     -2.19      0.00
    2    4    7      4.16      0.00
    2    4    8      3.59      0.00
    2    4    9     -0.07      0.00
    2    4   10      1.14      0.00
    2    4   11     -0.17      0.00
    2    4   12     -2.32      0.00
    2    4   13      0.59      0.00
    2    4   14      1.75      0.00
    2    4   15      0.22      0.00
    2    4   16     -0.13      0.00
    3    4    0     -4.73      0.00
    3    4    1      3.11      0.00
    3    4    2     43.01      0.00
    3    4    3      1.06      0.00
    3    4    4     22.29      0.00
    3    4    5      9.59      0.00
    3    4    6      3.16      0.00
    3    4    7     20.37      0.00
    3    4    8      6.35      0.00
    3    4    9      6.93      0.00
    3    4   10      3.21      0.00
    3    4   11      3.26      0.00
    3    4   12     -3.40      0.00
    3    4   13      2.85      0.00
    3    4   14     -0.79      0.00
    3    4   15      0.72      0.00
    3    4   16      1.52      0.00
    4    4    0     -4.63      0.00
    4    4    1     13.19      0.00
    4    4    2      1.08      0.00
    4    4    3     -1.32      0.00
    4    4    4    -22.97      0.00
    4    4    5    -14.97      0.00
    4    4    6    -10.19      0.00
    4    4    7    -14.00      0.00
    4    4    8     -7.22      0.00
    4    4    9     -4.72      0.00
    4    4   10     -8.82      0.00
    4    4   11     -6.24      0.00
    4    4   12     -2.45      0.00
    4    4   13     -3.00      0.00
    4    4   14      0.45      0.00
    4    4   15     -1.93      0.00
    4    4   16     -2.95      0.00
    5    4    0    -33.21      0.00
    5    4    1      0.39      0.00
    5    4    2    -28.42      0.00
    5    4    3      8.49      0.00
    5    4    4    -19.98      0.00
    5    4    5      5.60      0.00
    5    4    6    -20.85      0.00
    5    4    7      1.64      0.00
    5    4    8     -1.19      0.00
    5    4    9      2.50      0.00
    5    4   10      1.81      0.00
    5    4   11      2.94      0.00
    5    4   12      0.39      0.00
    5    4   13      1.77      0.00
    5    4   14     -3.68      0.00
    5    4   15      1.54      0.00
    5    4   16     -2.56      0.00
    6    4    0     19.83      0.00
    6    4    1    -17.33      0.00
    6    4    2     12.20      0.00
    6    4    3      0.19      0.00
    6    4    4     14.31      0.00
    6    4    5     -8.58      0.00
    6    4    6      9.98      0.00
    6    4    7     -1.31      0.00
    6    4    8      4.12      0.00
    6    4    9      7.56      0.00
    6    4   10      3.11      0.00
    6    4   11      1.74      0.00
    6    4   12      6.24      0.00
    6    4   13     -1.43      0.00
    6    4   14      0.55      0.00
    6    4   15     -0.52      0.00
    7    4    0     16.58      0.00
    7    4    1    -26.47      0.00
    7    4    2      3.88      0.00
    7    4    3    -16.57      0.00
    7    4    4     12.72      0.00
    7    4    5     -9.97      0.00
    7    4    6      4.04      0.00
    7    4    7     -5.13      0.00
    7    4    8      2.50      0.00
    7    4    9     -6.33      0.00
    7    4   10      1.43      0.00
    7    4   11     -1.91      0.00
    7    4   12     -1.92      0.00
    7    4   13      1.60      0.00
    7    4   14     -0.72      0.00
    7    4   15      1.64      0.00
    8    4    0     18.50      0.00
    8    4    1     -2.43      0.00
    8    4    2      1.99      0.00
    8    4    3     15.63      0.00
    8    4    4     -1.66      0.00
    8    4    5      5.31      0.00
    8    4    6      1.61      0.00
    8    4    7     -1.87      0.00
    8    4    8     -1.50      0.00
    8    4    9      1.66      0.00
    8    4   10     -3.98      0.00
    8    4   11     -1.54      0.00
    8    4   12     -0.15      0.00
    8    4   13      0.09      0.00
    8    4   14      2.26      0.00
    8    4   15     -1.47      0.00
    9    4    0     10.77      0.00
    9    4    1      8.54      0.00
    9    4    2     -4.50      0.00
    9    4    3     -0.13      0.00
    9    4    4     -8.07      0.00
    9    4    5      5.16      0.00
    9    4    6     -1.30      0.00
    9    4    7      4.13      0.00
    9    4    8     -2.09      0.00
    9    4    9     -2.76      0.00
    9    4   10      1.75      0.00
    9    4   11     -2.26      0.00
    9    4   12     -3.08      0.00
    9    4   13      0.05      0.00
    9    4   14      2.88      0.00
   10    4    0     -5.04      0.00
   10    4    1     -5.80      0.00
   10    4    2    -11.31      0.00
   10    4    3     -9.11      0.00
   10    4    4     -3.76      0.00
   10    4    5     -4.15      0.00
   10    4    6     -4.11      0.00
   10    4    7     -2.14      0.00
   10    4    8     -3.04      0.00
   10    4    9      1.45      0.00
   10    4   10     -2.70      0.00
   10    4   11     -0.31      0.00
   10    4   12     -2.76      0.00
   10    4   13     -2.59      0.00
   10    4   14      1.12      0.00
   11    4    0      1.70      0.00
   11    4    1      5.85      0.00
   11    4    2     -6.52      0.00
   11    4    3      0.02      0.00
   11    4    4     -4.91      0.00
   11    4    5      1.39      0.00
   11    4    6     -3.94      0.00
   11    4    7      1.82      0.00
   11    4    8     -1.80      0.00
   11    4    9      0.53      0.00
   11    4   10     -3.50      0.00
   11    4   11      1.62      0.00
   11    4   12     -2.24      0.00
   11    4   13      2.71      0.00
   12    4    0      4.92      0.00
   12    4    1      8.50      0.00
   12    4    2     -1.24      0.00
   12    4    3      2.44      0.00
   12    4    4     -2.48      0.00
   12    4    5      7.90      0.00
   12    4    6     -2.54      0.00
   12    4    7      2.99      0.00
   12    4    8     -5.73      0.00
   12    4    9      0.05      0.00
   12    4   10     -3.06      0.00
   12    4   11     -0.85      0.00
   12    4   12     -1.62      0.00
   12    4   13      1.11      0.00
   13    4    0    -10.03      0.00
   13    4    1     -2.69      0.00
   13    4    2     -2.39      0.00
   13    4    3     -4.96      0.00
   13    4    4      4.86      0.00
   13    4    5      0.82      0.00
   13    4    6      1.16      0.00
   13    4    7     -1.38      0.00
   13    4    8     -1.58      0.00
   13    4    9     -1.92      0.00
   13    4   10     -2.65      0.00
   13    4   11     -1.76      0.00
   13    4   12     -2.40      0.00
   14    4    0      3.35      0.00
   14    4    1      0.48      0.00
   14    4    2      1.12      0.00
   14    4    3     -1.82      0.00
   14    4    4      3.37      0.00
   14    4    5      1.14      0.00
   14    4    6      4.11      0.00
   14    4    7      1.34      0.00
   14    4    8     -1.65      0.00
   14    4    9      0.42      0.00
   14    4   10     -1.77      0.00
   14    4   11      1.29      0.00
   15    4    0      0.21      0.00
   15    4    1     -1.58      0.00
   15    4    2      1.23      0.00
   15    4    3     -2.26      0.00
   15    4    4      2.22      0.00
   15    4    5      2.43      0.00
   15    4    6      0.52      0.00
   15    4    7     -2.75      0.00
   15    4    8      3.05      0.00
   15    4    9     -2.28      0.00
   15    4   10      4.22      0.00
   16    4    0      0.70      0.00
   16    4    1      1.46      0.00
   16    4    2      1.57      0.00
   16    4    3     -0.30      0.00
   16    4    4     -1.30      0.00
   16    4    5     -3.79      0.00
   16    4    6      0.51      0.00
   16    4    7     -1.74      0.00
   16    4    8     -0.35      0.00
   16    4    9     -0.28      0.00
   17    4    0     -1.55      0.00
   17    4    1     -1.58      0.00
   17    4    2      1.80      0.00
   17    4    3      0.56      0.00
   17    4    4     -1.65      0.00
   17    4    5      1.86      0.00
   17    4    6     -1.98      0.00
   17    4    7      0.74      0.00
   17    4    8     -3.44      0.00
   18    4    0     -2.89      0.00
   18    4    1     -1.40      0.00
   18    4    2     -0.14      0.00
   18    4    3     -1.43      0.00
   18    4    4      0.67      0.00
   18    4    5      1.35      0.00
   18    4    6      1.08      0.00
   19    4    0      2.89      0.00
   19    4    1     -1.14      0.00
   19    4    2      1.96      0.00
   19    4    3      1.81      0.00
    0    5    1   -111.91      0.00
    0    5    3    -54.56      0.00
    0    5    5    -31.98      0.00
    0    5    7    -11.81      0.00
    0    5    9    -10.41      0.00
    0    5   11     -8.18      0.00
    0    5   13     -1.54      0.00
    0    5   15     -4.00      0.00
    1    5    0     -0.61      0.00
    1    5    1     -1.93      0.00
    1    5    2     -8.70      0.00
    1    5    3     -2.05      0.00
    1    5    4     14.06      0.00
    1    5    5     -4.01      0.00
    1    5    6     13.37      0.00
    1    5    7      4.30      0.00
    1    5    8      4.06      0.00
    1    5    9      1.62      0.00
    1    5   10      2.29      0.00
    1    5   11     -1.57      0.00
    1    5   12     -0.21      0.00
    1    5   13     -1.37      0.00
    1    5   14      0.95      0.00
    1    5   15     -0.70      0.00
    1    5   16     -0.81      0.00
    2    5    0     37.32      0.00
    2    5    1     26.69      0.00
    2    5    2    -36.36      0.00
    2    5    3     37.61      0.00
    2    5    4     -8.72      0.00
    2    5    5     14.35      0.00
    2    5    6      6.02      0.00
    2    5    7     -6.87      0.00
    2    5    8      0.79      0.00
    2    5    9     -0.12      0.00
    2    5   10     -1.13      0.00
    2    5   11      0.50      0.00
    2    5   12      0.64      0.00
    2    5   13     -2.10      0.00
    2    5   14      0.49      0.00
    2    5   15     -0.06      0.00
    2    5   16     -1.09      0.00
    3    5    0    -20.26      0.00
    3    5    1    -55.55      0.00
    3    5    2     -4.00      0.00
    3    5    3    -22.03      0.00
    3    5    4     -0.59      0.00
    3    5    5     -6.67      0.00
    3    5    6    -16.91      0.00
    3    5    7      0.83      0.00
    3    5    8    -13.99      0.00
    3    5    9      1.93      0.00
    3    5   10     -2.44      0.00
    3    5   11      2.18      0.00
    3    5   12     -1.16      0.00
    3    5   13      1.90      0.00
    3    5   14     -1.69      0.00
    3    5   15     -0.87      0.00
    3    5   16      1.69      0.00
    4    5    0     -0.40      0.00
    4    5    1     50.77      0.00
    4    5    2      6.50      0.00
    4    5    3     24.42      0.00
    4    5    4     10.96      0.00
    4    5    5     19.08      0.00
    4    5    6     11.12      0.00
    4    5    7      7.04      0.00
    4    5    8      0.53      0.00
    4    5    9     10.89      0.00
    4    5   10      0.30      0.00
    4    5   11      4.30      0.00
    4    5   12      3.51      0.00
    4    5   13      2.82      0.00
    4    5   14      2.68      0.00
    4    5   15      0.89      0.00
    4    5   16      2.10      0.00
    5    5    0    -40.58      0.00
    5    5    1     -5.87      0.00
    5    5    2    -29.62      0.00
    5    5    3     10.36      0.00
    5    5    4    -12.88      0.00
    5    5    5     14.04      0.00
    5    5    6     -9.23      0.00
    5    5    7      3.33      0.00
    5    5    8     -0.65      0.00
    5    5    9     -1.25      0.00
    5    5   10      1.89      0.00
    5    5   11      1.45      0.00
    5    5   12     -3.73      0.00
    5    5   13     -0.71      0.00
    5    5   14     -2.60      0.00
    5    5   15      0.40      0.00
    6    5    0     -4.90      0.00
    6    5    1      0.75      0.00
    6    5    2     10.19      0.00
    6    5    3    -17.38      0.00
    6    5    4     -5.35      0.00
    6    5    5    -14.58      0.00
    6    5    6     -4.07      0.00
    6    5    7     -9.54      0.00
    6    5    8     -4.81      0.00
    6    5    9     -9.30      0.00
    6    5   10     -3.59      0.00
    6    5   11     -4.45      0.00
    6    5   12     -0.98      0.00
    6    5   13     -2.37      0.00
    6    5   14      2.69      0.00
    6    5   15     -0.27      0.00
    7    5    0      5.68      0.00
    7    5    1      8.57      0.00
    7    5    2     15.46      0.00
    7    5    3    -10.02      0.00
    7    5    4     14.79      0.00
    7    5    5    -10.86      0.00
    7    5    6      9.58      0.00
    7    5    7     -0.45      0.00
    7    5    8      7.37      0.00
    7    5    9     -1.54      0.00
    7    5   10      6.45      0.00
    7    5   11     -1.05      0.00
    7    5   12      0.32      0.00
    7    5   13      2.46      0.00
    7    5   14      2.21      0.00
    7    5   15      0.73      0.00
    8    5    0    -12.74      0.00
    8    5    1     -2.64      0.00
    8    5    2      5.13      0.00
    8    5    3     -3.31      0.00
    8    5    4     -2.16      0.00
    8    5    5     -0.75      0.00
    8    5    6     -2.00      0.00
    8    5    7     -3.36      0.00
    8    5    8      6.00      0.00
    8    5    9      2.55      0.00
    8    5   10     -2.32      0.00
    8    5   11      1.43      0.00
    8    5   12      2.35      0.00
    8    5   13     -0.79      0.00
    8    5   14     -2.39      0.00
    8    5   15     -1.03      0.00
    9    5    0     -3.57      0.00
    9    5    1      1.29      0.00
    9    5    2      3.56      0.00
    9    5    3      0.58      0.00
    9    5    4      0.44      0.00
    9    5    5     -1.81      0.00
    9    5    6      3.38      0.00
    9    5    7     -0.47      0.00
    9    5    8      2.06      0.00
    9    5    9     -7.07      0.00
    9    5   10      4.90      0.00
    9    5   11     -3.76      0.00
    9    5   12      3.90      0.00
    9    5   13     -0.73      0.00
    9    5   14     -4.81      0.00
   10    5    0     -6.07      0.00
   10    5    1      0.82      0.00
   10    5    2      5.31      0.00
   10    5    3      6.99      0.00
   10    5    4      9.58      0.00
   10    5    5     -0.37      0.00
   10    5    6      2.88      0.00
   10    5    7     -1.01      0.00
   10    5    8      1.22      0.00
   10    5    9      1.18      0.00
   10    5   10     -1.26      0.00
   10    5   11     -0.28      0.00
   10    5   12      3.85      0.00
   10    5   13     -4.44      0.00
   10    5   14      2.19      0.00
   11    5    0     -0.15      0.00
   11    5    1     -4.52      0.00
   11    5    2     -0.38      0.00
   11    5    3      4.67      0.00
   11    5    4     -4.10      0.00
   11    5    5     -1.52      0.00
   11    5    6     -2.00      0.00
   11    5    7      1.08      0.00
   11    5    8     -4.45      0.00
   11    5    9     -0.75      0.00
   11    5   10     -2.12      0.00
   11    5   11      0.73      0.00
   11    5   12     -0.52      0.00
   11    5   13     -0.84      0.00
   12    5    0      0.20      0.00
   12    5    1      0.04      0.00
   12    5    2     -1.28      0.00
   12    5    3     10.30      0.00
   12    5    4     -5.92      0.00
   12    5    5      6.05      0.00
   12    5    6     -0.95      0.00
   12    5    7      3.71      0.00
   12    5    8      1.01      0.00
   12    5    9      3.66      0.00
   12    5   10      3.03      0.00
   12    5   11      5.50      0.00
   12    5   12     -0.94      0.00
   13    5    0     -6.80      0.00
   13    5    1     -0.55      0.00
   13    5    2     -1.34      0.00
   13    5    3     -0.63      0.00
   13    5    4     -1.46      0.00
   13    5    5     -4.70      0.00
   13    5    6     -5.37      0.00
   13    5    7      0.58      0.00
   13    5    8      0.91      0.00
   13    5    9      3.06      0.00
   13    5   10      1.62      0.00
   13    5   11      2.67      0.00
   13    5   12      1.01      0.00
   14    5    0      4.79      0.00
   14    5    1      0.17      0.00
   14    5    2      0.60      0.00
   14    5    3      1.48      0.00
   14    5    4     -0.44      0.00
   14    5    5     -4.90      0.00
   14    5    6     -1.40      0.00
   14    5    7     -2.25      0.00
   14    5    8     -3.41      0.00
   14    5    9      0.35      0.00
   14    5   10     -3.09      0.00
   14    5   11      2.93      0.00
   15    5    0      1.21      0.00
   15    5    1     -2.09      0.00
   15    5    2      1.61      0.00
   15    5    3      2.73      0.00
   15    5    4      2.18      0.00
   15    5    5      4.81      0.00
   15    5    6      1.20      0.00
   15    5    7     -0.57      0.00
   15    5    8      3.95      0.00
   15    5    9     -1.91      0.00
   15    5   10      3.02      0.00
   16    5    0      1.22      0.00
   16    5    1      0.64      0.00
   16    5    2     -1.49      0.00
   16    5    3     -1.03      0.00
   16    5    4      1.95      0.00
   16    5    5     -5.67      0.00
   16    5    6      3.13      0.00
   16    5    7      0.62      0.00
   16    5    8      2.63      0.00
   16    5    9     -1.79      0.00
   17    5    0      2.53      0.00
   17    5    1     -1.84      0.00
   17    5    2      2.34      0.00
   17    5    3      0.34      0.00
   17    5    4      1.74      0.00
   17    5    5      2.08      0.00
   17    5    6     -0.70      0.00
   17    5    7      4.19      0.00
   18    5    0     -2.08      0.00
   18    5    1      2.43      0.00
   18    5    2     -1.72      0.00
   18    5    3     -2.87      0.00
   18    5    4      2.18      0.00
   18    5    5     -1.81      0.00
   18    5    6     -1.78      0.00
   19    5    0      3.80      0.00
   19    5    1     -2.74      0.00
   19    5    2     -0.32      0.00
   19    5    3      0.04      0.00
    0    6    0     51.18      0.00
    0    6    2     65.44      0.00
    0    6    4     20.46      0.00
    0    6    6     15.19      0.00
    0    6    8     11.77      0.00
    0    6   10      6.88      0.00
    0    6   12      4.32      0.00
    0    6   14      1.51      0.00
    0    6   16     -0.61      0.00
    1    6    0    -19.10      0.00
    1    6    1     14.55      0.00
    1    6    2     34.90      0.00
    1    6    3    -27.72      0.00
    1    6    4     -0.11      0.00
    1    6    5     -9.51      0.00
    1    6    6     -6.34      0.00
    1    6    7     -1.53      0.00
    1    6    8     -1.35      0.00
    1    6    9     -2.80      0.00
    1    6   10      1.20      0.00
    1    6   11     -0.58      0.00
    1    6   12      3.39      0.00
    1    6   13      0.05      0.00
    1    6   14      0.06      0.00
    1    6   15     -0.99      0.00
    1    6   16      2.45      0.00
    2    6    0    -34.41      0.00
    2    6    1     11.88      0.00
    2    6    2    -28.41      0.00
    2    6    3      1.72      0.00
    2    6    4    -18.22      0.00
    2    6    5     -2.94      0.00
    2    6    6     -3.73      0.00
    2    6    7     -7.39      0.00
    2    6    8      4.84      0.00
    2    6    9     -3.61      0.00
    2    6   10      0.50      0.00
    2    6   11      1.39      0.00
    2    6   12      2.31      0.00
    2    6   13     -0.92      0.00
    2    6   14     -0.90      0.00
    2    6   15      1.66      0.00
    2    6   16      0.37      0.00
    3    6    0     -5.27      0.00
    3    6    1    -20.01      0.00
    3    6    2      1.23      0.00
    3    6    3      9.13      0.00
    3    6    4     -2.78      0.00
    3    6    5      6.37      0.00
    3    6    6      3.75      0.00
    3    6    7     14.47      0.00
    3    6    8      4.08      0.00
    3    6    9      3.46      0.00
    3    6   10      2.63      0.00
    3    6   11      3.90      0.00
    3    6   12     -1.69      0.00
    3    6   13      2.05      0.00
    3    6   14     -0.02      0.00
    3    6   15      0.37      0.00
    3    6   16     -0.16      0.00
    4    6    0      4.94      0.00
    4    6    1      6.72      0.00
    4    6    2     -3.22      0.00
    4    6    3    -16.65      0.00
    4    6    4    -11.18      0.00
    4    6    5     -7.09      0.00
    4    6    6    -11.74      0.00
    4    6    7      7.66      0.00
    4    6    8    -11.86      0.00
    4    6    9     -0.09      0.00
    4    6   10     -8.66      0.00
    4    6   11     -2.98      0.00
    4    6   12     -2.45      0.00
    4    6   13      1.00      0.00
    4    6   14     -1.79      0.00
    4    6   15     -1.53      0.00
    4    6   16     -3.57      0.00
    5    6    0     16.97      0.00
    5    6    1    -18.04      0.00
    5    6    2    -10.95      0.00
    5    6    3      7.69      0.00
    5    6    4     -3.82      0.00
    5    6    5     -2.27      0.00
    5    6    6      7.14      0.00
    5    6    7     -1.76      0.00
    5    6    8      4.98      0.00
    5    6    9      1.42      0.00
    5    6   10      0.12      0.00
    5    6   11      2.77      0.00
    5    6   12      3.71      0.00
    5    6   13      0.97      0.00
    5    6   14      1.39      0.00
    5    6   15     -0.77      0.00
    6    6    0     45.01      0.00
    6    6    1     21.22      0.00
    6    6    2     25.00      0.00
    6    6    3     10.29      0.00
    6    6    4      8.93      0.00
    6    6    5     17.96      0.00
    6    6    6      8.81      0.00
    6    6    7      6.77      0.00
    6    6    8      5.49      0.00
    6    6    9     -0.76      0.00
    6    6   10      0.23      0.00
    6    6   11      1.42      0.00
    6    6   12      2.26      0.00
    6    6   13      0.00      0.00
    6    6   14     -0.49      0.00
    6    6   15      1.68      0.00
    7    6    0      0.05      0.00
    7    6    1    -14.44      0.00
    7    6    2    -19.37      0.00
    7    6    3     -1.92      0.00
    7    6    4      3.39      0.00
    7    6    5     -6.24      0.00
    7    6    6      2.65      0.00
    7    6    7     -3.02      0.00
    7    6    8     -9.80      0.00
    7    6    9     -0.50      0.00
    7    6   10     -0.84      0.00
    7    6   11     -2.07      0.00
    7    6   12     -2.25      0.00
    7    6   13     -3.56      0.00
    7    6   14     -0.56      0.00
    7    6   15     -2.46      0.00
    8    6    0      7.07      0.00
    8    6    1     -5.52      0.00
    8    6    2      2.91      0.00
    8    6    3     -2.11      0.00
    8    6    4     -0.98      0.00
    8    6    5      1.92      0.00
    8    6    6     -3.05      0.00
    8    6    7     -5.01      0.00
    8    6    8     -4.75      0.00
    8    6    9     -0.73      0.00
    8    6   10     -3.23      0.00
    8    6   11      2.83      0.00
    8    6   12     -1.09      0.00
    8    6   13      0.93      0.00
    8    6   14      0.55      0.00
    9    6    0      7.98      0.00
    9    6    1     -0.87      0.00
    9    6    2     -0.13      0.00
    9    6    3     -1.82      0.00
    9    6    4     -1.62      0.00
    9    6    5      3.03      0.00
    9    6    6      5.53      0.00
    9    6    7      1.72      0.00
    9    6    8      2.24      0.00
    9    6    9     -3.65      0.00
    9    6   10      7.83      0.00
    9    6   11      0.19      0.00
    9    6   12     -0.91      0.00
    9    6   13      2.86      0.00
    9    6   14     -0.36      0.00
   10    6    0    -10.14      0.00
   10    6    1      5.77      0.00
   10    6    2     -5.43      0.00
   10    6    3     -1.84      0.00
   10    6    4      3.20      0.00
   10    6    5      2.49      0.00
   10    6    6     -2.17      0.00
   10    6    7     -1.25      0.00
   10    6    8      4.06      0.00
   10    6    9      3.34      0.00
   10    6   10      1.34      0.00
   10    6   11      0.65      0.00
   10    6   12     -0.80      0.00
   10    6   13      0.05      0.00
   10    6   14      4.02      0.00
   11    6    0      5.95      0.00
   11    6    1      8.66      0.00
   11    6    2      3.30      0.00
   11    6    3     -1.99      0.00
   11    6    4      2.76      0.00
   11    6    5      4.27      0.00
   11    6    6     -2.98      0.00
   11    6    7      4.80      0.00
   11    6    8     -1.85      0.00
   11    6    9      5.25      0.00
   11    6   10     -1.17      0.00
   11    6   11      0.53      0.00
   11    6   12      3.30      0.00
   11    6   13      0.77      0.00
   12    6    0     -3.23      0.00
   12    6    1      0.82      0.00
   12    6    2     -3.06      0.00
   12    6    3      0.45      0.00
   12    6    4     -3.19      0.00
   12    6    5      3.45      0.00
   12    6    6     -0.42      0.00
   12    6    7     -1.62      0.00
   12    6    8     -1.86      0.00
   12    6    9      0.55      0.00
   12    6   10     -3.22      0.00
   12    6   11     -1.07      0.00
   12    6   12     -4.32      0.00
   13    6    0     -7.26      0.00
   13    6    1      3.09      0.00
   13    6    2     -2.02      0.00
   13    6    3     -1.34      0.00
   13    6    4     -0.26      0.00
   13    6    5      1.60      0.00
   13    6    6     -1.32      0.00
   13    6    7      0.82      0.00
   13    6    8     -1.93      0.00
   13    6    9     -1.17      0.00
   13    6   10     -1.65      0.00
   13    6   11     -3.10      0.00
   13    6   12     -2.43      0.00
   14    6    0      4.19      0.00
   14    6    1      3.69      0.00
   14    6    2      2.97      0.00
   14    6    3      1.99      0.00
   14    6    4      3.88      0.00
   14    6    5     -0.39      0.00
   14    6    6      4.80      0.00
   14    6    7      2.40      0.00
   14    6    8      2.71      0.00
   14    6    9      2.02      0.00
   14    6   10      2.16      0.00
   14    6   11      3.73      0.00
   15    6    0     -3.02      0.00
   15    6    1     -6.90      0.00
   15    6    2     -0.06      0.00
   15    6    3     -4.92      0.00
   15    6    4     -5.36      0.00
   15    6    5      0.73      0.00
   15    6    6     -5.01      0.00
   15    6    7     -1.17      0.00
   15    6    8      1.29      0.00
   15    6    9      1.47      0.00
   15    6   10      1.79      0.00
   16    6    0      2.50      0.00
   16    6    1      0.30      0.00
   16    6    2      2.00      0.00
   16    6    3      1.51      0.00
   16    6    4      1.36      0.00
   16    6    5     -1.78      0.00
   16    6    6      1.88      0.00
   16    6    7     -2.84      0.00
   16    6    8     -3.32      0.00
   16    6    9     -0.42      0.00
   17    6    0     -1.57      0.00
   17    6    1     -2.42      0.00
   17    6    2      2.16      0.00
   17    6    3      2.77      0.00
   17    6    4      0.86      0.00
   17    6    5      2.39      0.00
   17    6    6      2.83      0.00
   17    6    7     -4.98      0.00
   18    6    0     -4.89      0.00
   18    6    1      1.21      0.00
   18    6    2     -3.31      0.00
   18    6    3     -3.67      0.00
   18    6    4      0.14      0.00
   18    6    5     -1.37      0.00
   19    6    0      3.38      0.00
   19    6    1     -0.57      0.00
   19    6    2      1.03      0.00
    0    7    1    -52.03      0.00
    0    7    3      8.01      0.00
    0    7    5    -14.82      0.00
    0    7    7    -13.40      0.00
    0    7    9      0.10      0.00
    0    7   11     -0.96      0.00
    0    7   13     -2.07      0.00
    0    7   15      1.39      0.00
    1    7    0     37.97      0.00
    1    7    1     -1.65      0.00
    1    7    2     18.23      0.00
    1    7    3      0.95      0.00
    1    7    4     21.84      0.00
    1    7    5      5.32      0.00
    1    7    6     10.02      0.00
    1    7    7      3.68      0.00
    1    7    8      4.63      0.00
    1    7    9     -0.83      0.00
    1    7   10      3.82      0.00
    1    7   11     -3.98      0.00
    1    7   12      1.47      0.00
    1    7   13      1.16      0.00
    1    7   14      1.86      0.00
    1    7   15     -3.31      0.00
    1    7   16      2.18      0.00
    2    7    0     19.70      0.00
    2    7    1     21.62      0.00
    2    7    2     -5.05      0.00
    2    7    3      5.37      0.00
    2    7    4     12.13      0.00
    2    7    5      1.55      0.00
    2    7    6     -0.46      0.00
    2    7    7     -0.79      0.00
    2    7    8     -2.31      0.00
    2    7    9     -0.08      0.00
    2    7   10     -1.96      0.00
    2    7   11     -1.82      0.00
    2    7   12     -1.43      0.00
    2    7   13     -1.39      0.00
    2    7   14     -0.64      0.00
    2    7   15     -0.22      0.00
    2    7   16     -1.34      0.00
    3    7    0    -27.47      0.00
    3    7    1     27.81      0.00
    3    7    2    -34.04      0.00
    3    7    3     17.91      0.00
    3    7    4    -32.00      0.00
    3    7    5      0.08      0.00
    3    7    6    -10.26      0.00
    3    7    7    -11.77      0.00
    3    7    8     -6.93      0.00
    3    7    9     -1.74      0.00
    3    7   10     -5.25      0.00
    3    7   11      1.22      0.00
    3    7   12     -5.59      0.00
    3    7   13     -2.45      0.00
    3    7   14      0.32      0.00
    3    7   15     -0.48      0.00
    3    7   16     -2.25      0.00
    4    7    0     17.98      0.00
    4    7    1     40.67      0.00
    4    7    2     32.09      0.00
    4    7    3      2.68      0.00
    4    7    4     11.48      0.00
    4    7    5     19.55      0.00
    4    7    6    -10.44      0.00
    4    7    7     12.96      0.00
    4    7    8     -7.39      0.00
    4    7    9      7.22      0.00
    4    7   10      0.63      0.00
    4    7   11      0.69      0.00
    4    7   12     -0.22      0.00
    4    7   13      2.75      0.00
    4    7   14     -1.26      0.00
    4    7   15      3.43      0.00
    4    7   16      4.36      0.00
    5    7    0    -29.21      0.00
    5    7    1    -14.77      0.00
    5    7    2     -6.46      0.00
    5    7    3     -1.71      0.00
    5    7    4      7.39      0.00
    5    7    5     -9.43      0.00
    5    7    6      4.71      0.00
    5    7    7     -9.38      0.00
    5    7    8      0.87      0.00
    5    7    9     -0.40      0.00
    5    7   10      1.36      0.00
    5    7   11     -2.13      0.00
    5    7   12     -1.49      0.00
    5    7   13     -3.65      0.00
    5    7   14     -0.19      0.00
    5    7   15     -0.62      0.00
    6    7    0    -15.41      0.00
    6    7    1      0.03      0.00
    6    7    2      7.28      0.00
    6    7    3     -8.50      0.00
    6    7    4     -6.96      0.00
    6    7    5     -3.34      0.00
    6    7    6     -5.26      0.00
    6    7    7     -8.00      0.00
    6    7    8      3.79      0.00
    6    7    9     -8.62      0.00
    6    7   10      0.93      0.00
    6    7   11     -2.03      0.00
    6    7   12     -3.32      0.00
    6    7   13      0.25      0.00
    6    7   14     -2.77      0.00
    6    7   15      1.88      0.00
    7    7    0    -13.57      0.00
    7    7    1     -5.88      0.00
    7    7    2      0.19      0.00
    7    7    3      3.18      0.00
    7    7    4     13.59      0.00
    7    7    5     -3.98      0.00
    7    7    6      4.85      0.00
    7    7    7      2.64      0.00
    7    7    8      7.52      0.00
    7    7    9      5.09      0.00
    7    7   10      4.61      0.00
    7    7   11      0.75      0.00
    7    7   12      3.59      0.00
    7    7   13      0.75      0.00
    7    7   14      4.63      0.00
    7    7   15     -1.68      0.00
    8    7    0      8.15      0.00
    8    7    1      2.52      0.00
    8    7    2     13.63      0.00
    8    7    3     -4.11      0.00
    8    7    4      6.48      0.00
    8    7    5     -7.46      0.00
    8    7    6     -0.91      0.00
    8    7    7     -1.17      0.00
    8    7    8      5.03      0.00
    8    7    9      0.75      0.00
    8    7   10     -1.71      0.00
    8    7   11     -4.94      0.00
    8    7   12      2.43      0.00
    8    7   13      0.87      0.00
    8    7   14      1.84      0.00
    9    7    0      6.95      0.00
    9    7    1     -8.72      0.00
    9    7    2      1.19      0.00
    9    7    3     -1.96      0.00
    9    7    4     -4.61      0.00
    9    7    5     -6.32      0.00
    9    7    6      0.02      0.00
    9    7    7     -1.79      0.00
    9    7    8      1.97      0.00
    9    7    9     -2.97      0.00
    9    7   10      1.56      0.00
    9    7   11     -4.45      0.00
    9    7   12      0.15      0.00
    9    7   13     -2.00      0.00
    9    7   14     -1.75      0.00
   10    7    0     -2.35      0.00
   10    7    1     -0.15      0.00
   10    7    2     -4.88      0.00
   10    7    3      6.88      0.00
   10    7    4     -4.40      0.00
   10    7    5     -2.59      0.00
   10    7    6      1.62      0.00
   10    7    7     -4.05      0.00
   10    7    8      2.24      0.00
   10    7    9     -1.38      0.00
   10    7   10     -1.02      0.00
   10    7   11     -1.67      0.00
   10    7   12     -0.44      0.00
   10    7   13     -0.63      0.00
   11    7    0      0.91      0.00
   11    7    1     -1.78      0.00
   11    7    2     -4.97      0.00
   11    7    3     -0.83      0.00
   11    7    4     -5.84      0.00
   11    7    5     -0.25      0.00
   11    7    6     -2.52      0.00
   11    7    7      4.59      0.00
   11    7    8     -5.18      0.00
   11    7    9     -1.19      0.00
   11    7   10     -3.77      0.00
   11    7   11      2.07      0.00
   11    7   12      2.56      0.00
   11    7   13     -5.96      0.00
   12    7    0     -0.10      0.00
   12    7    1     -1.68      0.00
   12    7    2     -0.88      0.00
   12    7    3      3.58      0.00
   12    7    4     -1.99      0.00
   12    7    5      1.64      0.00
   12    7    6      0.67      0.00
   12    7    7      3.98      0.00
   12    7    8     -0.06      0.00
   12    7    9      2.56      0.00
   12    7   10      1.13      0.00
   12    7   11      3.63      0.00
   12    7   12     -4.92      0.00
   13    7    0     -1.83      0.00
   13    7    1      4.83      0.00
   13    7    2     -3.80      0.00
   13    7    3      1.41      0.00
   13    7    4     -2.47      0.00
   13    7    5      0.40      0.00
   13    7    6     -2.08      0.00
   13    7    7      1.33      0.00
   13    7    8     -0.83      0.00
   13    7    9      1.44      0.00
   13    7   10     -0.28      0.00
   13    7   11      1.32      0.00
   13    7   12     -4.09      0.00
   14    7    0      1.23      0.00
   14    7    1      0.11      0.00
   14    7    2     -2.11      0.00
   14    7    3     -1.40      0.00
   14    7    4      1.76      0.00
   14    7    5     -2.30      0.00
   14    7    6      2.63      0.00
   14    7    7     -1.59      0.00
   14    7    8      0.57      0.00
   14    7    9     -3.13      0.00
   14    7   10     -2.05      0.00
   14    7   11     -3.80      0.00
   15    7    0      1.05      0.00
   15    7    1     -4.89      0.00
   15    7    2      1.85      0.00
   15    7    3     -4.52      0.00
   15    7    4      1.48      0.00
   15    7    5      2.93      0.00
   15    7    6      0.79      0.00
   15    7    7      2.19      0.00
   15    7    8      2.18      0.00
   15    7    9     -0.52      0.00
   15    7   10     -2.36      0.00
   16    7    0      3.45      0.00
   16    7    1     -0.12      0.00
   16    7    2     -0.73      0.00
   16    7    3     -2.08      0.00
   16    7    4     -0.69      0.00
   16    7    5     -0.98      0.00
   16    7    6     -1.34      0.00
   16    7    7      1.60      0.00
   16    7    8     -1.40      0.00
   16    7    9     -2.52      0.00
   17    7    0     -0.88      0.00
   17    7    1      2.08      0.00
   17    7    2      0.26      0.00
   17    7    3     -0.87      0.00
   17    7    4      1.26      0.00
   17    7    5     -4.65      0.00
   17    7    6      3.08      0.00
   17    7    7     -1.05      0.00
   18    7    0      4.42      0.00
   18    7    1      1.45      0.00
   18    7    2      2.89      0.00
   18    7    3     -1.18      0.00
   18    7    4      1.45      0.00
   18    7    5      0.48      0.00
   19    7    0      1.32      0.00
   19    7    1     -1.62      0.00
   19    7    2      1.28      0.00
    0    8    0     14.98      0.00
    0    8    2     15.98      0.00
    0    8    4      1.69      0.00
    0    8    6     11.13      0.00
    0    8    8      1.96      0.00
    0    8   10     -0.02      0.00
    0    8   12     -0.38      0.00
    0    8   14      2.81      0.00
    0    8   16     -2.95      0.00
    1    8    0     12.66      0.00
    1    8    1     -6.19      0.00
    1    8    2     14.42      0.00
    1    8    3    -31.34      0.00
    1    8    4     -5.53      0.00
    1    8    5    -10.97      0.00
    1    8    6      4.36      0.00
    1    8    7     -5.93      0.00
    1    8    8      3.84      0.00
    1    8    9    -10.12      0.00
    1    8   10      2.04      0.00
    1    8   11     -4.74      0.00
    1    8   12      1.47      0.00
    1    8   13     -1.55      0.00
    1    8   14      3.28      0.00
    1    8   15     -1.13      0.00
    1    8   16      1.17      0.00
    2    8    0     -5.59      0.00
    2    8    1    -33.12      0.00
    2    8    2      9.29      0.00
    2    8    3    -16.28      0.00
    2    8    4      5.58      0.00
    2    8    5     -9.38      0.00
    2    8    6     -6.33      0.00
    2    8    7      3.10      0.00
    2    8    8     -2.09      0.00
    2    8    9      0.09      0.00
    2    8   10     -0.11      0.00
    2    8   11      0.66      0.00
    2    8   12      1.46      0.00
    2    8   13      0.12      0.00
    2    8   14     -2.70      0.00
    2    8   15      2.69      0.00
    2    8   16      2.79      0.00
    3    8    0    -16.26      0.00
    3    8    1     18.97      0.00
    3    8    2     -9.08      0.00
    3    8    3     44.08      0.00
    3    8    4     -2.68      0.00
    3    8    5     18.02      0.00
    3    8    6     11.88      0.00
    3    8    7      7.02      0.00
    3    8    8      6.88      0.00
    3    8    9      5.58      0.00
    3    8   10     -0.32      0.00
    3    8   11      6.44      0.00
    3    8   12      0.66      0.00
    3    8   13      1.92      0.00
    3    8   14      1.96      0.00
    3    8   15      2.04      0.00
    3    8   16     -1.18      0.00
    4    8    0      7.11      0.00
    4    8    1    -17.69      0.00
    4    8    2     -6.23      0.00
    4    8    3      6.00      0.00
    4    8    4     -5.43      0.00
    4    8    5      4.87      0.00
    4    8    6    -11.89      0.00
    4    8    7      6.57      0.00
    4    8    8     -8.20      0.00
    4    8    9      0.09      0.00
    4    8   10     -3.24      0.00
    4    8   11     -2.06      0.00
    4    8   12     -0.14      0.00
    4    8   13      1.42      0.00
    4    8   14     -1.81      0.00
    4    8   15     -2.21      0.00
    5    8    0     -7.81      0.00
    5    8    1    -20.85      0.00
    5    8    2    -15.27      0.00
    5    8    3     -4.67      0.00
    5    8    4     -3.16      0.00
    5    8    5     -6.83      0.00
    5    8    6     -8.65      0.00
    5    8    7      5.97      0.00
    5    8    8     -3.40      0.00
    5    8    9      6.38      0.00
    5    8   10     -0.43      0.00
    5    8   11      1.36      0.00
    5    8   12      2.74      0.00
    5    8   13      0.90      0.00
    5    8   14      2.30      0.00
    5    8   15     -3.78      0.00
    6    8    0     30.87      0.00
    6    8    1     16.45      0.00
    6    8    2      7.41      0.00
    6    8    3      4.48      0.00
    6    8    4     -7.25      0.00
    6    8    5     -0.41      0.00
    6    8    6      6.77      0.00
    6    8    7      0.45      0.00
    6    8    8      4.55      0.00
    6    8    9      2.23      0.00
    6    8   10     -1.68      0.00
    6    8   11      3.45      0.00
    6    8   12     -1.86      0.00
    6    8   13      1.50      0.00
    6    8   14      0.46      0.00
    6    8   15      2.15      0.00
    7    8    0     -9.44      0.00
    7    8    1    -17.78      0.00
    7    8    2    -12.61      0.00
    7    8    3    -13.13      0.00
    7    8    4     -6.54      0.00
    7    8    5     -3.86      0.00
    7    8    6      1.81      0.00
    7    8    7     -4.63      0.00
    7    8    8      0.53      0.00
    7    8    9     -0.56      0.00
    7    8   10     -0.98      0.00
    7    8   11      2.69      0.00
    7    8   12     -1.62      0.00
    7    8   13     -2.28      0.00
    7    8   14     -1.02      0.00
    7    8   15     -1.78      0.00
    8    8    0      6.64      0.00
    8    8    1     10.05      0.00
    8    8    2      8.26      0.00
    8    8    3     -3.63      0.00
    8    8    4      4.08      0.00
    8    8    5      3.09      0.00
    8    8    6      5.41      0.00
    8    8    7      2.41      0.00
    8    8    8     -2.02      0.00
    8    8    9     -1.48      0.00
    8    8   10      3.24      0.00
    8    8   11     -0.09      0.00
    8    8   12      1.70      0.00
    8    8   13     -0.17      0.00
    8    8   14     -2.73      0.00
    9    8    0     -7.67      0.00
    9    8    1     -6.20      0.00
    9    8    2     -0.69      0.00
    9    8    3     -6.06      0.00
    9    8    4      3.62      0.00
    9    8    5      5.13      0.00
    9    8    6     -0.07      0.00
    9    8    7      2.71      0.00
    9    8    8     -1.35      0.00
    9    8    9     -4.05      0.00
    9    8   10      4.06      0.00
    9    8   11      1.42      0.00
    9    8   12     -0.16      0.00
    9    8   13     -2.04      0.00
    9    8   14     -0.70      0.00
   10    8    0     -4.50      0.00
   10    8    1      3.02      0.00
   10    8    2      0.47      0.00
   10    8    3     -0.55      0.00
   10    8    4      0.59      0.00
   10    8    5     -0.38      0.00
   10    8    6     -1.12      0.00
   10    8    7     -5.24      0.00
   10    8    8     -0.42      0.00
   10    8    9     -3.08      0.00
   10    8   10      0.65      0.00
   10    8   11     -1.78      0.00
   10    8   12      0.18      0.00
   10    8   13      2.53      0.00
   11    8    0      0.31      0.00
   11    8    1      7.35      0.00
   11    8    2      2.36      0.00
   11    8    3      2.71      0.00
   11    8    4      2.92      0.00
   11    8    5      3.56      0.00
   11    8    6     -0.53      0.00
   11    8    7      2.54      0.00
   11    8    8     -0.19      0.00
   11    8    9      3.52      0.00
   11    8   10     -1.54      0.00
   11    8   11      2.47      0.00
   11    8   12      4.04      0.00
   11    8   13     -0.97      0.00
   12    8    0     -8.35      0.00
   12    8    1     -4.72      0.00
   12    8    2     -0.76      0.00
   12    8    3     -1.15      0.00
   12    8    4     -2.24      0.00
   12    8    5      0.18      0.00
   12    8    6     -4.37      0.00
   12    8    7     -1.04      0.00
   12    8    8     -1.40      0.00
   12    8    9      2.53      0.00
   12    8   10     -2.66      0.00
   12    8   11     -3.21      0.00
   12    8   12      0.82      0.00
   13    8    0     -2.58      0.00
   13    8    1      2.36      0.00
   13    8    2     -3.93      0.00
   13    8    3      2.92      0.00
   13    8    4     -1.91      0.00
   13    8    5      0.13      0.00
   13    8    6     -1.09      0.00
   13    8    7     -1.91      0.00
   13    8    8     -3.22      0.00
   13    8    9     -1.65      0.00
   13    8   10     -3.74      0.00
   13    8   11      3.27      0.00
   14    8    0      1.20      0.00
   14    8    1      2.69      0.00
   14    8    2      3.62      0.00
   14    8    3      4.75      0.00
   14    8    4      3.30      0.00
   14    8    5      1.96      0.00
   14    8    6      2.59      0.00
   14    8    7      1.69      0.00
   14    8    8      0.39      0.00
   14    8    9     -1.34      0.00
   14    8   10      3.32      0.00
   14    8   11      0.79      0.00
   15    8    0      1.94      0.00
   15    8    1     -3.14      0.00
   15    8    2      1.22      0.00
   15    8    3     -0.53      0.00
   15    8    4     -1.59      0.00
   15    8    5     -3.20      0.00
   15    8    6     -2.64      0.00
   15    8    7     -3.53      0.00
   15    8    8     -1.64      0.00
   15    8    9     -0.33      0.00
   15    8   10      1.21      0.00
   16    8    0      7.39      0.00
   16    8    1      3.49      0.00
   16    8    2      3.64      0.00
   16    8    3      4.96      0.00
   16    8    4     -1.34      0.00
   16    8    5      4.43      0.00
   16    8    6     -2.66      0.00
   16    8    7     -2.30      0.00
   16    8    8     -1.45      0.00
   17    8    0     -4.97      0.00
   17    8    1     -0.34      0.00
   17    8    2     -2.15      0.00
   17    8    3     -1.96      0.00
   17    8    4      2.38      0.00
   17    8    5     -3.37      0.00
   17    8    6      4.74      0.00
   17    8    7     -1.16      0.00
   18    8    0      0.12      0.00
   18    8    1     -2.60      0.00
   18    8    2     -3.46      0.00
   18    8    3     -5.53      0.00
   18    8    4      0.72      0.00
   18    8    5     -3.27      0.00
   19    8    0     -0.06      0.00
   19    8    1      1.54      0.00
    0    9    1    -26.09      0.00
    0    9    3      3.71      0.00
    0    9    5    -13.70      0.00
    0    9    7    -14.20      0.00
    0    9    9     -0.95      0.00
    0    9   11      0.49      0.00
    0    9   13     -3.20      0.00
    0    9   15     -1.34      0.00
    1    9    0     -4.30      0.00
    1    9    1      4.53      0.00
    1    9    2     -0.29      0.00
    1    9    3      1.17      0.00
    1    9    4     12.80      0.00
    1    9    5      3.04      0.00
    1    9    6      4.70      0.00
    1    9    7     -5.82      0.00
    1    9    8      4.25      0.00
    1    9    9      0.39      0.00
    1    9   10      2.29      0.00
    1    9   11     -0.97      0.00
    1    9   12      2.27      0.00
    1    9   13     -1.95      0.00
    1    9   14     -0.12      0.00
    1    9   15     -5.43      0.00
    1    9   16     -0.28      0.00
    2    9    0    -14.65      0.00
    2    9    1     -3.74      0.00
    2    9    2     -9.51      0.00
    2    9    3      4.84      0.00
    2    9    4      8.62      0.00
    2    9    5      5.88      0.00
    2    9    6     -3.77      0.00
    2    9    7      3.47      0.00
    2    9    8     -1.28      0.00
    2    9    9      3.70      0.00
    2    9   10      1.91      0.00
    2    9   11      0.08      0.00
    2    9   12      0.48      0.00
    2    9   13      4.25      0.00
    2    9   14     -3.04      0.00
    2    9   15     -1.58      0.00
    2    9   16      0.18      0.00
    3    9    0    -28.85      0.00
    3    9    1      7.03      0.00
    3    9    2    -19.77      0.00
    3    9    3    -21.91      0.00
    3    9    4    -16.91      0.00
    3    9    5     -1.02      0.00
    3    9    6     -2.69      0.00
    3    9    7     -1.75      0.00
    3    9    8     -1.56      0.00
    3    9    9      0.25      0.00
    3    9   10     -1.67      0.00
    3    9   11      1.35      0.00
    3    9   12     -2.37      0.00
    3    9   13      0.58      0.00
    3    9   14      0.68      0.00
    3    9   15      1.64      0.00
    4    9    0     -0.21      0.00
    4    9    1     16.17      0.00
    4    9    2     -9.27      0.00
    4    9    3     -2.57      0.00
    4    9    4     -5.19      0.00
    4    9    5      4.90      0.00
    4    9    6      8.72      0.00
    4    9    7      1.01      0.00
    4    9    8      3.93      0.00
    4    9    9      1.15      0.00
    4    9   10      3.09      0.00
    4    9   11      1.75      0.00
    4    9   12      0.82      0.00
    4    9   13     -0.87      0.00
    4    9   14      0.74      0.00
    4    9   15      2.75      0.00
    5    9    0    -13.90      0.00
    5    9    1      0.33      0.00
    5    9    2      3.54      0.00
    5    9    3    -11.46      0.00
    5    9    4      3.00      0.00
    5    9    5     10.31      0.00
    5    9    6     -6.09      0.00
    5    9    7      8.12      0.00
    5    9    8     -3.34      0.00
    5    9    9     -2.24      0.00
    5    9   10      0.12      0.00
    5    9   11     -3.17      0.00
    5    9   12      0.62      0.00
    5    9   13     -0.01      0.00
    5    9   14     -2.06      0.00
    5    9   15      1.13      0.00
    6    9    0     10.28      0.00
    6    9    1      7.83      0.00
    6    9    2      6.63      0.00
    6    9    3      3.70      0.00
    6    9    4      6.04      0.00
    6    9    5     -4.50      0.00
    6    9    6      8.21      0.00
    6    9    7     -6.11      0.00
    6    9    8     -3.57      0.00
    6    9    9     -5.41      0.00
    6    9   10     -1.25      0.00
    6    9   11     -0.30      0.00
    6    9   12     -0.17      0.00
    6    9   13     -0.82      0.00
    6    9   14      1.55      0.00
    6    9   15     -0.44      0.00
    7    9    0     -1.58      0.00
    7    9    1    -13.75      0.00
    7    9    2      2.34      0.00
    7    9    3      1.45      0.00
    7    9    4      9.03      0.00
    7    9    5     -0.32      0.00
    7    9    6      4.06      0.00
    7    9    7     -6.53      0.00
    7    9    8      4.06      0.00
    7    9    9     -1.82      0.00
    7    9   10      1.96      0.00
    7    9   11      2.68      0.00
    7    9   12      2.09      0.00
    7    9   13      1.22      0.00
    7    9   14     -0.79      0.00
    7    9   15     -2.35      0.00
    8    9    0     15.65      0.00
    8    9    1      5.68      0.00
    8    9    2      4.18      0.00
    8    9    3      1.74      0.00
    8    9    4      0.02      0.00
    8    9    5     -6.84      0.00
    8    9    6     -1.58      0.00
    8    9    7     -3.24      0.00
    8    9    8     -1.37      0.00
    8    9    9     -1.57      0.00
    8    9   10     -1.76      0.00
    8    9   11     -6.03      0.00
    8    9   12      1.07      0.00
    8    9   13     -0.58      0.00
    8    9   14      0.22      0.00
    9    9    0      1.12      0.00
    9    9    1     -8.68      0.00
    9    9    2     -5.71      0.00
    9    9    3      1.45      0.00
    9    9    4      1.10      0.00
    9    9    5     -3.22      0.00
    9    9    6     -0.36      0.00
    9    9    7      1.26      0.00
    9    9    8      2.67      0.00
    9    9    9      1.43      0.00
    9    9   10      0.22      0.00
    9    9   11     -0.93      0.00
    9    9   12      0.12      0.00
    9    9   13     -0.75      0.00
    9    9   14      5.06      0.00
   10    9    0      9.11      0.00
   10    9    1      2.32      0.00
   10    9    2      5.28      0.00
   10    9    3      4.86      0.00
   10    9    4      0.33      0.00
   10    9    5      2.37      0.00
   10    9    6      3.99      0.00
   10    9    7      0.14      0.00
   10    9    8      3.04      0.00
   10    9    9      0.12      0.00
   10    9   10      0.36      0.00
   10    9   11     -0.81      0.00
   10    9   12      0.58      0.00
   10    9   13      1.68      0.00
   11    9    0     -2.92      0.00
   11    9    1     -2.38      0.00
   11    9    2     -7.28      0.00
   11    9    3     -1.32      0.00
   11    9    4     -3.91      0.00
   11    9    5     -0.26      0.00
   11    9    6      0.07      0.00
   11    9    7      0.59      0.00
   11    9    8     -1.81      0.00
   11    9    9     -0.79      0.00
   11    9   10     -1.51      0.00
   11    9   11      2.45      0.00
   11    9   12     -3.23      0.00
   11    9   13     -1.05      0.00
   12    9    0     -1.54      0.00
   12    9    1      6.00      0.00
   12    9    2      1.68      0.00
   12    9    3      0.27      0.00
   12    9    4     -0.09      0.00
   12    9    5      3.62      0.00
   12    9    6     -2.89      0.00
   12    9    7      2.41      0.00
   12    9    8     -0.48      0.00
   12    9    9      1.97      0.00
   12    9   10      2.47      0.00
   12    9   11     -1.44      0.00
   12    9   12      0.33      0.00
   13    9    0      6.51      0.00
   13    9    1      7.03      0.00
   13    9    2     -1.26      0.00
   13    9    3      4.24      0.00
   13    9    4      0.38      0.00
   13    9    5      1.56      0.00
   13    9    6      1.63      0.00
   13    9    7      0.24      0.00
   13    9    8     -1.55      0.00
   13    9    9      1.68      0.00
   13    9   10      2.90      0.00
   13    9   11      5.05      0.00
   14    9    0     -3.36      0.00
   14    9    1     -1.56      0.00
   14    9    2      1.23      0.00
   14    9    3     -6.76      0.00
   14    9    4     -0.33      0.00
   14    9    5     -2.42      0.00
   14    9    6     -1.97      0.00
   14    9    7     -1.56      0.00
   14    9    8     -0.96      0.00
   14    9    9      1.44      0.00
   14    9   10     -1.41      0.00
   15    9    0      1.79      0.00
   15    9    1     -4.17      0.00
   15    9    2      0.51      0.00
   15    9    3     -4.95      0.00
   15    9    4      3.03      0.00
   15    9    5     -3.90      0.00
   15    9    6      1.32      0.00
   15    9    7      0.71      0.00
   15    9    8      5.56      0.00
   15    9    9     -0.69      0.00
   16    9    0     -0.34      0.00
   16    9    1     -3.76      0.00
   16    9    2      1.69      0.00
   16    9    3     -0.23      0.00
   16    9    4     -0.38      0.00
   16    9    5      3.14      0.00
   16    9    6      0.84      0.00
   16    9    7      3.99      0.00
   16    9    8      3.19      0.00
   17    9    0     -2.25      0.00
   17    9    1     -1.69      0.00
   17    9    2      2.41      0.00
   17    9    3      0.19      0.00
   17    9    4     -1.71      0.00
   17    9    5     -0.97      0.00
   17    9    6      2.48      0.00
   17    9    7      0.77      0.00
   18    9    0      0.97      0.00
   18    9    1      4.83      0.00
   18    9    2     -0.31      0.00
   18    9    3      4.84      0.00
   18    9    4     -0.52      0.00
    0   10    0     28.09      0.00
    0   10    2     28.73      0.00
    0   10    4     15.46      0.00
    0   10    6     20.01      0.00
    0   10    8     13.63      0.00
    0   10   10      9.25      0.00
    0   10   12      2.71      0.00
    0   10   14      2.44      0.00
    0   10   16      1.35      0.00
    1   10    0     12.12      0.00
    1   10    1     -8.32      0.00
    1   10    2      5.01      0.00
    1   10    3    -17.25      0.00
    1   10    4     -2.84      0.00
    1   10    5     -5.25      0.00
    1   10    6      7.22      0.00
    1   10    7      1.44      0.00
    1   10    8      3.26      0.00
    1   10    9     -1.59      0.00
    1   10   10     -1.17      0.00
    1   10   11     -1.40      0.00
    1   10   12     -1.17      0.00
    1   10   13     -1.35      0.00
    1   10   14      2.58      0.00
    1   10   15      1.40      0.00
    2   10    0     11.62      0.00
    2   10    1      0.16      0.00
    2   10    2     -5.54      0.00
    2   10    3     14.74      0.00
    2   10    4    -13.18      0.00
    2   10    5     -5.47      0.00
    2   10    6     -7.35      0.00
    2   10    7      2.97      0.00
    2   10    8     -3.07      0.00
    2   10    9     -1.16      0.00
    2   10   10     -2.08      0.00
    2   10   11     -1.70      0.00
    2   10   12     -1.73      0.00
    2   10   13     -0.96      0.00
    2   10   14     -0.33      0.00
    2   10   15      1.18      0.00
    3   10    0     29.03      0.00
    3   10    1      6.32      0.00
    3   10    2     28.60      0.00
    3   10    3      8.86      0.00
    3   10    4     -0.44      0.00
    3   10    5      5.70      0.00
    3   10    6     -5.83      0.00
    3   10    7      7.13      0.00
    3   10    8     -3.10      0.00
    3   10    9      1.96      0.00
    3   10   10     -4.32      0.00
    3   10   11      0.76      0.00
    3   10   12     -1.66      0.00
    3   10   13     -2.34      0.00
    3   10   14     -0.66      0.00
    3   10   15     -0.16      0.00
    4   10    0    -11.76      0.00
    4   10    1     -1.70      0.00
    4   10    2    -15.66      0.00
    4   10    3     19.78      0.00
    4   10    4     -7.87      0.00
    4   10    5    -10.24      0.00
    4   10    6     -8.21      0.00
    4   10    7     -7.66      0.00
    4   10    8     -7.51      0.00
    4   10    9      0.84      0.00
    4   10   10     -4.78      0.00
    4   10   11      1.91      0.00
    4   10   12     -3.02      0.00
    4   10   13     -2.15      0.00
    4   10   14     -1.68      0.00
    4   10   15     -3.62      0.00
    5   10    0     -9.53      0.00
    5   10    1      1.18      0.00
    5   10    2      1.94      0.00
    5   10    3      7.56      0.00
    5   10    4     -2.16      0.00
    5   10    5      6.24      0.00
    5   10    6    -10.70      0.00
    5   10    7      5.14      0.00
    5   10    8      3.17      0.00
    5   10    9      5.69      0.00
    5   10   10      1.60      0.00
    5   10   11      0.88      0.00
    5   10   12      0.90      0.00
    5   10   13      3.85      0.00
    5   10   14     -2.28      0.00
    5   10   15      0.72      0.00
    6   10    0     12.08      0.00
    6   10    1     12.66      0.00
    6   10    2      6.25      0.00
    6   10    3     10.29      0.00
    6   10    4      5.85      0.00
    6   10    5      0.00      0.00
    6   10    6      2.24      0.00
    6   10    7      3.96      0.00
    6   10    8      0.41      0.00
    6   10    9      3.17      0.00
    6   10   10     -0.80      0.00
    6   10   11     -1.86      0.00
    6   10   12     -2.23      0.00
    6   10   13     -1.20      0.00
    6   10   14      4.75      0.00
    6   10   15      1.35      0.00
    7   10    0    -18.94      0.00
    7   10    1    -17.00      0.00
    7   10    2     -2.84      0.00
    7   10    3    -10.95      0.00
    7   10    4     -2.89      0.00
    7   10    5     -3.40      0.00
    7   10    6     -3.65      0.00
    7   10    7     -4.66      0.00
    7   10    8     -0.20      0.00
    7   10    9     -2.66      0.00
    7   10   10     -4.54      0.00
    7   10   11     -0.64      0.00
    7   10   12     -3.16      0.00
    7   10   13      1.23      0.00
    7   10   14     -1.68      0.00
    8   10    0      7.00      0.00
    8   10    1     10.07      0.00
    8   10    2     18.06      0.00
    8   10    3     -0.65      0.00
    8   10    4      5.34      0.00
    8   10    5      2.78      0.00
    8   10    6      2.80      0.00
    8   10    7      0.95      0.00
    8   10    8      3.19      0.00
    8   10    9     -1.07      0.00
    8   10   10      1.88      0.00
    8   10   11     -1.61      0.00
    8   10   12      2.05      0.00
    8   10   13      0.76      0.00
    8   10   14     -1.68      0.00
    9   10    0    -12.48      0.00
    9   10    1     -6.62      0.00
    9   10    2     -3.92      0.00
    9   10    3     -3.87      0.00
    9   10    4      4.55      0.00
    9   10    5     -1.72      0.00
    9   10    6      0.10      0.00
    9   10    7     -0.12      0.00
    9   10    8      1.39      0.00
    9   10    9      1.91      0.00
    9   10   10      3.31      0.00
    9   10   11     -0.02      0.00
    9   10   12      0.86      0.00
    9   10   13     -2.43      0.00
    9   10   14      0.94      0.00
   10   10    0      4.03      0.00
   10   10    1      3.99      0.00
   10   10    2      4.08      0.00
   10   10    3     -3.59      0.00
   10   10    4     -2.98      0.00
   10   10    5     -2.15      0.00
   10   10    6     -4.18      0.00
   10   10    7     -2.97      0.00
   10   10    8     -0.68      0.00
   10   10    9     -2.38      0.00
   10   10   10      1.64      0.00
   10   10   11     -1.07      0.00
   10   10   12      0.34      0.00
   10   10   13     -1.22      0.00
   11   10    0      2.67      0.00
   11   10    1      0.28      0.00
   11   10    2     -0.07      0.00
   11   10    3      6.16      0.00
   11   10    4     -0.81      0.00
   11   10    5     -0.64      0.00
   11   10    6      1.60      0.00
   11   10    7      1.38      0.00
   11   10    8     -0.31      0.00
   11   10    9      1.95      0.00
   11   10   10     -0.12      0.00
   11   10   11      1.28      0.00
   11   10   12     -2.54      0.00
   12   10    0     -9.36      0.00
   12   10    1      2.00      0.00
   12   10    2     -1.89      0.00
   12   10    3      2.90      0.00
   12   10    4     -1.14      0.00
   12   10    5      1.17      0.00
   12   10    6     -2.80      0.00
   12   10    7      2.37      0.00
   12   10    8      1.05      0.00
   12   10    9      2.42      0.00
   12   10   10     -4.52      0.00
   12   10   11     -1.45      0.00
   12   10   12      1.09      0.00
   13   10    0     -2.70      0.00
   13   10    1     -3.07      0.00
   13   10    2     -8.27      0.00
   13   10    3      5.87      0.00
   13   10    4     -4.66      0.00
   13   10    5      0.18      0.00
   13   10    6     -1.29      0.00
   13   10    7      2.91      0.00
   13   10    8      0.81      0.00
   13   10    9     -2.16      0.00
   13   10   10     -1.23      0.00
   13   10   11     -0.89      0.00
   14   10    0     -5.21      0.00
   14   10    1     -1.84      0.00
   14   10    2      1.70      0.00
   14   10    3     -1.23      0.00
   14   10    4     -1.38      0.00
   14   10    5      0.35      0.00
   14   10    6      2.07      0.00
   14   10    7      2.17      0.00
   14   10    8      0.27      0.00
   14   10    9      2.59      0.00
   14   10   10     -1.35      0.00
   15   10    0      2.29      0.00
   15   10    1     -3.07      0.00
   15   10    2      0.60      0.00
   15   10    3     -0.82      0.00
   15   10    4      1.88      0.00
   15   10    5     -2.01      0.00
   15   10    6      2.16      0.00
   15   10    7     -3.53      0.00
   15   10    8      0.61      0.00
   15   10    9     -2.56      0.00
   16   10    0      2.69      0.00
   16   10    1     -0.03      0.00
   16   10    2      1.53      0.00
   16   10    3      1.85      0.00
   16   10    4      4.16      0.00
   16   10    5      1.10      0.00
   16   10    6      0.73      0.00
   16   10    7     -3.49      0.00
   16   10    8     -1.43      0.00
   17   10    0     -0.96      0.00
   17   10    1     -4.96      0.00
   17   10    2     -1.40      0.00
   17   10    3     -4.27      0.00
   17   10    4      1.18      0.00
   17   10    5      0.59      0.00
   17   10    6     -1.40      0.00
   18   10    0     -0.62      0.00
   18   10    1      3.99      0.00
   18   10    2     -4.09      0.00
   18   10    3      0.21      0.00
   18   10    4      4.07      0.00
    0   11    1     -0.84      0.00
    0   11    3    -12.75      0.00
    0   11    5    -13.38      0.00
    0   11    7     -9.03      0.00
    0   11    9     -8.40      0.00
    0   11   11     -1.41      0.00
    0   11   13      1.10      0.00
    0   11   15      1.99      0.00
    1   11    0     -5.29      0.00
    1   11    1      6.74      0.00
    1   11    2     -1.92      0.00
    1   11    3    -11.15      0.00
    1   11    4      8.09      0.00
    1   11    5     -3.70      0.00
    1   11    6      3.85      0.00
    1   11    7     -8.92      0.00
    1   11    8      2.44      0.00
    1   11    9     -2.62      0.00
    1   11   10     -0.33      0.00
    1   11   11      3.30      0.00
    1   11   12     -0.83      0.00
    1   11   13      2.41      0.00
    1   11   14     -1.83      0.00
    1   11   15      1.81      0.00
    2   11    0     -8.35      0.00
    2   11    1     13.16      0.00
    2   11    2     -6.68      0.00
    2   11    3      9.71      0.00
    2   11    4      9.80      0.00
    2   11    5      4.83      0.00
    2   11    6      0.67      0.00
    2   11    7     -1.28      0.00
    2   11    8      0.16      0.00
    2   11    9      2.30      0.00
    2   11   10      3.96      0.00
    2   11   11     -1.31      0.00
    2   11   12      3.34      0.00
    2   11   13      0.10      0.00
    2   11   14      1.91      0.00
    2   11   15     -2.42      0.00
    3   11    0     -5.44      0.00
    3   11    1     -1.98      0.00
    3   11    2     -0.18      0.00
    3   11    3    -13.80      0.00
    3   11    4     -2.96      0.00
    3   11    5      8.43      0.00
    3   11    6     -3.25      0.00
    3   11    7      0.81      0.00
    3   11    8     -4.78      0.00
    3   11    9     -1.65      0.00
    3   11   10     -0.68      0.00
    3   11   11     -2.00      0.00
    3   11   12      3.01      0.00
    3   11   13      0.73      0.00
    3   11   14      2.82      0.00
    3   11   15      0.52      0.00
    4   11    0      5.59      0.00
    4   11    1      8.94      0.00
    4   11    2     -1.37      0.00
    4   11    3      3.66      0.00
    4   11    4     10.35      0.00
    4   11    5      5.82      0.00
    4   11    6      8.36      0.00
    4   11    7      2.83      0.00
    4   11    8     -1.69      0.00
    4   11    9      0.10      0.00
    4   11   10      2.88      0.00
    4   11   11      2.71      0.00
    4   11   12      0.44      0.00
    4   11   13      2.08      0.00
    4   11   14      1.50      0.00
    4   11   15      1.87      0.00
    5   11    0      4.06      0.00
    5   11    1      7.52      0.00
    5   11    2      1.38      0.00
    5   11    3     -5.19      0.00
    5   11    4     -2.00      0.00
    5   11    5      4.55      0.00
    5   11    6      5.81      0.00
    5   11    7     -3.63      0.00
    5   11    8      4.00      0.00
    5   11    9     -4.28      0.00
    5   11   10     -1.28      0.00
    5   11   11     -1.66      0.00
    5   11   12     -0.96      0.00
    5   11   13     -0.81      0.00
    5   11   14     -3.47      0.00
    5   11   15      0.44      0.00
    6   11    0      7.87      0.00
    6   11    1     -1.98      0.00
    6   11    2    -10.88      0.00
    6   11    3     -1.62      0.00
    6   11    4     -8.96      0.00
    6   11    5     -2.83      0.00
    6   11    6     -3.84      0.00
    6   11    7      0.71      0.00
    6   11    8     -5.87      0.00
    6   11    9     -1.05      0.00
    6   11   10      1.47      0.00
    6   11   11      0.64      0.00
    6   11   12      0.11      0.00
    6   11   13     -0.67      0.00
    6   11   14      0.52      0.00
    6   11   15      0.08      0.00
    7   11    0      1.92      0.00
    7   11    1     -6.21      0.00
    7   11    2     -5.20      0.00
    7   11    3     -3.87      0.00
    7   11    4     -1.54      0.00
    7   11    5     -0.82      0.00
    7   11    6      3.90      0.00
    7   11    7      3.53      0.00
    7   11    8      0.83      0.00
    7   11    9      5.50      0.00
    7   11   10      2.15      0.00
    7   11   11      6.16      0.00
    7   11   12      0.57      0.00
    7   11   13      0.91      0.00
    7   11   14      0.02      0.00
    8   11    0     17.98      0.00
    8   11    1      2.67      0.00
    8   11    2      3.64      0.00
    8   11    3     -2.43      0.00
    8   11    4     -1.28      0.00
    8   11    5     -4.87      0.00
    8   11    6      5.87      0.00
    8   11    7     -2.98      0.00
    8   11    8      2.20      0.00
    8   11    9     -1.70      0.00
    8   11   10      2.37      0.00
    8   11   11     -1.11      0.00
    8   11   12      0.57      0.00
    8   11   13     -3.69      0.00
    8   11   14      0.47      0.00
    9   11    0     -2.48      0.00
    9   11    1     -7.91      0.00
    9   11    2     -8.43      0.00
    9   11    3     -2.91      0.00
    9   11    4      1.36      0.00
    9   11    5     -3.90      0.00
    9   11    6      2.61      0.00
    9   11    7     -2.80      0.00
    9   11    8     -1.12      0.00
    9   11    9      0.41      0.00
    9   11   10      0.93      0.00
    9   11   11     -0.06      0.00
    9   11   12      2.54      0.00
    9   11   13     -2.28      0.00
   10   11    0      7.56      0.00
   10   11    1      7.93      0.00
   10   11    2      6.58      0.00
   10   11    3      1.29      0.00
   10   11    4      3.13      0.00
   10   11    5      4.47      0.00
   10   11    6      0.60      0.00
   10   11    7      1.08      0.00
   10   11    8      0.27      0.00
   10   11    9     -6.07      0.00
   10   11   10     -0.90      0.00
   10   11   11      0.41      0.00
   10   11   12     -0.01      0.00
   10   11   13      1.42      0.00
   11   11    0     -9.07      0.00
   11   11    1    -11.45      0.00
   11   11    2     -5.66      0.00
   11   11    3     -4.44      0.00
   11   11    4     -4.24      0.00
   11   11    5      1.85      0.00
   11   11    6     -1.41      0.00
   11   11    7      0.15      0.00
   11   11    8     -2.31      0.00
   11   11    9     -0.66      0.00
   11   11   10     -0.21      0.00
   11   11   11      1.04      0.00
   11   11   12     -0.61      0.00
   12   11    0     -1.13      0.00
   12   11    1      7.79      0.00
   12   11    2      0.89      0.00
   12   11    3     -2.98      0.00
   12   11    4      0.17      0.00
   12   11    5      2.62      0.00
   12   11    6     -2.25      0.00
   12   11    7     -1.92      0.00
   12   11    8     -2.58      0.00
   12   11    9      4.46      0.00
   12   11   10     -1.50      0.00
   12   11   11      2.93      0.00
   12   11   12     -0.85      0.00
   13   11    0      4.21      0.00
   13   11    1      6.09      0.00
   13   11    2     -0.48      0.00
   13   11    3      1.28      0.00
   13   11    4      1.95      0.00
   13   11    5      1.01      0.00
   13   11    6      1.28      0.00
   13   11    7     -0.16      0.00
   13   11    8     -1.09      0.00
   13   11    9     -0.81      0.00
   13   11   10      2.08      0.00
   13   11   11      0.46      0.00
   14   11    0      0.78      0.00
   14   11    1     -0.64      0.00
   14   11    2      2.39      0.00
   14   11    3     -5.04      0.00
   14   11    4      1.68      0.00
   14   11    5     -0.15      0.00
   14   11    6      1.75      0.00
   14   11    7     -0.51      0.00
   14   11    8     -2.10      0.00
   14   11    9      0.00      0.00
   14   11   10      0.94      0.00
   15   11    0      7.63      0.00
   15   11    1      0.39      0.00
   15   11    2      2.12      0.00
   15   11    3     -0.92      0.00
   15   11    4      3.19      0.00
   15   11    5      0.76      0.00
   15   11    6     -2.02      0.00
   15   11    7     -2.12      0.00
   15   11    8      1.44      0.00
   15   11    9     -2.29      0.00
   16   11    0      1.61      0.00
   16   11    1      0.07      0.00
   16   11    2     -1.02      0.00
   16   11    3      1.91      0.00
   16   11    4     -2.64      0.00
   16   11    5     -3.21      0.00
   16   11    6     -0.91      0.00
   16   11    7     -1.10      0.00
   16   11    8      2.95      0.00
   17   11    0      1.26      0.00
   17   11    1      0.25      0.00
   17   11    2      2.81      0.00
   17   11    3     -0.16      0.00
   17   11    4     -6.78      0.00
   17   11    5     -0.37      0.00
   17   11    6      1.61      0.00
   18   11    0      2.35      0.00
   18   11    1      3.27      0.00
   18   11    2      2.52      0.00
   18   11    3      1.73      0.00
    0   12    0     32.70      0.00
    0   12    2     31.38      0.00
    0   12    4      7.44      0.00
    0   12    6     -1.44      0.00
    0   12    8     -3.10      0.00
    0   12   10     -0.93      0.00
    0   12   12     -1.27      0.00
    0   12   14     -0.80      0.00
    1   12    0    -10.54      0.00
    1   12    1    -17.55      0.00
    1   12    2     -2.17      0.00
    1   12    3      0.05      0.00
    1   12    4     -2.63      0.00
    1   12    5     -5.72      0.00
    1   12    6      1.19      0.00
    1   12    7     -7.97      0.00
    1   12    8      1.66      0.00
    1   12    9     -4.35      0.00
    1   12   10     -2.08      0.00
    1   12   11     -0.77      0.00
    1   12   12     -2.95      0.00
    1   12   13      0.37      0.00
    1   12   14     -5.66      0.00
    1   12   15      1.07      0.00
    2   12    0     -0.18      0.00
    2   12    1     -5.87      0.00
    2   12    2     -1.55      0.00
    2   12    3     10.50      0.00
    2   12    4     -5.20      0.00
    2   12    5     -0.88      0.00
    2   12    6     -2.06      0.00
    2   12    7      2.00      0.00
    2   12    8      0.45      0.00
    2   12    9      2.74      0.00
    2   12   10      1.20      0.00
    2   12   11      0.16      0.00
    2   12   12      2.57      0.00
    2   12   13     -0.71      0.00
    2   12   14      2.07      0.00
    2   12   15     -2.38      0.00
    3   12    0     -3.38      0.00
    3   12    1     11.52      0.00
    3   12    2     -1.65      0.00
    3   12    3     12.70      0.00
    3   12    4     -9.60      0.00
    3   12    5      7.93      0.00
    3   12    6     -2.64      0.00
    3   12    7     10.60      0.00
    3   12    8     -0.19      0.00
    3   12    9      6.72      0.00
    3   12   10     -2.59      0.00
    3   12   11      2.07      0.00
    3   12   12     -0.48      0.00
    3   12   13     -1.64      0.00
    3   12   14      1.05      0.00
    3   12   15     -1.46      0.00
    4   12    0    -14.31      0.00
    4   12    1    -15.77      0.00
    4   12    2     -8.40      0.00
    4   12    3     -6.66      0.00
    4   12    4     -5.44      0.00
    4   12    5    -10.86      0.00
    4   12    6     -9.57      0.00
    4   12    7      0.16      0.00
    4   12    8     -2.46      0.00
    4   12    9      1.21      0.00
    4   12   10     -1.87      0.00
    4   12   11      0.00      0.00
    4   12   12     -2.90      0.00
    4   12   13      0.19      0.00
    4   12   14     -0.82      0.00
    4   12   15     -0.13      0.00
    5   12    0    -15.86      0.00
    5   12    1     -1.69      0.00
    5   12    2     -0.87      0.00
    5   12    3     -6.17      0.00
    5   12    4     -3.48      0.00
    5   12    5     -3.67      0.00
    5   12    6      0.80      0.00
    5   12    7     -1.49      0.00
    5   12    8      6.19      0.00
    5   12    9      1.47      0.00
    5   12   10     -2.01      0.00
    5   12   11      2.02      0.00
    5   12   12      1.97      0.00
    5   12   13      1.29      0.00
    5   12   14      1.17      0.00
    5   12   15      0.36      0.00
    6   12    0     -0.36      0.00
    6   12    1      4.63      0.00
    6   12    2      2.39      0.00
    6   12    3     12.28      0.00
    6   12    4      3.04      0.00
    6   12    5      8.61      0.00
    6   12    6     -3.21      0.00
    6   12    7      5.21      0.00
    6   12    8     -1.45      0.00
    6   12    9      1.37      0.00
    6   12   10      0.83      0.00
    6   12   11     -0.06      0.00
    6   12   12     -1.87      0.00
    6   12   13      3.10      0.00
    6   12   14     -4.56      0.00
    7   12    0    -11.85      0.00
    7   12    1     -4.12      0.00
    7   12    2      2.91      0.00
    7   12    3     -4.70      0.00
    7   12    4      4.97      0.00
    7   12    5      2.00      0.00
    7   12    6     -5.93      0.00
    7   12    7      1.03      0.00
    7   12    8     -1.79      0.00
    7   12    9     -0.25      0.00
    7   12   10     -1.34      0.00
    7   12   11     -1.41      0.00
    7   12   12     -1.46      0.00
    7   12   13      1.73      0.00
    7   12   14     -0.80      0.00
    8   12    0      4.30      0.00
    8   12    1      3.08      0.00
    8   12    2      9.71      0.00
    8   12    3      3.92      0.00
    8   12    4      3.77      0.00
    8   12    5     -1.63      0.00
    8   12    6      1.48      0.00
    8   12    7     -2.44      0.00
    8   12    8      3.31      0.00
    8   12    9     -3.10      0.00
    8   12   10     -0.89      0.00
    8   12   11     -2.28      0.00
    8   12   12      3.31      0.00
    8   12   13      0.17      0.00
    8   12   14      3.15      0.00
    9   12    0    -10.89      0.00
    9   12    1    -10.48      0.00
    9   12    2     -3.42      0.00
    9   12    3     -4.31      0.00
    9   12    4      0.88      0.00
    9   12    5     -2.44      0.00
    9   12    6      1.87      0.00
    9   12    7     -1.89      0.00
    9   12    8      1.76      0.00
    9   12    9      0.89      0.00
    9   12   10     -1.95      0.00
    9   12   11     -3.33      0.00
    9   12   12      1.61      0.00
    9   12   13     -1.13      0.00
   10   12    0      5.52      0.00
   10   12    1      5.20      0.00
   10   12    2      1.13      0.00
   10   12    3     -0.20      0.00
   10   12    4      1.92      0.00
   10   12    5     -2.33      0.00
   10   12    6      1.40      0.00
   10   12    7      1.69      0.00
   10   12    8      2.17      0.00
   10   12    9      0.98      0.00
   10   12   10      0.91      0.00
   10   12   11     -0.34      0.00
   10   12   12     -1.67      0.00
   10   12   13      1.74      0.00
   11   12    0      0.40      0.00
   11   12    1     -3.40      0.00
   11   12    2     -1.95      0.00
   11   12    3      5.35      0.00
   11   12    4     -3.69      0.00
   11   12    5      2.00      0.00
   11   12    6     -0.35      0.00
   11   12    7      3.32      0.00
   11   12    8      1.39      0.00
   11   12    9      2.23      0.00
   11   12   10      1.38      0.00
   11   12   11      0.22      0.00
   11   12   12     -1.80      0.00
   12   12    0      1.62      0.00
   12   12    1      5.13      0.00
   12   12    2     -3.73      0.00
   12   12    3      7.89      0.00
   12   12    4     -4.85      0.00
   12   12    5      2.89      0.00
   12   12    6     -2.70      0.00
   12   12    7      2.49      0.00
   12   12    8     -0.91      0.00
   12   12    9     -1.76      0.00
   12   12   10     -2.30      0.00
   12   12   11     -1.34      0.00
   13   12    0    -11.10      0.00
   13   12    1     -1.42      0.00
   13   12    2     -6.03      0.00
   13   12    3      2.72      0.00
   13   12    4      0.35      0.00
   13   12    5     -3.45      0.00
   13   12    6      0.99      0.00
   13   12    7      0.56      0.00
   13   12    8     -0.04      0.00
   13   12    9     -1.98      0.00
   13   12   10     -4.90      0.00
   13   12   11      1.04      0.00
   14   12    0      0.56      0.00
   14   12    1     -3.05      0.00
   14   12    2      3.77      0.00
   14   12    3     -0.77      0.00
   14   12    4      1.09      0.00
   14   12    5     -1.77      0.00
   14   12    6      1.05      0.00
   14   12    7     -0.11      0.00
   14   12    8     -0.30      0.00
   14   12    9      0.24      0.00
   14   12   10      1.37      0.00
   15   12    0      3.60      0.00
   15   12    1     -0.97      0.00
   15   12    2      5.57      0.00
   15   12    3     -2.16      0.00
   15   12    4      1.67      0.00
   15   12    5     -0.06      0.00
   15   12    6      0.39      0.00
   15   12    7     -0.88      0.00
   15   12    8      0.35      0.00
   15   12    9      1.28      0.00
   16   12    0      0.03      0.00
   16   12    1      0.15      0.00
   16   12    2      2.66      0.00
   16   12    3     -0.71      0.00
   16   12    4      0.78      0.00
   16   12    5     -1.48      0.00
   16   12    6      3.00      0.00
   16   12    7      1.06      0.00
   17   12    0     -1.50      0.00
   17   12    1     -0.94      0.00
   17   12    2     -1.17      0.00
   17   12    3     -4.34      0.00
   17   12    4      0.94      0.00
   17   12    5     -1.42      0.00
   18   12    0      3.69      0.00
   18   12    1     -2.31      0.00
   18   12    2      0.87      0.00
   18   12    3     -2.15      0.00
    0   13    1     -7.00      0.00
    0   13    3    -22.57      0.00
    0   13    5     -8.10      0.00
    0   13    7     -0.65      0.00
    0   13    9      0.58      0.00
    0   13   11      0.95      0.00
    0   13   13      2.03      0.00
    0   13   15     -3.17      0.00
    1   13    0     -5.52      0.00
    1   13    1     -2.27      0.00
    1   13    2     -5.44      0.00
    1   13    3    -10.67      0.00
    1   13    4     10.66      0.00
    1   13    5     -2.29      0.00
    1   13    6      9.23      0.00
    1   13    7      1.63      0.00
    1   13    8      6.40      0.00
    1   13    9     -2.91      0.00
    1   13   10      5.08      0.00
    1   13   11     -3.31      0.00
    1   13   12      1.51      0.00
    1   13   13     -1.07      0.00
    1   13   14     -0.68      0.00
    1   13   15      0.65      0.00
    2   13    0     10.31      0.00
    2   13    1      9.71      0.00
    2   13    2      1.32      0.00
    2   13    3     -2.69      0.00
    2   13    4      1.41      0.00
    2   13    5      4.70      0.00
    2   13    6      5.56      0.00
    2   13    7     -0.22      0.00
    2   13    8      5.28      0.00
    2   13    9     -2.43      0.00
    2   13   10      2.18      0.00
    2   13   11     -2.66      0.00
    2   13   12      0.46      0.00
    2   13   13     -3.10      0.00
    2   13   14      3.26      0.00
    2   13   15      0.42      0.00
    3   13    0    -11.94      0.00
    3   13    1     -5.34      0.00
    3   13    2    -14.40      0.00
    3   13    3     -6.37      0.00
    3   13    4     -7.03      0.00
    3   13    5      0.82      0.00
    3   13    6     -2.67      0.00
    3   13    7      1.80      0.00
    3   13    8     -6.71      0.00
    3   13    9     -1.95      0.00
    3   13   10     -3.40      0.00
    3   13   11     -1.00      0.00
    3   13   12     -1.51      0.00
    3   13   13     -0.77      0.00
    3   13   14     -0.30      0.00
    3   13   15      0.98      0.00
    4   13    0      8.17      0.00
    4   13    1     -0.96      0.00
    4   13    2      5.23      0.00
    4   13    3      6.33      0.00
    4   13    4      9.17      0.00
    4   13    5      3.91      0.00
    4   13    6      4.11      0.00
    4   13    7      1.21      0.00
    4   13    8      0.55      0.00
    4   13    9      1.44      0.00
    4   13   10      3.57      0.00
    4   13   11      0.46      0.00
    4   13   12      1.09      0.00
    4   13   13      1.60      0.00
    4   13   14     -1.74      0.00
    4   13   15      0.01      0.00
    5   13    0      7.02      0.00
    5   13    1      7.92      0.00
    5   13    2      2.93      0.00
    5   13    3      4.26      0.00
    5   13    4     -1.72      0.00
    5   13    5      2.07      0.00
    5   13    6      3.56      0.00
    5   13    7     -2.35      0.00
    5   13    8     -0.35      0.00
    5   13    9     -0.93      0.00
    5   13   10     -1.66      0.00
    5   13   11      0.43      0.00
    5   13   12     -1.23      0.00
    5   13   13     -2.32      0.00
    5   13   14      0.73      0.00
    6   13    0     -2.73      0.00
    6   13    1     -3.33      0.00
    6   13    2    -10.94      0.00
    6   13    3      3.13      0.00
    6   13    4     -8.67      0.00
    6   13    5     -2.34      0.00
    6   13    6     -1.54      0.00
    6   13    7     -3.38      0.00
    6   13    8     -3.91      0.00
    6   13    9     -0.37      0.00
    6   13   10     -1.78      0.00
    6   13   11      1.80      0.00
    6   13   12     -1.55      0.00
    6   13   13      1.23      0.00
    6   13   14     -1.52      0.00
    7   13    0      2.09      0.00
    7   13    1     -0.08      0.00
    7   13    2      0.75      0.00
    7   13    3     -4.93      0.00
    7   13    4      1.73      0.00
    7   13    5      1.66      0.00
    7   13    6      0.72      0.00
    7   13    7      4.48      0.00
    7   13    8     -0.70      0.00
    7   13    9      1.04      0.00
    7   13   10      0.61      0.00
    7   13   11     -1.17      0.00
    7   13   12      0.60      0.00
    7   13   13     -1.56      0.00
    7   13   14      1.84      0.00
    8   13    0      7.84      0.00
    8   13    1      1.06      0.00
    8   13    2      1.45      0.00
    8   13    3      2.76      0.00
    8   13    4     -1.23      0.00
    8   13    5     -2.77      0.00
    8   13    6      0.70      0.00
    8   13    7     -1.59      0.00
    8   13    8     -2.92      0.00
    8   13    9     -1.55      0.00
    8   13   10     -2.93      0.00
    8   13   11     -0.76      0.00
    8   13   12     -1.53      0.00
    8   13   13     -5.62      0.00
    9   13    0     -2.49      0.00
    9   13    1     -5.96      0.00
    9   13    2      0.99      0.00
    9   13    3     -4.64      0.00
    9   13    4      0.79      0.00
    9   13    5      0.64      0.00
    9   13    6      2.03      0.00
    9   13    7     -4.29      0.00
    9   13    8      1.22      0.00
    9   13    9     -1.66      0.00
    9   13   10      3.22      0.00
    9   13   11      1.63      0.00
    9   13   12      0.75      0.00
    9   13   13      1.29      0.00
   10   13    0      9.26      0.00
   10   13    1      8.69      0.00
   10   13    2      9.97      0.00
   10   13    3     -0.92      0.00
   10   13    4      8.08      0.00
   10   13    5     -0.69      0.00
   10   13    6      1.31      0.00
   10   13    7      0.74      0.00
   10   13    8     -0.74      0.00
   10   13    9     -1.22      0.00
   10   13   10      1.91      0.00
   10   13   11      0.73      0.00
   10   13   12      0.33      0.00
   11   13    0     -9.20      0.00
   11   13    1     -6.94      0.00
   11   13    2     -2.21      0.00
   11   13    3     -4.67      0.00
   11   13    4     -3.64      0.00
   11   13    5     -1.30      0.00
   11   13    6     -3.20      0.00
   11   13    7     -1.51      0.00
   11   13    8     -1.31      0.00
   11   13    9      2.40      0.00
   11   13   10     -0.61      0.00
   11   13   11      2.05      0.00
   11   13   12      1.68      0.00
   12   13    0      6.73      0.00
   12   13    1      7.44      0.00
   12   13    2      1.19      0.00
   12   13    3      3.49      0.00
   12   13    4     -0.92      0.00
   12   13    5      5.48      0.00
   12   13    6     -4.83      0.00
   12   13    7     -0.15      0.00
   12   13    8     -0.65      0.00
   12   13    9      1.47      0.00
   12   13   10      2.51      0.00
   12   13   11      0.05      0.00
   13   13    0     -5.03      0.00
   13   13    1      5.19      0.00
   13   13    2     -0.26      0.00
   13   13    3     -1.43      0.00
   13   13    4      1.38      0.00
   13   13    5     -1.49      0.00
   13   13    6      1.12      0.00
   13   13    7     -1.33      0.00
   13   13    8     -1.51      0.00
   13   13    9      4.99      0.00
   13   13   10     -3.10      0.00
   14   13    0      3.59      0.00
   14   13    1     -0.48      0.00
   14   13    2     -0.47      0.00
   14   13    3     -2.78      0.00
   14   13    4     -3.54      0.00
   14   13    5     -2.05      0.00
   14   13    6     -1.01      0.00
   14   13    7     -0.21      0.00
   14   13    8      2.18      0.00
   14   13    9      0.19      0.00
   15   13    0      2.50      0.00
   15   13    1     -3.52      0.00
   15   13    2     -1.41      0.00
   15   13    3      0.48      0.00
   15   13    4      1.39      0.00
   15   13    5      1.36      0.00
   15   13    6     -0.03      0.00
   15   13    7     -1.83      0.00
   15   13    8      2.00      0.00
   16   13    0     -1.94      0.00
   16   13    1     -4.44      0.00
   16   13    2     -4.72      0.00
   16   13    3      2.16      0.00
   16   13    4      0.54      0.00
   16   13    5      1.47      0.00
   16   13    6      1.01      0.00
   16   13    7     -1.55      0.00
   17   13    0      0.62      0.00
   17   13    1      0.20      0.00
   17   13    2     -1.90      0.00
   17   13    3      3.19      0.00
   17   13    4      0.63      0.00
   17   13    5      0.78      0.00
   18   13    0     -2.55      0.00
   18   13    1     -1.04      0.00
   18   13    2      1.51      0.00
    0   14    0     16.57      0.00
    0   14    2     16.13      0.00
    0   14    4      1.70      0.00
    0   14    6     10.07      0.00
    0   14    8      8.66      0.00
    0   14   10     -1.28      0.00
    0   14   12     -3.12      0.00
    0   14   14      0.46      0.00
    1   14    0     -2.02      0.00
    1   14    1    -16.06      0.00
    1   14    2      3.86      0.00
    1   14    3      0.98      0.00
    1   14    4      5.78      0.00
    1   14    5     -2.70      0.00
    1   14    6     -3.20      0.00
    1   14    7      3.71      0.00
    1   14    8     -2.69      0.00
    1   14    9      2.47      0.00
    1   14   10      0.64      0.00
    1   14   11      0.24      0.00
    1   14   12      1.92      0.00
    1   14   13      1.03      0.00
    1   14   14     -0.93      0.00
    1   14   15      3.54      0.00
    2   14    0     -9.49      0.00
    2   14    1     11.71      0.00
    2   14    2     -4.03      0.00
    2   14    3      7.46      0.00
    2   14    4    -12.19      0.00
    2   14    5      0.40      0.00
    2   14    6     -7.51      0.00
    2   14    7     -6.04      0.00
    2   14    8     -0.36      0.00
    2   14    9      0.22      0.00
    2   14   10     -1.25      0.00
    2   14   11      2.81      0.00
    2   14   12      1.82      0.00
    2   14   13     -2.47      0.00
    2   14   14      0.53      0.00
    2   14   15     -3.12      0.00
    3   14    0      3.94      0.00
    3   14    1      3.64      0.00
    3   14    2      5.50      0.00
    3   14    3      5.40      0.00
    3   14    4      2.28      0.00
    3   14    5      0.02      0.00
    3   14    6     -2.65      0.00
    3   14    7     -0.69      0.00
    3   14    8     -2.83      0.00
    3   14    9      0.31      0.00
    3   14   10      0.04      0.00
    3   14   11      1.09      0.00
    3   14   12     -0.49      0.00
    3   14   13     -0.41      0.00
    3   14   14     -0.02      0.00
    3   14   15     -3.84      0.00
    4   14    0     -0.28      0.00
    4   14    1      7.93      0.00
    4   14    2      2.91      0.00
    4   14    3     -2.50      0.00
    4   14    4      4.59      0.00
    4   14    5     -0.74      0.00
    4   14    6     -5.23      0.00
    4   14    7     -1.17      0.00
    4   14    8     -1.88      0.00
    4   14    9      1.30      0.00
    4   14   10     -0.60      0.00
    4   14   11     -3.00      0.00
    4   14   12      0.22      0.00
    4   14   13      0.83      0.00
    4   14   14      0.38      0.00
    5   14    0      1.89      0.00
    5   14    1      4.13      0.00
    5   14    2     -1.39      0.00
    5   14    3     -0.88      0.00
    5   14    4     -2.25      0.00
    5   14    5      3.83      0.00
    5   14    6     -1.56      0.00
    5   14    7      3.29      0.00
    5   14    8      0.36      0.00
    5   14    9     -0.87      0.00
    5   14   10     -0.94      0.00
    5   14   11      0.95      0.00
    5   14   12     -2.10      0.00
    5   14   13      2.84      0.00
    5   14   14     -1.09      0.00
    6   14    0      0.60      0.00
    6   14    1      3.49      0.00
    6   14    2      2.46      0.00
    6   14    3      3.08      0.00
    6   14    4      2.96      0.00
    6   14    5      1.39      0.00
    6   14    6      0.65      0.00
    6   14    7     -0.47      0.00
    6   14    8      0.84      0.00
    6   14    9      1.00      0.00
    6   14   10     -0.87      0.00
    6   14   11      3.37      0.00
    6   14   12     -2.08      0.00
    6   14   13      2.85      0.00
    6   14   14     -3.10      0.00
    7   14    0      1.76      0.00
    7   14    1      1.55      0.00
    7   14    2      0.33      0.00
    7   14    3     -3.51      0.00
    7   14    4     -0.28      0.00
    7   14    5      0.82      0.00
    7   14    6     -3.10      0.00
    7   14    7      1.05      0.00
    7   14    8     -0.13      0.00
    7   14    9      0.81      0.00
    7   14   10      2.17      0.00
    7   14   11     -2.11      0.00
    7   14   12      0.87      0.00
    7   14   13      0.85      0.00
    7   14   14      1.41      0.00
    8   14    0      4.45      0.00
    8   14    1      1.40      0.00
    8   14    2      0.40      0.00
    8   14    3      3.82      0.00
    8   14    4      0.47      0.00
    8   14    5     -0.76      0.00
    8   14    6      0.10      0.00
    8   14    7      2.24      0.00
    8   14    8      1.33      0.00
    8   14    9      3.20      0.00
    8   14   10      1.63      0.00
    8   14   11      1.43      0.00
    8   14   12      2.62      0.00
    8   14   13     -0.83      0.00
    9   14    0     -3.86      0.00
    9   14    1     -3.14      0.00
    9   14    2     -5.48      0.00
    9   14    3     -1.28      0.00
    9   14    4     -3.33      0.00
    9   14    5     -1.48      0.00
    9   14    6      2.21      0.00
    9   14    7     -2.84      0.00
    9   14    8      3.92      0.00
    9   14    9     -1.53      0.00
    9   14   10      3.16      0.00
    9   14   11     -0.87      0.00
    9   14   12      2.02      0.00
    9   14   13      0.46      0.00
   10   14    0      4.27      0.00
   10   14    1      2.72      0.00
   10   14    2      1.48      0.00
   10   14    3      0.34      0.00
   10   14    4      1.46      0.00
   10   14    5     -2.52      0.00
   10   14    6     -2.41      0.00
   10   14    7     -0.74      0.00
   10   14    8     -2.50      0.00
   10   14    9     -2.58      0.00
   10   14   10     -2.42      0.00
   10   14   11     -2.87      0.00
   10   14   12     -2.50      0.00
   11   14    0     -2.61      0.00
   11   14    1     -2.76      0.00
   11   14    2     -2.52      0.00
   11   14    3      5.55      0.00
   11   14    4     -2.09      0.00
   11   14    5      1.81      0.00
   11   14    6      1.98      0.00
   11   14    7     -0.93      0.00
   11   14    8     -2.54      0.00
   11   14    9      0.52      0.00
   11   14   10     -4.35      0.00
   11   14   11     -0.15      0.00
   11   14   12     -2.95      0.00
   12   14    0      3.84      0.00
   12   14    1      3.80      0.00
   12   14    2     -0.42      0.00
   12   14    3      4.31      0.00
   12   14    4     -0.54      0.00
   12   14    5      2.01      0.00
   12   14    6     -0.67      0.00
   12   14    7      2.41      0.00
   12   14    8      1.17      0.00
   12   14    9     -1.90      0.00
   12   14   10      1.06      0.00
   12   14   11      0.94      0.00
   13   14    0    -11.56      0.00
   13   14    1     -4.12      0.00
   13   14    2     -2.47      0.00
   13   14    3     -2.13      0.00
   13   14    4     -2.02      0.00
   13   14    5     -0.66      0.00
   13   14    6      1.99      0.00
   13   14    7      3.21      0.00
   13   14    8     -1.49      0.00
   13   14    9      1.12      0.00
   13   14   10     -0.32      0.00
   14   14    0      2.58      0.00
   14   14    1      0.77      0.00
   14   14    2      1.73      0.00
   14   14    3      0.94      0.00
   14   14    4      4.65      0.00
   14   14    5      0.89      0.00
   14   14    6      2.84      0.00
   14   14    7      0.83      0.00
   14   14    8      0.62      0.00
   14   14    9     -1.89      0.00
   15   14    0      2.02      0.00
   15   14    1     -4.18      0.00
   15   14    2      3.85      0.00
   15   14    3     -4.83      0.00
   15   14    4      4.67      0.00
   15   14    5     -2.08      0.00
   15   14    6      0.49      0.00
   15   14    7     -2.42      0.00
   15   14    8      0.22      0.00
   16   14    0     -1.97      0.00
   16   14    1     -0.11      0.00
   16   14    2      4.25      0.00
   16   14    3     -4.04      0.00
   16   14    4     -1.44      0.00
   16   14    5     -1.50      0.00
   16   14    6      0.26      0.00
   17   14    0     -0.26      0.00
   17   14    1      0.56      0.00
   17   14    2      3.20      0.00
   17   14    3      1.84      0.00
   17   14    4     -1.75      0.00
    0   15    1      1.06      0.00
    0   15    3    -11.09      0.00
    0   15    5    -11.40      0.00
    0   15    7    -18.93      0.00
    0   15    9    -12.52      0.00
    0   15   11     -5.96      0.00
    0   15   13     -4.58      0.00
    0   15   15     -6.47      0.00
    1   15    0     12.89      0.00
    1   15    1     -6.81      0.00
    1   15    2      7.98      0.00
    1   15    3      0.31      0.00
    1   15    4     12.82      0.00
    1   15    5     -2.34      0.00
    1   15    6      0.18      0.00
    1   15    7     -0.92      0.00
    1   15    8     -5.09      0.00
    1   15    9      1.24      0.00
    1   15   10      1.28      0.00
    1   15   11     -1.84      0.00
    1   15   12      0.01      0.00
    1   15   13      6.29      0.00
    1   15   14     -1.55      0.00
    1   15   15      2.18      0.00
    2   15    0      6.04      0.00
    2   15    1     16.07      0.00
    2   15    2      2.98      0.00
    2   15    3      3.83      0.00
    2   15    4     -2.26      0.00
    2   15    5      4.00      0.00
    2   15    6      0.95      0.00
    2   15    7      1.10      0.00
    2   15    8     -0.36      0.00
    2   15    9     -0.64      0.00
    2   15   10      0.21      0.00
    2   15   11     -0.11      0.00
    2   15   12      2.18      0.00
    2   15   13      1.07      0.00
    2   15   14      3.14      0.00
    3   15    0      0.77      0.00
    3   15    1    -16.32      0.00
    3   15    2     -5.37      0.00
    3   15    3     -0.19      0.00
    3   15    4     -4.95      0.00
    3   15    5     -3.32      0.00
    3   15    6      4.19      0.00
    3   15    7     -1.45      0.00
    3   15    8      4.08      0.00
    3   15    9     -3.64      0.00
    3   15   10      1.93      0.00
    3   15   11      0.13      0.00
    3   15   12     -0.04      0.00
    3   15   13     -1.02      0.00
    3   15   14      2.87      0.00
    4   15    0     -3.20      0.00
    4   15    1      6.74      0.00
    4   15    2      1.04      0.00
    4   15    3      1.79      0.00
    4   15    4     -0.08      0.00
    4   15    5      0.93      0.00
    4   15    6      0.59      0.00
    4   15    7      5.06      0.00
    4   15    8      3.73      0.00
    4   15    9      5.53      0.00
    4   15   10      1.10      0.00
    4   15   11     -0.36      0.00
    4   15   12      2.50      0.00
    4   15   13     -1.87      0.00
    4   15   14     -0.10      0.00
    5   15    0     -4.28      0.00
    5   15    1      0.08      0.00
    5   15    2     -4.82      0.00
    5   15    3      5.54      0.00
    5   15    4     -8.70      0.00
    5   15    5     -1.93      0.00
    5   15    6     -1.93      0.00
    5   15    7      0.62      0.00
    5   15    8     -2.96      0.00
    5   15    9     -1.46      0.00
    5   15   10     -2.02      0.00
    5   15   11      0.51      0.00
    5   15   12      0.21      0.00
    5   15   13      0.64      0.00
    5   15   14     -0.90      0.00
    6   15    0     -8.98      0.00
    6   15    1     -5.86      0.00
    6   15    2      0.84      0.00
    6   15    3     -2.15      0.00
    6   15    4      0.23      0.00
    6   15    5     -2.41      0.00
    6   15    6     -0.43      0.00
    6   15    7     -0.71      0.00
    6   15    8     -2.86      0.00
    6   15    9      1.45      0.00
    6   15   10     -2.72      0.00
    6   15   11      3.61      0.00
    6   15   12     -0.59      0.00
    6   15   13      1.32      0.00
    6   15   14     -0.72      0.00
    7   15    0      0.87      0.00
    7   15    1      1.19      0.00
    7   15    2      2.09      0.00
    7   15    3      2.08      0.00
    7   15    4      2.28      0.00
    7   15    5      3.17      0.00
    7   15    6      2.55      0.00
    7   15    7      1.87      0.00
    7   15    8      0.95      0.00
    7   15    9      2.42      0.00
    7   15   10     -0.88      0.00
    7   15   11      1.53      0.00
    7   15   12      0.45      0.00
    7   15   13     -0.68      0.00
    8   15    0      2.39      0.00
    8   15    1     -4.74      0.00
    8   15    2      5.58      0.00
    8   15    3     -0.71      0.00
    8   15    4      1.58      0.00
    8   15    5     -1.90      0.00
    8   15    6     -2.55      0.00
    8   15    7     -2.04      0.00
    8   15    8     -0.15      0.00
    8   15    9     -2.89      0.00
    8   15   10     -0.08      0.00
    8   15   11     -1.91      0.00
    8   15   12     -0.27      0.00
    8   15   13     -2.84      0.00
    9   15    0     -1.46      0.00
    9   15    1      0.19      0.00
    9   15    2      0.12      0.00
    9   15    3     -2.49      0.00
    9   15    4      1.27      0.00
    9   15    5      0.68      0.00
    9   15    6      1.90      0.00
    9   15    7     -0.79      0.00
    9   15    8      1.60      0.00
    9   15    9     -1.56      0.00
    9   15   10      1.33      0.00
    9   15   11     -3.24      0.00
    9   15   12      2.61      0.00
   10   15    0      1.68      0.00
   10   15    1      1.80      0.00
   10   15    2      6.09      0.00
   10   15    3     -4.46      0.00
   10   15    4      3.39      0.00
   10   15    5      0.97      0.00
   10   15    6      0.34      0.00
   10   15    7      4.30      0.00
   10   15    8      2.08      0.00
   10   15    9      2.45      0.00
   10   15   10     -0.09      0.00
   10   15   11      2.08      0.00
   10   15   12     -1.31      0.00
   11   15    0     -8.74      0.00
   11   15    1     -9.72      0.00
   11   15    2     -8.40      0.00
   11   15    3     -5.99      0.00
   11   15    4     -6.38      0.00
   11   15    5     -1.67      0.00
   11   15    6      0.39      0.00
   11   15    7      3.04      0.00
   11   15    8      0.41      0.00
   11   15    9      5.49      0.00
   11   15   10      2.23      0.00
   11   15   11      4.40      0.00
   12   15    0      1.92      0.00
   12   15    1      5.60      0.00
   12   15    2     -4.35      0.00
   12   15    3      2.88      0.00
   12   15    4      3.66      0.00
   12   15    5      1.02      0.00
   12   15    6     -0.43      0.00
   12   15    7      1.05      0.00
   12   15    8     -0.02      0.00
   12   15    9      0.25      0.00
   12   15   10     -4.22      0.00
   12   15   11     -0.61      0.00
   13   15    0     -4.20      0.00
   13   15    1      1.33      0.00
   13   15    2     -3.37      0.00
   13   15    3      1.86      0.00
   13   15    4     -4.07      0.00
   13   15    5      5.88      0.00
   13   15    6     -3.48      0.00
   13   15    7     -0.37      0.00
   13   15    8     -2.02      0.00
   13   15    9     -3.49      0.00
   13   15   10     -0.57      0.00
   14   15    0      5.80      0.00
   14   15    1      3.80      0.00
   14   15    2     -1.13      0.00
   14   15    3      2.50      0.00
   14   15    4     -3.50      0.00
   14   15    5     -2.52      0.00
   14   15    6     -1.38      0.00
   14   15    7     -3.50      0.00
   14   15    8      2.36      0.00
   14   15    9      2.87      0.00
   15   15    0      1.76      0.00
   15   15    1     -3.00      0.00
   15   15    2      2.54      0.00
   15   15    3      0.06      0.00
   15   15    4      1.91      0.00
   15   15    5     -2.73      0.00
   15   15    6      2.12      0.00
   15   15    7     -2.09      0.00
   16   15    0      3.05      0.00
   16   15    1      0.51      0.00
   16   15    2     -1.55      0.00
   16   15    3      0.04      0.00
   16   15    4     -0.11      0.00
   16   15    5     -1.05      0.00
   16   15    6      1.75      0.00
   17   15    0      8.96      0.00
   17   15    1      4.66      0.00
   17   15    2     -2.51      0.00
   17   15    3      2.48      0.00
   17   15    4     -3.49      0.00
    0   16    0     -5.07      0.00
    0   16    2      2.38      0.00
    0   16    4     -3.79      0.00
    0   16    6      1.41      0.00
    0   16    8      7.29      0.00
    0   16   10      3.57      0.00
    0   16   12      6.26      0.00
    0   16   14      7.25      0.00
    1   16    0     -5.92      0.00
    1   16    1     -3.12      0.00
    1   16    2     -7.16      0.00
    1   16    3     -0.17      0.00
    1   16    4     -0.03      0.00
    1   16    5     -1.08      0.00
    1   16    6      3.95      0.00
    1   16    7      1.35      0.00
    1   16    8      4.67      0.00
    1   16    9      4.34      0.00
    1   16   10     -0.43      0.00
    1   16   11      2.29      0.00
    1   16   12     -2.98      0.00
    1   16   13      1.40      0.00
    1   16   14     -0.92      0.00
    2   16    0      2.03      0.00
    2   16    1      2.01      0.00
    2   16    2      2.45      0.00
    2   16    3    -12.64      0.00
    2   16    4      0.80      0.00
    2   16    5     -1.05      0.00
    2   16    6     -2.21      0.00
    2   16    7      4.48      0.00
    2   16    8     -2.59      0.00
    2   16    9     -1.03      0.00
    2   16   10     -2.55      0.00
    2   16   11     -1.18      0.00
    2   16   12     -2.99      0.00
    2   16   13     -6.09      0.00
    2   16   14     -4.72      0.00
    3   16    0     -2.11      0.00
    3   16    1     -6.27      0.00
    3   16    2     -0.92      0.00
    3   16    3      3.95      0.00
    3   16    4      3.94      0.00
    3   16    5      5.20      0.00
    3   16    6      2.99      0.00
    3   16    7      0.10      0.00
    3   16    8     -0.06      0.00
    3   16    9     -2.06      0.00
    3   16   10      0.44      0.00
    3   16   11      2.83      0.00
    3   16   12      0.42      0.00
    3   16   13     -0.10      0.00
    3   16   14      1.62      0.00
    4   16    0     -4.22      0.00
    4   16    1      1.95      0.00
    4   16    2     -3.09      0.00
    4   16    3     -5.14      0.00
    4   16    4      1.35      0.00
    4   16    5      3.09      0.00
    4   16    6     -2.17      0.00
    4   16    7     -2.43      0.00
    4   16    8     -1.66      0.00
    4   16    9     -0.25      0.00
    4   16   10      1.18      0.00
    4   16   11     -0.17      0.00
    4   16   12     -0.54      0.00
    4   16   13      3.94      0.00
    4   16   14     -0.73      0.00
    5   16    0     -3.93      0.00
    5   16    1     -1.49      0.00
    5   16    2     -9.00      0.00
    5   16    3      1.40      0.00
    5   16    4     -0.87      0.00
    5   16    5      2.61      0.00
    5   16    6      0.87      0.00
    5   16    7      0.06      0.00
    5   16    8     -0.65      0.00
    5   16    9     -0.40      0.00
    5   16   10      2.88      0.00
    5   16   11     -2.49      0.00
    5   16   12     -1.22      0.00
    5   16   13     -2.07      0.00
    5   16   14     -1.87      0.00
    6   16    0      2.54      0.00
    6   16    1      1.98      0.00
    6   16    2     -1.10      0.00
    6   16    3     -1.20      0.00
    6   16    4      1.26      0.00
    6   16    5      3.20      0.00
    6   16    6     -1.83      0.00
    6   16    7      2.60      0.00
    6   16    8     -0.51      0.00
    6   16    9      3.12      0.00
    6   16   10      1.05      0.00
    6   16   11     -0.21      0.00
    6   16   12     -2.61      0.00
    6   16   13     -0.73      0.00
    7   16    0     -0.28      0.00
    7   16    1      2.84      0.00
    7   16    2     -7.01      0.00
    7   16    3     -2.72      0.00
    7   16    4     -4.61      0.00
    7   16    5     -3.16      0.00
    7   16    6     -0.42      0.00
    7   16    7     -0.67      0.00
    7   16    8     -1.32      0.00
    7   16    9      0.64      0.00
    7   16   10     -4.61      0.00
    7   16   11      0.45      0.00
    7   16   12     -2.00      0.00
    7   16   13      1.19      0.00
    8   16    0      1.45      0.00
    8   16    1     -3.28      0.00
    8   16    2     -0.15      0.00
    8   16    3      1.70      0.00
    8   16    4     -3.25      0.00
    8   16    5      0.74      0.00
    8   16    6      1.84      0.00
    8   16    7     -0.21      0.00
    8   16    8      1.65      0.00
    8   16    9     -3.27      0.00
    8   16   10      1.92      0.00
    8   16   11     -1.84      0.00
    8   16   12     -1.17      0.00
    8   16   13     -0.21      0.00
    9   16    0     -2.42      0.00
    9   16    1     -1.38      0.00
    9   16    2     -6.42      0.00
    9   16    3     -0.16      0.00
    9   16    4      0.06      0.00
    9   16    5      1.45      0.00
    9   16    6      0.88      0.00
    9   16    7      0.91      0.00
    9   16    8     -1.55      0.00
    9   16    9     -0.90      0.00
    9   16   10      2.60      0.00
    9   16   11     -2.05      0.00
    9   16   12      2.14      0.00
   10   16    0      1.10      0.00
   10   16    1     -0.77      0.00
   10   16    2      3.15      0.00
   10   16    3      1.46      0.00
   10   16    4      2.17      0.00
   10   16    5     -2.08      0.00
   10   16    6     -0.25      0.00
   10   16    7     -3.50      0.00
   10   16    8     -0.09      0.00
   10   16    9     -1.76      0.00
   10   16   10     -3.03      0.00
   10   16   11      0.98      0.00
   10   16   12     -0.73      0.00
   11   16    0      5.39      0.00
   11   16    1      2.11      0.00
   11   16    2      6.39      0.00
   11   16    3      2.98      0.00
   11   16    4      1.62      0.00
   11   16    5      1.97      0.00
   11   16    6      1.50      0.00
   11   16    7     -1.57      0.00
   11   16    8     -0.84      0.00
   11   16    9     -1.28      0.00
   11   16   10     -0.65      0.00
   11   16   11      0.02      0.00
   12   16    0      2.84      0.00
   12   16    1      8.86      0.00
   12   16    2      1.57      0.00
   12   16    3      3.67      0.00
   12   16    4      0.30      0.00
   12   16    5     -2.78      0.00
   12   16    6     -1.20      0.00
   12   16    7     -1.36      0.00
   12   16    8     -3.04      0.00
   12   16    9      2.65      0.00
   12   16   10     -3.00      0.00
   13   16    0     -9.93      0.00
   13   16    1     -3.00      0.00
   13   16    2     -0.33      0.00
   13   16    3     -5.50      0.00
   13   16    4     -7.11      0.00
   13   16    5      0.48      0.00
   13   16    6     -3.50      0.00
   13   16    7      2.21      0.00
   13   16    8     -1.79      0.00
   13   16    9     -0.44      0.00
   14   16    0      6.08      0.00
   14   16    1     -0.15      0.00
   14   16    2      5.61      0.00
   14   16    3      1.09      0.00
   14   16    4      3.70      0.00
   14   16    5      0.83      0.00
   14   16    6      2.45      0.00
   14   16    7      1.33      0.00
   14   16    8     -0.08      0.00
   15   16    0     -2.83      0.00
   15   16    1     -2.48      0.00
   15   16    2      1.57      0.00
   15   16    3     -4.91      0.00
   15   16    4      5.19      0.00
   15   16    5     -0.81      0.00
   15   16    6     -0.95      0.00
   15   16    7     -0.81      0.00
   16   16    0      1.61      0.00
   16   16    1     -0.51      0.00
   16   16    2      1.48      0.00
   16   16    3     -2.99      0.00
   16   16    4      0.44      0.00
   16   16    5     -2.10      0.00
   17   16    0     -5.08      0.00
   17   16    1     -2.57      0.00
   17   16    2     -0.24      0.00
   17   16    3      3.27      0.00
    0   17    1    -10.96      0.00
    0   17    3     -6.89      0.00
    0   17    5     -1.03      0.00
    0   17    7      3.63      0.00
    0   17    9     -4.96      0.00
    0   17   11     -1.51      0.00
    0   17   13     -2.73      0.00
    1   17    0     -1.32      0.00
    1   17    1      1.59      0.00
    1   17    2     -3.35      0.00
    1   17    3      9.74      0.00
    1   17    4      2.12      0.00
    1   17    5      4.17      0.00
    1   17    6      9.81      0.00
    1   17    7     -2.21      0.00
    1   17    8      5.44      0.00
    1   17    9      3.19      0.00
    1   17   10      2.93      0.00
    1   17   11      0.60      0.00
    1   17   12      1.28      0.00
    1   17   13      1.91      0.00
    1   17   14     -1.35      0.00
    2   17    0      1.74      0.00
    2   17    1     -9.42      0.00
    2   17    2      4.43      0.00
    2   17    3     -5.50      0.00
    2   17    4      0.38      0.00
    2   17    5     -5.51      0.00
    2   17    6      0.61      0.00
    2   17    7     -1.23      0.00
    2   17    8     -1.03      0.00
    2   17    9     -1.93      0.00
    2   17   10     -0.16      0.00
    2   17   11     -2.76      0.00
    2   17   12      0.83      0.00
    2   17   13      2.75      0.00
    2   17   14     -3.34      0.00
    3   17    0    -12.71      0.00
    3   17    1     -6.26      0.00
    3   17    2     -5.47      0.00
    3   17    3      2.20      0.00
    3   17    4     -5.47      0.00
    3   17    5     -3.69      0.00
    3   17    6     -5.24      0.00
    3   17    7     -0.14      0.00
    3   17    8     -2.81      0.00
    3   17    9      1.34      0.00
    3   17   10     -3.73      0.00
    3   17   11     -2.59      0.00
    3   17   12      1.90      0.00
    3   17   13     -2.21      0.00
    3   17   14      3.27      0.00
    4   17    0      9.15      0.00
    4   17    1     10.46      0.00
    4   17    2      4.95      0.00
    4   17    3      3.85      0.00
    4   17    4     -2.31      0.00
    4   17    5      0.70      0.00
    4   17    6      0.31      0.00
    4   17    7     -0.38      0.00
    4   17    8      5.77      0.00
    4   17    9     -0.66      0.00
    4   17   10     -2.29      0.00
    4   17   11     -1.16      0.00
    4   17   12     -2.85      0.00
    4   17   13      0.95      0.00
    4   17   14     -0.47      0.00
    5   17    0     -1.73      0.00
    5   17    1      2.55      0.00
    5   17    2      3.48      0.00
    5   17    3      2.98      0.00
    5   17    4      1.53      0.00
    5   17    5     -2.01      0.00
    5   17    6      1.51      0.00
    5   17    7      2.04      0.00
    5   17    8     -0.53      0.00
    5   17    9     -1.82      0.00
    5   17   10     -3.21      0.00
    5   17   11     -0.49      0.00
    5   17   12      2.99      0.00
    5   17   13     -0.16      0.00
    6   17    0      1.74      0.00
    6   17    1     -0.56      0.00
    6   17    2      3.98      0.00
    6   17    3      0.22      0.00
    6   17    4     -1.03      0.00
    6   17    5      2.39      0.00
    6   17    6     -2.76      0.00
    6   17    7      2.69      0.00
    6   17    8     -2.42      0.00
    6   17    9      0.89      0.00
    6   17   10     -2.21      0.00
    6   17   11      2.13      0.00
    6   17   12      1.13      0.00
    6   17   13      1.26      0.00
    7   17    0     -0.52      0.00
    7   17    1     -1.68      0.00
    7   17    2      3.64      0.00
    7   17    3     -2.14      0.00
    7   17    4      5.14      0.00
    7   17    5     -3.00      0.00
    7   17    6      0.44      0.00
    7   17    7      0.07      0.00
    7   17    8     -0.57      0.00
    7   17    9      0.26      0.00
    7   17   10     -2.16      0.00
    7   17   11      1.80      0.00
    7   17   12     -0.89      0.00
    7   17   13      1.25      0.00
    8   17    0     -3.34      0.00
    8   17    1     -3.16      0.00
    8   17    2      1.34      0.00
    8   17    3      3.51      0.00
    8   17    4     -1.84      0.00
    8   17    5      0.74      0.00
    8   17    6      0.04      0.00
    8   17    7     -3.37      0.00
    8   17    8      1.72      0.00
    8   17    9     -1.09      0.00
    8   17   10      3.25      0.00
    8   17   11      0.74      0.00
    8   17   12      3.37      0.00
    9   17    0      3.71      0.00
    9   17    1      4.44      0.00
    9   17    2      1.65      0.00
    9   17    3     -2.25      0.00
    9   17    4      2.81      0.00
    9   17    5      2.60      0.00
    9   17    6     -3.70      0.00
    9   17    7      1.13      0.00
    9   17    8     -2.08      0.00
    9   17    9     -0.12      0.00
    9   17   10      1.88      0.00
    9   17   11     -0.80      0.00
    9   17   12      3.67      0.00
   10   17    0      4.17      0.00
   10   17    1      2.00      0.00
   10   17    2      3.96      0.00
   10   17    3     -0.68      0.00
   10   17    4      1.40      0.00
   10   17    5     -3.43      0.00
   10   17    6     -0.53      0.00
   10   17    7     -1.50      0.00
   10   17    8     -1.60      0.00
   10   17    9     -0.07      0.00
   10   17   10     -3.54      0.00
   10   17   11      0.49      0.00
   11   17    0     -3.86      0.00
   11   17    1     -4.56      0.00
   11   17    2     -2.94      0.00
   11   17    3     -4.04      0.00
   11   17    4     -2.10      0.00
   11   17    5     -1.60      0.00
   11   17    6      0.23      0.00
   11   17    7      0.16      0.00
   11   17    8     -0.79      0.00
   11   17    9      1.60      0.00
   11   17   10      1.73      0.00
   11   17   11      3.84      0.00
   12   17    0     -1.63      0.00
   12   17    1      6.37      0.00
   12   17    2     -5.96      0.00
   12   17    3     11.65      0.00
   12   17    4     -1.36      0.00
   12   17    5      3.66      0.00
   12   17    6     -1.37      0.00
   12   17    7      2.25      0.00
   12   17    8      0.23      0.00
   12   17    9      2.35      0.00
   12   17   10      0.37      0.00
   13   17    0     -5.91      0.00
   13   17    1      1.54      0.00
   13   17    2     -6.24      0.00
   13   17    3      3.48      0.00
   13   17    4     -0.57      0.00
   13   17    5      3.69      0.00
   13   17    6     -0.72      0.00
   13   17    7      1.53      0.00
   13   17    8      3.14      0.00
   13   17    9     -0.03      0.00
   14   17    0      8.79      0.00
   14   17    1     -1.12      0.00
   14   17    2     -0.60      0.00
   14   17    3      2.67      0.00
   14   17    4      0.25      0.00
   14   17    5     -0.10      0.00
   14   17    6      0.66      0.00
   14   17    7     -3.07      0.00
   14   17    8      2.03      0.00
   15   17    0     -3.51      0.00
   15   17    1     -0.89      0.00
   15   17    2     -1.10      0.00
   15   17    3     -2.41      0.00
   15   17    4      0.90      0.00
   15   17    5     -0.71      0.00
   15   17    6     -0.70      0.00
   15   17    7      2.67      0.00
   16   17    0      2.34      0.00
   16   17    1     -3.71      0.00
   16   17    2      1.89      0.00
   16   17    3      0.06      0.00
   16   17    4     -0.99      0.00
   16   17    5     -1.79      0.00
   17   17    0      1.95      0.00
   17   17    1     -2.41      0.00
    0   18    0     -2.96      0.00
    0   18    2      3.89      0.00
    0   18    4      2.99      0.00
    0   18    6    -10.31      0.00
    0   18    8     -4.98      0.00
    0   18   10     -5.75      0.00
    0   18   12     -2.53      0.00
    0   18   14      1.66      0.00
    1   18    0      5.40      0.00
    1   18    1      3.85      0.00
    1   18    2      1.83      0.00
    1   18    3     -1.08      0.00
    1   18    4      0.16      0.00
    1   18    5     -0.78      0.00
    1   18    6     -4.00      0.00
    1   18    7     -5.57      0.00
    1   18    8     -1.97      0.00
    1   18    9      0.54      0.00
    1   18   10     -1.60      0.00
    1   18   11     -2.38      0.00
    1   18   12     -0.92      0.00
    1   18   13     -2.66      0.00
    1   18   14      4.47      0.00
    2   18    0     11.46      0.00
    2   18    1      4.70      0.00
    2   18    2      5.21      0.00
    2   18    3     -1.68      0.00
    2   18    4      3.63      0.00
    2   18    5     -4.33      0.00
    2   18    6      0.44      0.00
    2   18    7     -4.34      0.00
    2   18    8      1.85      0.00
    2   18    9     -4.02      0.00
    2   18   10      3.59      0.00
    2   18   11      2.53      0.00
    2   18   12     -3.79      0.00
    2   18   13      2.60      0.00
    2   18   14      0.41      0.00
    3   18    0      3.83      0.00
    3   18    1      5.46      0.00
    3   18    2      4.85      0.00
    3   18    3      2.26      0.00
    3   18    4      8.55      0.00
    3   18    5      3.70      0.00
    3   18    6      2.01      0.00
    3   18    7      4.42      0.00
    3   18    8     -0.10      0.00
    3   18    9      4.61      0.00
    3   18   10      7.28      0.00
    3   18   11      2.81      0.00
    3   18   12      2.80      0.00
    3   18   13     -2.64      0.00
    3   18   14     -0.28      0.00
    4   18    0      2.73      0.00
    4   18    1     -0.89      0.00
    4   18    2     -6.48      0.00
    4   18    3     -0.91      0.00
    4   18    4     -7.74      0.00
    4   18    5      0.39      0.00
    4   18    6     -3.04      0.00
    4   18    7     -4.29      0.00
    4   18    8     -0.81      0.00
    4   18    9     -2.45      0.00
    4   18   10      3.10      0.00
    4   18   11      2.90      0.00
    4   18   12     -1.97      0.00
    4   18   13      0.48      0.00
    5   18    0    -12.10      0.00
    5   18    1     -1.32      0.00
    5   18    2     -4.42      0.00
    5   18    3      2.33      0.00
    5   18    4     -0.85      0.00
    5   18    5     -2.37      0.00
    5   18    6     -1.31      0.00
    5   18    7     -1.96      0.00
    5   18    8     -4.72      0.00
    5   18    9      1.19      0.00
    5   18   10      1.89      0.00
    5   18   11      1.25      0.00
    5   18   12      0.95      0.00
    5   18   13      0.40      0.00
    6   18    0      4.51      0.00
    6   18    1      6.01      0.00
    6   18    2      0.84      0.00
    6   18    3      5.12      0.00
    6   18    4     -0.32      0.00
    6   18    5      5.30      0.00
    6   18    6     -1.71      0.00
    6   18    7     -1.17      0.00
    6   18    8     -1.18      0.00
    6   18    9      4.87      0.00
    6   18   10      0.26      0.00
    6   18   11      0.74      0.00
    6   18   12     -1.25      0.00
    6   18   13     -2.45      0.00
    7   18    0      2.77      0.00
    7   18    1      0.05      0.00
    7   18    2      1.87      0.00
    7   18    3     -1.45      0.00
    7   18    4      2.49      0.00
    7   18    5     -1.10      0.00
    7   18    6     -1.73      0.00
    7   18    7      1.62      0.00
    7   18    8      0.47      0.00
    7   18    9      0.41      0.00
    7   18   10      1.43      0.00
    7   18   11     -0.50      0.00
    7   18   12     -0.21      0.00
    7   18   13      2.97      0.00
    8   18    0      1.82      0.00
    8   18    1      4.49      0.00
    8   18    2     -0.70      0.00
    8   18    3      7.20      0.00
    8   18    4     -4.31      0.00
    8   18    5      1.23      0.00
    8   18    6      4.30      0.00
    8   18    7      0.54      0.00
    8   18    8      2.58      0.00
    8   18    9      0.11      0.00
    8   18   10      2.92      0.00
    8   18   11     -0.35      0.00
    8   18   12      1.21      0.00
    9   18    0      2.35      0.00
    9   18    1     -0.79      0.00
    9   18    2     -0.25      0.00
    9   18    3     -2.62      0.00
    9   18    4     -0.22      0.00
    9   18    5      1.25      0.00
    9   18    6      0.92      0.00
    9   18    7      1.31      0.00
    9   18    8      3.81      0.00
    9   18    9      0.68      0.00
    9   18   10      2.45      0.00
    9   18   11     -3.36      0.00
    9   18   12     -4.04      0.00
   10   18    0     -1.44      0.00
   10   18    1     -6.64      0.00
   10   18    2      1.62      0.00
   10   18    3     -3.49      0.00
   10   18    4      2.53      0.00
   10   18    5     -4.62      0.00
   10   18    6      1.38      0.00
   10   18    7      1.15      0.00
   10   18    8      4.58      0.00
   10   18    9      2.43      0.00
   10   18   10     -1.43      0.00
   10   18   11     -0.75      0.00
   11   18    0      0.71      0.00
   11   18    1     -3.88      0.00
   11   18    2      2.47      0.00
   11   18    3     -5.00      0.00
   11   18    4      3.94      0.00
   11   18    5     -0.65      0.00
   11   18    6      2.25      0.00
   11   18    7      0.34      0.00
   11   18    8     -0.73      0.00
   11   18    9      2.96      0.00
   11   18   10     -5.78      0.00
   12   18    0     -3.30      0.00
   12   18    1      0.35      0.00
   12   18    2     -2.02      0.00
   12   18    3     -0.37      0.00
   12   18    4     -2.99      0.00
   12   18    5      4.65      0.00
   12   18    6     -3.18      0.00
   12   18    7      2.12      0.00
   12   18    8     -3.41      0.00
   12   18    9     -3.83      0.00
   12   18   10     -1.70      0.00
   13   18    0     -6.45      0.00
   13   18    1      0.61      0.00
   13   18    2     -2.79      0.00
   13   18    3     -4.75      0.00
   13   18    4     -2.87      0.00
   13   18    5     -0.29      0.00
   13   18    6      0.52      0.00
   13   18    7      2.25      0.00
   13   18    8     -0.91      0.00
   13   18    9     -2.65      0.00
   14   18    0      2.87      0.00
   14   18    1      2.89      0.00
   14   18    2      5.38      0.00
   14   18    3      2.58      0.00
   14   18    4     -1.45      0.00
   14   18    5      0.48      0.00
   14   18    6      2.09      0.00
   14   18    7     -3.22      0.00
   15   18    0     -9.18      0.00
   15   18    1     -1.74      0.00
   15   18    2     -1.24      0.00
   15   18    3     -2.88      0.00
   15   18    4      2.12      0.00
   15   18    5      0.60      0.00
   15   18    6     -3.06      0.00
   16   18    0      4.13      0.00
   16   18    1      0.05      0.00
   16   18    2      2.54      0.00
   16   18    3      0.74      0.00
   16   18    4      2.64      0.00
    0   19    1      3.92      0.00
    0   19    3      5.85      0.00
    0   19    5     -1.33      0.00
    0   19    7      0.09      0.00
    0   19    9     -1.59      0.00
    0   19   11      2.11      0.00
    0   19   13      1.04      0.00
    1   19    0      9.32      0.00
    1   19    1     -2.91      0.00
    1   19    2      4.91      0.00
    1   19    3     -4.40      0.00
    1   19    4      0.47      0.00
    1   19    5      0.45      0.00
    1   19    6      5.18      0.00
    1   19    7      1.81      0.00
    1   19    8      0.42      0.00
    1   19    9      4.02      0.00
    1   19   10      2.52      0.00
    1   19   11      2.01      0.00
    1   19   12      3.32      0.00
    1   19   13     -1.82      0.00
    2   19    0     -6.60      0.00
    2   19    1     -0.96      0.00
    2   19    2     -3.39      0.00
    2   19    3     -0.36      0.00
    2   19    4     -4.78      0.00
    2   19    5     -2.10      0.00
    2   19    6      2.19      0.00
    2   19    7     -1.73      0.00
    2   19    8      0.30      0.00
    2   19    9     -4.34      0.00
    2   19   10     -4.15      0.00
    2   19   11     -1.10      0.00
    2   19   12      1.24      0.00
    2   19   13      0.99      0.00
    3   19    0     -5.64      0.00
    3   19    1     -1.17      0.00
    3   19    2      2.26      0.00
    3   19    3     -2.87      0.00
    3   19    4      3.46      0.00
    3   19    5     -0.21      0.00
    3   19    6      2.69      0.00
    3   19    7      0.39      0.00
    3   19    8      1.95      0.00
    3   19    9     -1.16      0.00
    3   19   10     -1.90      0.00
    3   19   11     -5.16      0.00
    3   19   12      4.75      0.00
    3   19   13      0.76      0.00
    4   19    0     11.21      0.00
    4   19    1      2.36      0.00
    4   19    2      3.89      0.00
    4   19    3      2.13      0.00
    4   19    4      0.43      0.00
    4   19    5      4.08      0.00
    4   19    6      0.06      0.00
    4   19    7      3.63      0.00
    4   19    8      3.09      0.00
    4   19    9      0.58      0.00
    4   19   10     -4.23      0.00
    4   19   11     -0.85      0.00
    4   19   12     -1.65      0.00
    4   19   13      1.38      0.00
    5   19    0     -4.93      0.00
    5   19    1     -0.23      0.00
    5   19    2     -1.18      0.00
    5   19    3     -0.47      0.00
    5   19    4      1.74      0.00
    5   19    5     -0.24      0.00
    5   19    6      2.87      0.00
    5   19    7      4.15      0.00
    5   19    8      2.15      0.00
    5   19    9      0.33      0.00
    5   19   10     -0.82      0.00
    5   19   11     -0.11      0.00
    5   19   12     -2.09      0.00
    5   19   13      1.45      0.00
    6   19    0      2.66      0.00
    6   19    1     -1.93      0.00
    6   19    2     -4.65      0.00
    6   19    3     -8.39      0.00
    6   19    4     -0.90      0.00
    6   19    5     -2.07      0.00
    6   19    6      3.40      0.00
    6   19    7     -0.60      0.00
    6   19    8      2.60      0.00
    6   19    9      1.05      0.00
    6   19   10     -1.31      0.00
    6   19   11      2.51      0.00
    6   19   12     -0.74      0.00
    6   19   13     -0.79      0.00
    7   19    0     -2.42      0.00
    7   19    1     -4.44      0.00
    7   19    2     -0.99      0.00
    7   19    3     -4.47      0.00
    7   19    4     -1.14      0.00
    7   19    5      0.29      0.00
    7   19    6     -4.47      0.00
    7   19    7      3.52      0.00
    7   19    8     -2.12      0.00
    7   19    9     -1.83      0.00
    7   19   10     -3.02      0.00
    7   19   11     -2.40      0.00
    7   19   12     -0.74      0.00
    8   19    0     -1.79      0.00
    8   19    1     -0.05      0.00
    8   19    2     -2.79      0.00
    8   19    3      1.46      0.00
    8   19    4     -2.09      0.00
    8   19    5     -0.44      0.00
    8   19    6     -1.11      0.00
    8   19    7      0.56      0.00
    8   19    8     -4.12      0.00
    8   19    9     -2.59      0.00
    8   19   10     -2.04      0.00
    8   19   11     -2.95      0.00
    8   19   12      1.16      0.00
    9   19    0     -0.73      0.00
    9   19    1      0.35      0.00
    9   19    2     -0.63      0.00
    9   19    3     -0.86      0.00
    9   19    4     -0.48      0.00
    9   19    5      1.99      0.00
    9   19    6     -1.08      0.00
    9   19    7     -4.34      0.00
    9   19    8     -1.75      0.00
    9   19    9     -2.83      0.00
    9   19   10     -0.02      0.00
    9   19   11     -0.41      0.00
   10   19    0     -2.56      0.00
   10   19    1      2.15      0.00
   10   19    2     -0.57      0.00
   10   19    3      2.10      0.00
   10   19    4      1.82      0.00
   10   19    5     -0.65      0.00
   10   19    6      0.73      0.00
   10   19    7     -0.27      0.00
   10   19    8     -0.62      0.00
   10   19    9     -3.32      0.00
   10   19   10      3.11      0.00
   10   19   11      4.94      0.00
   11   19    0      1.61      0.00
   11   19    1      2.02      0.00
   11   19    2     -2.32      0.00
   11   19    3      2.89      0.00
   11   19    4     -2.42      0.00
   11   19    5     -0.65      0.00
   11   19    6      2.92      0.00
   11   19    7     -1.15      0.00
   11   19    8     -2.79      0.00
   11   19    9      5.27      0.00
   11   19   10     -2.18      0.00
   12   19    0      3.05      0.00
   12   19    1      4.86      0.00
   12   19    2      3.94      0.00
   12   19    3      4.48      0.00
   12   19    4     -3.01      0.00
   12   19    5     -0.04      0.00
   12   19    6     -2.83      0.00
   12   19    7     -0.84      0.00
   12   19    8     -1.16      0.00
   12   19    9      1.63      0.00
   13   19    0      0.79      0.00
   13   19    1      0.52      0.00
   13   19    2     -2.38      0.00
   13   19    3      2.47      0.00
   13   19    4      0.70      0.00
   13   19    5     -2.40      0.00
   13   19    6     -2.33      0.00
   13   19    7      0.31      0.00
   13   19    8      1.84      0.00
   14   19    0      1.41      0.00
   14   19    1      0.44      0.00
   14   19    2     -3.88      0.00
   14   19    3      3.50      0.00
   14   19    4     -0.65      0.00
   14   19    5      1.16      0.00
   14   19    6     -1.42      0.00
   15   19    0      0.70      0.00
   15   19    1      0.82      0.00
   15   19    2     -4.60      0.00
   15   19    3     -2.28      0.00
   15   19    4     -3.13      0.00
   15   19    5     -0.32      0.00
   16   19    0      5.00      0.00
   16   19    1      4.74      0.00
   16   19    2      4.86      0.00
   16   19    3      0.65      0.00
    0   20    0     -3.90      0.00
    0   20    2     -2.81      0.00
    0   20    4      0.99      0.00
    0   20    6      0.79      0.00
    0   20    8      7.35      0.00
    0   20   10      2.70      0.00
    0   20   12      2.84      0.00
    1   20    0      2.28      0.00
    1   20    1     -5.89      0.00
    1   20    2      0.01      0.00
    1   20    3     -6.03      0.00
    1   20    4      6.02      0.00
    1   20    5     -0.64      0.00
    1   20    6      2.77      0.00
    1   20    7      2.12      0.00
    1   20    8      0.96      0.00
    1   20    9      0.86      0.00
    1   20   10     -2.59      0.00
    1   20   11      2.05      0.00
    1   20   12     -3.55      0.00
    1   20   13      1.82      0.00
    2   20    0     -3.55      0.00
    2   20    1     -5.42      0.00
    2   20    2     -0.62      0.00
    2   20    3      1.51      0.00
    2   20    4     -0.03      0.00
    2   20    5     -1.33      0.00
    2   20    6     -2.49      0.00
    2   20    7      0.72      0.00
    2   20    8     -3.42      0.00
    2   20    9     -1.08      0.00
    2   20   10     -1.24      0.00
    2   20   11      0.19      0.00
    2   20   12     -1.59      0.00
    2   20   13      1.59      0.00
    3   20    0     -4.32      0.00
    3   20    1      1.78      0.00
    3   20    2     -2.83      0.00
    3   20    3      2.70      0.00
    3   20    4     -0.48      0.00
    3   20    5      1.31      0.00
    3   20    6      1.53      0.00
    3   20    7     -2.88      0.00
    3   20    8      3.25      0.00
    3   20    9     -0.42      0.00
    3   20   10      7.88      0.00
    3   20   11     -1.99      0.00
    3   20   12     -0.94      0.00
    3   20   13     -0.97      0.00
    4   20    0     -2.05      0.00
    4   20    1     -3.75      0.00
    4   20    2     -6.98      0.00
    4   20    3     -2.29      0.00
    4   20    4     -5.54      0.00
    4   20    5     -3.07      0.00
    4   20    6     -4.98      0.00
    4   20    7     -2.70      0.00
    4   20    8     -5.66      0.00
    4   20    9     -2.43      0.00
    4   20   10     -1.78      0.00
    4   20   11     -1.33      0.00
    4   20   12     -1.55      0.00
    4   20   13     -2.65      0.00
    5   20    0     -7.64      0.00
    5   20    1     -0.70      0.00
    5   20    2     -0.83      0.00
    5   20    3      3.56      0.00
    5   20    4     -2.92      0.00
    5   20    5      1.68      0.00
    5   20    6     -0.56      0.00
    5   20    7      0.42      0.00
    5   20    8     -2.27      0.00
    5   20    9     -1.21      0.00
    5   20   10     -0.26      0.00
    5   20   11      0.70      0.00
    5   20   12      4.07      0.00
    5   20   13     -0.76      0.00
    6   20    0      3.91      0.00
    6   20    1      4.22      0.00
    6   20    2      3.61      0.00
    6   20    3      1.96      0.00
    6   20    4      2.98      0.00
    6   20    5     -1.49      0.00
    6   20    6      4.25      0.00
    6   20    7     -3.33      0.00
    6   20    8      1.61      0.00
    6   20    9      0.79      0.00
    6   20   10     -0.93      0.00
    6   20   11      0.87      0.00
    6   20   12     -1.41      0.00
    7   20    0     -7.14      0.00
    7   20    1     -1.28      0.00
    7   20    2      2.11      0.00
    7   20    3      4.22      0.00
    7   20    4     -1.23      0.00
    7   20    5      3.67      0.00
    7   20    6     -3.99      0.00
    7   20    7      1.06      0.00
    7   20    8     -1.83      0.00
    7   20    9      2.36      0.00
    7   20   10     -1.84      0.00
    7   20   11      0.20      0.00
    7   20   12     -1.42      0.00
    8   20    0      3.09      0.00
    8   20    1     -4.50      0.00
    8   20    2     -0.77      0.00
    8   20    3     -0.81      0.00
    8   20    4      0.86      0.00
    8   20    5     -1.24      0.00
    8   20    6      0.26      0.00
    8   20    7      0.17      0.00
    8   20    8     -1.61      0.00
    8   20    9     -1.19      0.00
    8   20   10      3.87      0.00
    8   20   11      1.22      0.00
    9   20    1     -5.20      0.00
    9   20    2      2.47      0.00
    9   20    3     -5.92      0.00
    9   20    4     -0.73      0.00
    9   20    5     -1.56      0.00
    9   20    6      1.68      0.00
    9   20    7     -4.13      0.00
    9   20    8      4.30      0.00
    9   20    9      1.42      0.00
    9   20   10      1.06      0.00
    9   20   11     -2.11      0.00
   10   20    0      3.01      0.00
   10   20    1      1.25      0.00
   10   20    2      2.95      0.00
   10   20    3     -2.32      0.00
   10   20    4      3.63      0.00
   10   20    5     -1.82      0.00
   10   20    6     -0.21      0.00
   10   20    7      3.57      0.00
   10   20    8      2.84      0.00
   10   20    9     -2.14      0.00
   10   20   10      0.82      0.00
   11   20    0      2.82      0.00
   11   20    1      1.03      0.00
   11   20    2     -0.35      0.00
   11   20    3     -0.11      0.00
   11   20    4      1.83      0.00
   11   20    5      2.52      0.00
   11   20    6     -0.97      0.00
   11   20    7      1.61      0.00
   11   20    8     -2.60      0.00
   11   20    9     -0.16      0.00
   12   20    0     -5.38      0.00
   12   20    1     -3.89      0.00
   12   20    2     -1.85      0.00
   12   20    3     -4.19      0.00
   12   20    4      0.13      0.00
   12   20    5      2.13      0.00
   12   20    6     -0.66      0.00
   12   20    7      2.55      0.00
   12   20    8     -0.33      0.00
   12   20    9      0.70      0.00
   13   20    0     -1.27      0.00
   13   20    1      0.97      0.00
   13   20    2     -2.52      0.00
   13   20    3     -1.38      0.00
   13   20    4     -0.57      0.00
   13   20    5      0.46      0.00
   13   20    6      1.59      0.00
   13   20    7      1.39      0.00
   13   20    8      2.66      0.00
   14   20    0     -0.78      0.00
   14   20    1      5.14      0.00
   14   20    2      3.26      0.00
   14   20    3      1.32      0.00
   14   20    4     -0.53      0.00
   14   20    5      1.25      0.00
   14   20    6      1.82      0.00
   15   20    0     -5.20      0.00
   15   20    1     -3.29      0.00
   15   20    2     -0.93      0.00
   15   20    3      0.01      0.00
   15   20    4      0.44      0.00
   16   20    0     -0.11      0.00
    0   21    1     -1.65      0.00
    0   21    3      3.93      0.00
    0   21    5      0.79      0.00
    0   21    7     -6.32      0.00
    0   21    9     -2.89      0.00
    0   21   11     -8.77      0.00
    0   21   13     -4.64      0.00
    1   21    0     -2.81      0.00
    1   21    1      3.55      0.00
    1   21    2     -2.53      0.00
    1   21    3     -1.84      0.00
    1   21    4      0.06      0.00
    1   21    5     -2.45      0.00
    1   21    6      0.31      0.00
    1   21    7     -1.62      0.00
    1   21    8     -1.40      0.00
    1   21    9      2.03      0.00
    1   21   10     -1.22      0.00
    1   21   11      1.57      0.00
    1   21   12     -2.51      0.00
    1   21   13     -2.99      0.00
    2   21    0      3.03      0.00
    2   21    1     -5.09      0.00
    2   21    2      5.83      0.00
    2   21    3     -6.67      0.00
    2   21    4      1.84      0.00
    2   21    5     -4.70      0.00
    2   21    6      0.99      0.00
    2   21    7      0.06      0.00
    2   21    8     -0.24      0.00
    2   21    9      2.79      0.00
    2   21   10     -0.73      0.00
    2   21   11      0.76      0.00
    2   21   12      0.93      0.00
    2   21   13     -3.23      0.00
    3   21    0      2.08      0.00
    3   21    1     -0.14      0.00
    3   21    2      0.35      0.00
    3   21    3     -1.53      0.00
    3   21    4     -1.21      0.00
    3   21    5      3.46      0.00
    3   21    6      1.19      0.00
    3   21    7     -0.06      0.00
    3   21    8      5.79      0.00
    3   21    9      0.94      0.00
    3   21   10      3.76      0.00
    3   21   11      0.14      0.00
    3   21   12      1.99      0.00
    3   21   13     -0.81      0.00
    4   21    0      0.57      0.00
    4   21    1      3.12      0.00
    4   21    2      1.34      0.00
    4   21    3      1.43      0.00
    4   21    4      4.27      0.00
    4   21    5     -1.68      0.00
    4   21    6     -0.34      0.00
    4   21    7      0.95      0.00
    4   21    8      0.84      0.00
    4   21    9     -1.45      0.00
    4   21   10      0.41      0.00
    4   21   11      1.14      0.00
    4   21   12     -0.75      0.00
    5   21    0      0.43      0.00
    5   21    1     -3.08      0.00
    5   21    2      3.32      0.00
    5   21    3      1.07      0.00
    5   21    4      3.12      0.00
    5   21    5      1.02      0.00
    5   21    6     -0.94      0.00
    5   21    7     -0.15      0.00
    5   21    8     -0.69      0.00
    5   21    9      0.55      0.00
    5   21   10     -0.03      0.00
    5   21   11      1.74      0.00
    5   21   12     -0.43      0.00
    6   21    0      2.64      0.00
    6   21    1      0.43      0.00
    6   21    2     -3.79      0.00
    6   21    3     -0.49      0.00
    6   21    4      0.03      0.00
    6   21    5     -2.55      0.00
    6   21    6     -1.21      0.00
    6   21    7     -3.15      0.00
    6   21    8     -0.86      0.00
    6   21    9      0.01      0.00
    6   21   10      1.34      0.00
    6   21   11      0.69      0.00
    6   21   12     -1.37      0.00
    7   21    0     -4.79      0.00
    7   21    1      6.46      0.00
    7   21    2      0.96      0.00
    7   21    3      2.67      0.00
    7   21    4     -0.52      0.00
    7   21    5      1.99      0.00
    7   21    6     -2.30      0.00
    7   21    7      3.44      0.00
    7   21    8     -0.80      0.00
    7   21    9      2.98      0.00
    7   21   10      0.62      0.00
    7   21   11      0.66      0.00
    8   21    0      7.55      0.00
    8   21    1      6.27      0.00
    8   21    2     -1.20      0.00
    8   21    3      2.97      0.00
    8   21    4      0.87      0.00
    8   21    5      0.48      0.00
    8   21    6      1.67      0.00
    8   21    7      5.44      0.00
    8   21    8      1.52      0.00
    8   21    9     -0.59      0.00
    8   21   10      2.64      0.00
    8   21   11      0.82      0.00
    9   21    0     -1.79      0.00
    9   21    1     -0.83      0.00
    9   21    2      2.97      0.00
    9   21    3      2.09      0.00
    9   21    4     -0.16      0.00
    9   21    5      0.98      0.00
    9   21    6      2.24      0.00
    9   21    7     -3.25      0.00
    9   21    8      3.23      0.00
    9   21    9     -0.17      0.00
    9   21   10     -2.96      0.00
   10   21    0     -2.29      0.00
   10   21    1     -2.06      0.00
   10   21    2     -0.84      0.00
   10   21    3      4.63      0.00
   10   21    4      0.14      0.00
   10   21    5     -2.47      0.00
   10   21    6      0.23      0.00
   10   21    7     -1.11      0.00
   10   21    8     -3.07      0.00
   10   21    9      0.52      0.00
   10   21   10      0.85      0.00
   11   21    0     -3.14      0.00
   11   21    1     -0.85      0.00
   11   21    2     -1.08      0.00
   11   21    3     -0.10      0.00
   11   21    4     -2.79      0.00
   11   21    5     -2.77      0.00
   11   21    6     -2.08      0.00
   11   21    7     -3.32      0.00
   11   21    8     -2.85      0.00
   11   21    9      3.21      0.00
   12   21    0      0.39      0.00
   12   21    1      0.81      0.00
   12   21    2      2.81      0.00
   12   21    3      1.48      0.00
   12   21    4     -1.68      0.00
   12   21    5      1.96      0.00
   12   21    6     -1.99      0.00
   12   21    7     -0.75      0.00
   12   21    8     -1.19      0.00
   13   21    0     -1.18      0.00
   13   21    1      1.54      0.00
   13   21    2     -1.52      0.00
   13   21    3      4.51      0.00
   13   21    4      1.95      0.00
   13   21    5      4.38      0.00
   13   21    6      0.60      0.00
   13   21    7      1.24      0.00
   14   21    0     -2.25      0.00
   14   21    1     -0.41      0.00
   14   21    2     -1.70      0.00
   14   21    3      2.58      0.00
   14   21    4      2.40      0.00
   14   21    5     -0.98      0.00
   15   21    0      1.38      0.00
   15   21    1     -1.56      0.00
   15   21    2     -1.90      0.00
   15   21    3     -0.05      0.00
    0   22    0      4.40      0.00
    0   22    2      3.30      0.00
    0   22    4     -1.83      0.00
    0   22    6     -1.56      0.00
    0   22    8      0.85      0.00
    0   22   10      1.76      0.00
    0   22   12      0.44      0.00
    1   22    0      1.98      0.00
    1   22    1      3.69      0.00
    1   22    2     -2.80      0.00
    1   22    3      2.50      0.00
    1   22    4      0.60      0.00
    1   22    5      0.60      0.00
    1   22    6     -0.82      0.00
    1   22    7      2.84      0.00
    1   22    8      0.35      0.00
    1   22    9     -1.99      0.00
    1   22   10      0.59      0.00
    1   22   11      2.55      0.00
    1   22   12      1.97      0.00
    2   22    0      1.90      0.00
    2   22    1      3.45      0.00
    2   22    2      4.82      0.00
    2   22    3      1.58      0.00
    2   22    4      4.78      0.00
    2   22    5     -3.48      0.00
    2   22    6      3.48      0.00
    2   22    7     -3.99      0.00
    2   22    8      0.42      0.00
    2   22    9     -4.06      0.00
    2   22   10     -1.39      0.00
    2   22   11      1.05      0.00
    2   22   12      0.43      0.00
    3   22    0      6.49      0.00
    3   22    1      0.49      0.00
    3   22    2      1.96      0.00
    3   22    3      5.46      0.00
    3   22    4     -1.85      0.00
    3   22    5      5.65      0.00
    3   22    6     -0.68      0.00
    3   22    7      0.11      0.00
    3   22    8     -2.44      0.00
    3   22    9      0.42      0.00
    3   22   10     -0.83      0.00
    3   22   11     -3.26      0.00
    3   22   12      2.59      0.00
    4   22    0     -4.59      0.00
    4   22    1      6.41      0.00
    4   22    2     -2.04      0.00
    4   22    3      2.10      0.00
    4   22    4     -2.19      0.00
    4   22    5     -0.43      0.00
    4   22    6     -1.95      0.00
    4   22    7     -0.08      0.00
    4   22    8     -1.24      0.00
    4   22    9     -2.70      0.00
    4   22   10     -1.04      0.00
    4   22   11     -5.74      0.00
    4   22   12     -1.14      0.00
    5   22    0      7.20      0.00
    5   22    1      1.25      0.00
    5   22    2      3.29      0.00
    5   22    3     -3.88      0.00
    5   22    4      1.10      0.00
    5   22    5      0.04      0.00
    5   22    6      5.02      0.00
    5   22    7      1.92      0.00
    5   22    8      3.66      0.00
    5   22    9      4.61      0.00
    5   22   10     -0.38      0.00
    5   22   11      2.92      0.00
    5   22   12     -0.70      0.00
    6   22    0      6.15      0.00
    6   22    1      0.42      0.00
    6   22    2     -2.55      0.00
    6   22    3     -0.48      0.00
    6   22    4     -6.29      0.00
    6   22    5      0.78      0.00
    6   22    6     -1.44      0.00
    6   22    7     -0.37      0.00
    6   22    8      0.66      0.00
    6   22    9     -0.04      0.00
    6   22   10     -2.29      0.00
    6   22   11     -0.08      0.00
    7   22    0     -6.20      0.00
    7   22    1     -4.21      0.00
    7   22    2      2.31      0.00
    7   22    3     -3.65      0.00
    7   22    4      1.48      0.00
    7   22    5     -2.00      0.00
    7   22    6      0.84      0.00
    7   22    7     -0.62      0.00
    7   22    8     -0.21      0.00
    7   22    9     -1.91      0.00
    7   22   10      0.52      0.00
    7   22   11     -4.13      0.00
    8   22    0      3.79      0.00
    8   22    1     -2.23      0.00
    8   22    2     -1.13      0.00
    8   22    3     -2.96      0.00
    8   22    4      3.87      0.00
    8   22    5     -0.36      0.00
    8   22    6      0.83      0.00
    8   22    7     -0.64      0.00
    8   22    8      0.24      0.00
    8   22    9     -1.07      0.00
    8   22   10      1.86      0.00
    8   22   11     -0.90      0.00
    9   22    0      1.89      0.00
    9   22    1     -1.37      0.00
    9   22    2      4.48      0.00
    9   22    3     -4.49      0.00
    9   22    4      0.56      0.00
    9   22    5      2.79      0.00
    9   22    6     -2.61      0.00
    9   22    7     -4.20      0.00
    9   22    8      2.23      0.00
    9   22    9     -0.92      0.00
    9   22   10      1.20      0.00
   10   22    0      6.85      0.00
   10   22    1      1.83      0.00
   10   22    2     -1.05      0.00
   10   22    3     -0.99      0.00
   10   22    4      0.21      0.00
   10   22    5      1.82      0.00
   10   22    6      1.53      0.00
   10   22    7      3.10      0.00
   10   22    8     -1.26      0.00
   10   22    9      1.62      0.00
   11   22    0     -0.17      0.00
   11   22    1      1.53      0.00
   11   22    2     -1.46      0.00
   11   22    3     -2.08      0.00
   11   22    4      3.80      0.00
   11   22    5     -0.52      0.00
   11   22    6      3.90      0.00
   11   22    7      6.32      0.00
   11   22    8      1.37      0.00
   12   22    0      0.11      0.00
   12   22    1     -2.62      0.00
   12   22    2      0.01      0.00
   12   22    3     -0.22      0.00
   12   22    4     -1.78      0.00
   12   22    5     -0.27      0.00
   12   22    6     -2.31      0.00
   12   22    7      1.99      0.00
   13   22    0      0.82      0.00
   13   22    1      4.91      0.00
   13   22    2     -0.09      0.00
   13   22    3     -0.31      0.00
   13   22    4     -4.24      0.00
   13   22    5     -4.07      0.00
   13   22    6     -6.53      0.00
   14   22    0     -0.02      0.00
   14   22    1      3.62      0.00
   14   22    2     -0.38      0.00
   14   22    3     -0.69      0.00
   14   22    4     -1.43      0.00
   14   22    5     -5.50      0.00
   15   22    0     -0.99      0.00
   15   22    1     -2.28      0.00
   15   22    2     -0.08      0.00
    0   23    1      1.79      0.00
    0   23    3     -2.02      0.00
    0   23    5      3.10      0.00
    0   23    7     -0.61      0.00
    0   23    9      5.61      0.00
    0   23   11      1.24      0.00
    1   23    0      5.76      0.00
    1   23    1     -5.93      0.00
    1   23    2      1.31      0.00
    1   23    3     -2.98      0.00
    1   23    4      1.54      0.00
    1   23    5     -1.31      0.00
    1   23    6      1.42      0.00
    1   23    7      0.99      0.00
    1   23    8     -0.71      0.00
    1   23    9      0.52      0.00
    1   23   10      1.03      0.00
    1   23   11     -3.94      0.00
    1   23   12      3.47      0.00
    2   23    0     -4.52      0.00
    2   23    1      2.72      0.00
    2   23    2      1.69      0.00
    2   23    3     -3.61      0.00
    2   23    4      1.75      0.00
    2   23    5     -3.23      0.00
    2   23    6      3.10      0.00
    2   23    7     -3.96      0.00
    2   23    8      3.05      0.00
    2   23    9     -2.99      0.00
    2   23   10      0.15      0.00
    2   23   11      0.71      0.00
    2   23   12     -4.30      0.00
    3   23    0      4.54      0.00
    3   23    1     -5.07      0.00
    3   23    2     -1.68      0.00
    3   23    3     -3.64      0.00
    3   23    4     -1.77      0.00
    3   23    5     -2.25      0.00
    3   23    6     -0.88      0.00
    3   23    7      1.37      0.00
    3   23    8     -1.47      0.00
    3   23    9      2.41      0.00
    3   23   10      1.68      0.00
    3   23   11      2.46      0.00
    3   23   12     -0.82      0.00
    4   23    0     -5.74      0.00
    4   23    1      0.02      0.00
    4   23    2     -1.18      0.00
    4   23    3     -1.24      0.00
    4   23    4     -2.43      0.00
    4   23    5     -0.64      0.00
    4   23    6     -3.25      0.00
    4   23    7      2.36      0.00
    4   23    8      1.26      0.00
    4   23    9     -1.65      0.00
    4   23   10      3.66      0.00
    4   23   11      1.42      0.00
    4   23   12      2.67      0.00
    5   23    0     -3.01      0.00
    5   23    1     -1.61      0.00
    5   23    2     -2.08      0.00
    5   23    3      0.01      0.00
    5   23    4      3.14      0.00
    5   23    5     -1.15      0.00
    5   23    6      3.92      0.00
    5   23    7      0.18      0.00
    5   23    8     -0.46      0.00
    5   23    9     -0.28      0.00
    5   23   10     -0.17      0.00
    5   23   11      4.25      0.00
    6   23    0     -4.22      0.00
    6   23    1     -0.50      0.00
    6   23    2     -3.37      0.00
    6   23    3      6.07      0.00
    6   23    4     -3.49      0.00
    6   23    5      4.99      0.00
    6   23    6     -3.37      0.00
    6   23    7      0.41      0.00
    6   23    8     -2.39      0.00
    6   23    9      0.35      0.00
    6   23   10     -3.86      0.00
    6   23   11     -0.92      0.00
    7   23    0     -5.91      0.00
    7   23    1      1.07      0.00
    7   23    2      0.66      0.00
    7   23    3      2.45      0.00
    7   23    4      1.20      0.00
    7   23    5      0.57      0.00
    7   23    6      2.39      0.00
    7   23    7      1.51      0.00
    7   23    8     -0.97      0.00
    7   23    9     -0.73      0.00
    7   23   10      3.16      0.00
    7   23   11     -2.21      0.00
    8   23    0     -0.68      0.00
    8   23    1     -0.13      0.00
    8   23    2     -4.39      0.00
    8   23    3     -2.33      0.00
    8   23    4     -1.55      0.00
    8   23    5     -5.34      0.00
    8   23    6      1.62      0.00
    8   23    7     -2.16      0.00
    8   23    8     -2.13      0.00
    8   23    9     -1.94      0.00
    8   23   10     -2.76      0.00
    9   23    0     -4.55      0.00
    9   23    1     -4.50      0.00
    9   23    2      0.71      0.00
    9   23    3     -1.26      0.00
    9   23    4     -3.84      0.00
    9   23    5     -3.16      0.00
    9   23    6     -2.36      0.00
    9   23    7     -1.19      0.00
    9   23    8      1.53      0.00
    9   23    9     -2.64      0.00
   10   23    0      0.18      0.00
   10   23    1     -2.01      0.00
   10   23    2      1.04      0.00
   10   23    3      2.37      0.00
   10   23    4     -2.08      0.00
   10   23    5     -2.14      0.00
   10   23    6      1.73      0.00
   10   23    7     -0.67      0.00
   10   23    8      0.17      0.00
   10   23    9      2.61      0.00
   11   23    0     -2.12      0.00
   11   23    1      0.79      0.00
   11   23    2      0.68      0.00
   11   23    3      1.11      0.00
   11   23    4     -0.10      0.00
   11   23    5     -3.07      0.00
   11   23    6     -1.30      0.00
   11   23    7     -0.25      0.00
   11   23    8     -5.35      0.00
   12   23    0      3.26      0.00
   12   23    1      0.34      0.00
   12   23    2      1.55      0.00
   12   23    3      0.64      0.00
   12   23    4     -0.97      0.00
   12   23    5      7.70      0.00
   12   23    6     -1.41      0.00
   12   23    7     -0.48      0.00
   13   23    0     -3.50      0.00
   13   23    1     -0.19      0.00
   13   23    2     -3.89      0.00
   13   23    3     -2.56      0.00
   13   23    4      0.53      0.00
   13   23    5      9.20      0.00
   14   23    0     -4.31      0.00
   14   23    1     -2.59      0.00
   14   23    2     -5.82      0.00
   14   23    3      1.04      0.00
    0   24    0     -9.77      0.00
    0   24    2     -3.07      0.00
    0   24    4     -3.96      0.00
    0   24    6     -5.01      0.00
    0   24    8     -1.85      0.00
    0   24   10     -3.27      0.00
    0   24   12     -4.23      0.00
    1   24    0      1.89      0.00
    1   24    1     -4.44      0.00
    1   24    2     -0.24      0.00
    1   24    3      2.38      0.00
    1   24    4      0.84      0.00
    1   24    5     -2.48      0.00
    1   24    6      1.89      0.00
    1   24    7      1.24      0.00
    1   24    8     -0.63      0.00
    1   24    9     -0.68      0.00
    1   24   10     -0.88      0.00
    1   24   11     -2.08      0.00
    1   24   12      4.41      0.00
    2   24    0     -6.45      0.00
    2   24    1      0.08      0.00
    2   24    2     -2.16      0.00
    2   24    3      0.99      0.00
    2   24    4     -1.98      0.00
    2   24    5      2.66      0.00
    2   24    6     -0.82      0.00
    2   24    7     -1.55      0.00
    2   24    8      4.70      0.00
    2   24    9     -0.86      0.00
    2   24   10      1.86      0.00
    2   24   11      0.89      0.00
    2   24   12     -0.66      0.00
    3   24    0     -3.63      0.00
    3   24    1     -2.61      0.00
    3   24    2     -4.86      0.00
    3   24    3     -0.02      0.00
    3   24    4      3.32      0.00
    3   24    5     -1.59      0.00
    3   24    6      2.47      0.00
    3   24    7     -0.82      0.00
    3   24    8      1.13      0.00
    3   24    9      0.63      0.00
    3   24   10      1.18      0.00
    3   24   11     -0.95      0.00
    4   24    0     -1.17      0.00
    4   24    1     -4.72      0.00
    4   24    2      4.51      0.00
    4   24    3     -2.10      0.00
    4   24    4      1.64      0.00
    4   24    5      1.40      0.00
    4   24    6     -1.99      0.00
    4   24    7     -2.04      0.00
    4   24    8     -0.69      0.00
    4   24    9     -0.01      0.00
    4   24   10     -3.20      0.00
    4   24   11     -4.59      0.00
    5   24    0      0.40      0.00
    5   24    1     -0.75      0.00
    5   24    2     -1.51      0.00
    5   24    3      0.03      0.00
    5   24    4      1.50      0.00
    5   24    5      0.74      0.00
    5   24    6      1.41      0.00
    5   24    7     -0.90      0.00
    5   24    8     -1.33      0.00
    5   24    9      3.63      0.00
    5   24   10      0.69      0.00
    5   24   11      2.31      0.00
    6   24    0      1.84      0.00
    6   24    1     -0.59      0.00
    6   24    2      1.54      0.00
    6   24    3     -1.04      0.00
    6   24    4     -0.76      0.00
    6   24    5     -0.34      0.00
    6   24    6     -4.55      0.00
    6   24    7     -3.34      0.00
    6   24    8     -0.18      0.00
    6   24    9     -1.09      0.00
    6   24   10     -0.95      0.00
    7   24    0      4.14      0.00
    7   24    1      1.82      0.00
    7   24    2      1.84      0.00
    7   24    3     -0.08      0.00
    7   24    4      0.50      0.00
    7   24    5     -0.12      0.00
    7   24    6     -1.76      0.00
    7   24    7      1.66      0.00
    7   24    8      1.47      0.00
    7   24    9     -3.93      0.00
    7   24   10      5.82      0.00
    8   24    0      7.12      0.00
    8   24    1      0.94      0.00
    8   24    2      1.89      0.00
    8   24    3     -0.49      0.00
    8   24    4      3.41      0.00
    8   24    5     -0.59      0.00
    8   24    6      2.67      0.00
    8   24    7      0.30      0.00
    8   24    8      5.13      0.00
    8   24    9      0.86      0.00
    8   24   10      0.79      0.00
    9   24    0      1.42      0.00
    9   24    1     -0.15      0.00
    9   24    2      3.88      0.00
    9   24    3      0.04      0.00
    9   24    4      6.68      0.00
    9   24    5      3.73      0.00
    9   24    6     -0.22      0.00
    9   24    7      1.02      0.00
    9   24    8      0.90      0.00
    9   24    9      1.39      0.00
   10   24    0      0.61      0.00
   10   24    1     -1.39      0.00
   10   24    2     -0.57      0.00
   10   24    3     -3.97      0.00
   10   24    4      3.88      0.00
   10   24    5      2.06      0.00
   10   24    6      2.32      0.00
   10   24    7     -5.28      0.00
   10   24    8     -2.93      0.00
   11   24    0     -1.90      0.00
   11   24    1      0.26      0.00
   11   24    2     -4.45      0.00
   11   24    3      1.19      0.00
   11   24    4     -0.02      0.00
   11   24    5     -2.78      0.00
   11   24    6     -0.09      0.00
   11   24    7      1.04      0.00
   12   24    0     -1.26      0.00
   12   24    1     -0.57      0.00
   12   24    2     -1.29      0.00
   12   24    3      3.26      0.00
   12   24    4     -1.92      0.00
   12   24    5      0.91      0.00
   12   24    6     -1.54      0.00
   13   24    0     -2.25      0.00
   13   24    1      0.40      0.00
   13   24    2      3.04      0.00
   13   24    3     -0.39      0.00
   13   24    4      0.20      0.00
   14   24    0      2.29      0.00
   14   24    1     -0.14      0.00
   14   24    2      2.68      0.00
    0   25    1     -3.27      0.00
    0   25    3     -5.11      0.00
    0   25    5      2.07      0.00
    0   25    7      0.49      0.00
    0   25    9      0.42      0.00
    0   25   11      0.29      0.00
    1   25    0      2.53      0.00
    1   25    1      1.59      0.00
    1   25    2      0.82      0.00
    1   25    3     -1.04      0.00
    1   25    4      1.89      0.00
    1   25    5     -2.03      0.00
    1   25    6      2.24      0.00
    1   25    7      0.06      0.00
    1   25    8     -1.77      0.00
    1   25    9      4.88      0.00
    1   25   10     -0.44      0.00
    1   25   11      1.99      0.00
    2   25    0      4.31      0.00
    2   25    1     -0.08      0.00
    2   25    2      3.80      0.00
    2   25    3      0.04      0.00
    2   25    4     -1.82      0.00
    2   25    5      3.06      0.00
    2   25    6     -0.84      0.00
    2   25    7     -0.62      0.00
    2   25    8      0.39      0.00
    2   25    9     -0.78      0.00
    2   25   10      1.65      0.00
    2   25   11      0.74      0.00
    3   25    0     -1.80      0.00
    3   25    1      5.23      0.00
    3   25    2     -1.49      0.00
    3   25    3      1.97      0.00
    3   25    4      3.53      0.00
    3   25    5     -2.67      0.00
    3   25    6      2.46      0.00
    3   25    7      0.09      0.00
    3   25    8     -0.56      0.00
    3   25    9     -7.06      0.00
    3   25   10      0.55      0.00
    3   25   11     -2.60      0.00
    4   25    0      4.30      0.00
    4   25    1      1.57      0.00
    4   25    2      4.44      0.00
    4   25    3      0.67      0.00
    4   25    4     -0.40      0.00
    4   25    5     -0.23      0.00
    4   25    6      0.17      0.00
    4   25    7      1.23      0.00
    4   25    8      0.47      0.00
    4   25    9     -1.02      0.00
    4   25   10     -4.40      0.00
    4   25   11     -1.15      0.00
    5   25    0      2.91      0.00
    5   25    1      5.54      0.00
    5   25    2     -3.75      0.00
    5   25    3      4.27      0.00
    5   25    4     -5.78      0.00
    5   25    5      1.57      0.00
    5   25    6     -0.28      0.00
    5   25    7      4.07      0.00
    5   25    8     -4.46      0.00
    5   25    9      1.59      0.00
    5   25   10     -3.90      0.00
    6   25    0     -3.46      0.00
    6   25    1      3.23      0.00
    6   25    2     -0.29      0.00
    6   25    3      0.34      0.00
    6   25    4     -1.48      0.00
    6   25    5     -2.11      0.00
    6   25    6      0.73      0.00
    6   25    7      0.17      0.00
    6   25    8      1.06      0.00
    6   25    9     -0.50      0.00
    6   25   10     -3.13      0.00
    7   25    0     -4.01      0.00
    7   25    1      0.41      0.00
    7   25    2     -1.86      0.00
    7   25    3      0.27      0.00
    7   25    4      0.21      0.00
    7   25    5      2.17      0.00
    7   25    6      1.84      0.00
    7   25    7      2.64      0.00
    7   25    8      1.26      0.00
    7   25    9      2.47      0.00
    7   25   10      5.30      0.00
    8   25    0      1.18      0.00
    8   25    1     -2.82      0.00
    8   25    2      0.68      0.00
    8   25    3      0.85      0.00
    8   25    4     -2.71      0.00
    8   25    5     -0.58      0.00
    8   25    6      1.34      0.00
    8   25    7     -5.55      0.00
    8   25    8      0.68      0.00
    8   25    9     -0.80      0.00
    9   25    0      0.56      0.00
    9   25    1      0.31      0.00
    9   25    2      3.56      0.00
    9   25    3     -1.07      0.00
    9   25    4      0.25      0.00
    9   25    5     -2.65      0.00
    9   25    6     -0.17      0.00
    9   25    7      1.68      0.00
    9   25    8     -1.02      0.00
   10   25    0      3.87      0.00
   10   25    1     -0.63      0.00
   10   25    2      4.38      0.00
   10   25    3     -4.03      0.00
   10   25    4     -0.34      0.00
   10   25    5     -0.59      0.00
   10   25    6      3.55      0.00
   10   25    7      3.04      0.00
   11   25    0      0.53      0.00
   11   25    1      1.19      0.00
   11   25    2     -0.44      0.00
   11   25    3      2.55      0.00
   11   25    4     -1.97      0.00
   11   25    5     -2.55      0.00
   11   25    6     -0.94      0.00
   12   25    0      1.01      0.00
   12   25    1      4.65      0.00
   12   25    2     -0.48      0.00
   12   25    3      4.51      0.00
   12   25    4     -3.13      0.00
   12   25    5      3.14      0.00
   13   25    0      1.73      0.00
   13   25    1      2.68      0.00
   13   25    2      0.82      0.00
   13   25    3     -0.95      0.00
    0   26    0      3.16      0.00
    0   26    2     -1.11      0.00
    0   26    4      1.39      0.00
    0   26    6      0.73      0.00
    0   26    8      3.51      0.00
    0   26   10      4.12      0.00
    1   26    0      0.45      0.00
    1   26    1      4.10      0.00
    1   26    2      1.04      0.00
    1   26    3      3.36      0.00
    1   26    4      2.08      0.00
    1   26    5      1.36      0.00
    1   26    6      1.91      0.00
    1   26    7      0.43      0.00
    1   26    8     -1.38      0.00
    1   26    9      0.17      0.00
    1   26   10     -3.48      0.00
    1   26   11     -1.13      0.00
    2   26    0      2.98      0.00
    2   26    1     -2.46      0.00
    2   26    2      1.28      0.00
    2   26    3     -0.72      0.00
    2   26    4     -2.57      0.00
    2   26    5     -0.98      0.00
    2   26    6     -0.49      0.00
    2   26    7     -2.93      0.00
    2   26    8     -0.58      0.00
    2   26    9     -2.27      0.00
    2   26   10     -1.43      0.00
    2   26   11     -2.87      0.00
    3   26    0      1.35      0.00
    3   26    1      2.63      0.00
    3   26    2      0.17      0.00
    3   26    3     -3.24      0.00
    3   26    4      1.50      0.00
    3   26    5     -3.34      0.00
    3   26    6     -1.35      0.00
    3   26    7     -0.24      0.00
    3   26    8      1.50      0.00
    3   26    9      0.78      0.00
    3   26   10      5.22      0.00
    4   26    0      3.97      0.00
    4   26    1      0.99      0.00
    4   26    2      2.79      0.00
    4   26    3     -3.63      0.00
    4   26    4      1.19      0.00
    4   26    5     -0.56      0.00
    4   26    6     -0.91      0.00
    4   26    7     -2.18      0.00
    4   26    8      2.27      0.00
    4   26    9      4.68      0.00
    4   26   10      3.04      0.00
    5   26    0      1.84      0.00
    5   26    1     -4.05      0.00
    5   26    2     -0.41      0.00
    5   26    3     -0.25      0.00
    5   26    4     -0.13      0.00
    5   26    5      2.58      0.00
    5   26    6      0.01      0.00
    5   26    7     -0.30      0.00
    5   26    8     -1.51      0.00
    5   26    9      4.29      0.00
    5   26   10      5.33      0.00
    6   26    0     -2.75      0.00
    6   26    1     -1.00      0.00
    6   26    2      2.33      0.00
    6   26    3      1.72      0.00
    6   26    4      2.09      0.00
    6   26    5      0.42      0.00
    6   26    6     -1.31      0.00
    6   26    7     -0.89      0.00
    6   26    8      3.94      0.00
    6   26    9     -0.71      0.00
    7   26    0      0.38      0.00
    7   26    1      1.43      0.00
    7   26    2     -1.75      0.00
    7   26    3     -0.63      0.00
    7   26    4      1.42      0.00
    7   26    5      0.75      0.00
    7   26    6     -0.96      0.00
    7   26    7      0.26      0.00
    7   26    8     -1.69      0.00
    7   26    9     -2.63      0.00
    8   26    0      0.46      0.00
    8   26    1     -3.99      0.00
    8   26    2     -4.39      0.00
    8   26    3     -1.23      0.00
    8   26    4     -3.82      0.00
    8   26    5     -0.83      0.00
    8   26    6     -0.90      0.00
    8   26    7     -3.17      0.00
    8   26    8     -1.34      0.00
    9   26    0     -1.66      0.00
    9   26    1     -0.94      0.00
    9   26    2     -0.02      0.00
    9   26    3     -0.65      0.00
    9   26    4      4.88      0.00
    9   26    5     -2.54      0.00
    9   26    6     -0.11      0.00
    9   26    7      2.44      0.00
    9   26    8      0.36      0.00
   10   26    0      1.55      0.00
   10   26    1     -2.53      0.00
   10   26    2      2.74      0.00
   10   26    3     -2.37      0.00
   10   26    4      3.49      0.00
   10   26    5     -2.28      0.00
   10   26    6      0.44      0.00
   10   26    7     -3.79      0.00
   11   26    0     -0.47      0.00
   11   26    1     -1.53      0.00
   11   26    2     -0.57      0.00
   11   26    3     -1.03      0.00
   11   26    4      1.75      0.00
   11   26    5     -3.92      0.00
   11   26    6      1.64      0.00
   12   26    0     -5.00      0.00
   12   26    1     -0.93      0.00
   12   26    2     -3.68      0.00
   12   26    3     -0.68      0.00
   12   26    4     -3.33      0.00
   13   26    0     -0.48      0.00
   13   26    1     -1.88      0.00
    0   27    1      1.07      0.00
    0   27    3     -1.62      0.00
    0   27    5     -4.42      0.00
    0   27    7     -0.32      0.00
    0   27    9     -2.63      0.00
    1   27    0      1.99      0.00
    1   27    1      1.88      0.00
    1   27    2      3.30      0.00
    1   27    3     -0.78      0.00
    1   27    4     -1.96      0.00
    1   27    5     -1.13      0.00
    1   27    6     -2.49      0.00
    1   27    7     -1.51      0.00
    1   27    8     -0.97      0.00
    1   27    9      0.92      0.00
    1   27   10     -0.69      0.00
    2   27    0     -4.21      0.00
    2   27    1     -0.47      0.00
    2   27    2     -3.71      0.00
    2   27    3      0.52      0.00
    2   27    4     -2.90      0.00
    2   27    5      0.32      0.00
    2   27    6      1.15      0.00
    2   27    7      0.33      0.00
    2   27    8      2.56      0.00
    2   27    9      1.30      0.00
    2   27   10      4.27      0.00
    3   27    0     -4.08      0.00
    3   27    1     -1.47      0.00
    3   27    2     -2.18      0.00
    3   27    3      3.71      0.00
    3   27    4      1.56      0.00
    3   27    5      1.61      0.00
    3   27    6      1.04      0.00
    3   27    7      2.37      0.00
    3   27    8      0.43      0.00
    3   27    9     -0.26      0.00
    3   27   10     -1.99      0.00
    4   27    0     -5.58      0.00
    4   27    1     -1.03      0.00
    4   27    2     -2.34      0.00
    4   27    3      1.62      0.00
    4   27    4      0.51      0.00
    4   27    5      0.72      0.00
    4   27    6     -0.15      0.00
    4   27    7      1.64      0.00
    4   27    8      0.85      0.00
    4   27    9      0.69      0.00
    4   27   10     -8.10      0.00
    5   27    0     -1.97      0.00
    5   27    1     -3.19      0.00
    5   27    2     -1.96      0.00
    5   27    3     -1.54      0.00
    5   27    4     -0.55      0.00
    5   27    5     -1.44      0.00
    5   27    6      1.95      0.00
    5   27    7      0.96      0.00
    5   27    8     -4.08      0.00
    5   27    9     -0.12      0.00
    6   27    0     -4.05      0.00
    6   27    1      1.05      0.00
    6   27    2     -1.64      0.00
    6   27    3     -0.03      0.00
    6   27    4     -3.02      0.00
    6   27    5      0.25      0.00
    6   27    6     -2.27      0.00
    6   27    7      1.50      0.00
    6   27    8      0.27      0.00
    6   27    9     -4.33      0.00
    7   27    0     -0.68      0.00
    7   27    1      2.68      0.00
    7   27    2     -1.90      0.00
    7   27    3      0.38      0.00
    7   27    4      0.09      0.00
    7   27    5      0.83      0.00
    7   27    6      2.40      0.00
    7   27    7      1.07      0.00
    7   27    8      2.76      0.00
    8   27    0      4.59      0.00
    8   27    1      2.39      0.00
    8   27    2      4.40      0.00
    8   27    3      2.06      0.00
    8   27    4     -0.01      0.00
    8   27    5      0.45      0.00
    8   27    6      1.76      0.00
    8   27    7     -1.20      0.00
    8   27    8      1.91      0.00
    9   27    0      0.69      0.00
    9   27    1     -1.10      0.00
    9   27    2      3.71      0.00
    9   27    3     -2.54      0.00
    9   27    4     -0.55      0.00
    9   27    5     -0.13      0.00
    9   27    6     -2.68      0.00
    9   27    7      1.20      0.00
   10   27    0     -1.14      0.00
   10   27    1     -2.98      0.00
   10   27    2     -2.57      0.00
   10   27    3     -2.49      0.00
   10   27    4     -3.39      0.00
   10   27    5      1.76      0.00
   10   27    6      1.78      0.00
   11   27    0      3.94      0.00
   11   27    1      0.68      0.00
   11   27    2      0.14      0.00
   11   27    3      0.63      0.00
   11   27    4      4.83      0.00
   12   27    0     -0.27      0.00
   12   27    1      2.96      0.00
   12   27    2      1.96      0.00
    0   28    0     -3.25      0.00
    0   28    2     -3.91      0.00
    0   28    4      2.35      0.00
    0   28    6     -0.21      0.00
    0   28    8      0.11      0.00
    1   28    0     -1.96      0.00
    1   28    1     -4.68      0.00
    1   28    2     -0.41      0.00
    1   28    3     -0.26      0.00
    1   28    4      3.21      0.00
    1   28    5      1.02      0.00
    1   28    6      1.77      0.00
    1   28    7     -1.52      0.00
    1   28    8      1.11      0.00
    1   28    9      0.27      0.00
    2   28    0     -4.48      0.00
    2   28    1     -3.08      0.00
    2   28    2     -0.43      0.00
    2   28    3     -1.78      0.00
    2   28    4      1.45      0.00
    2   28    5      0.64      0.00
    2   28    6      0.90      0.00
    2   28    7     -0.17      0.00
    2   28    8     -1.01      0.00
    2   28    9     -4.98      0.00
    3   28    0      1.52      0.00
    3   28    1     -1.77      0.00
    3   28    2      2.83      0.00
    3   28    3      0.19      0.00
    3   28    4      1.46      0.00
    3   28    5     -0.72      0.00
    3   28    6      1.53      0.00
    3   28    7     -2.06      0.00
    3   28    8     -0.99      0.00
    3   28    9     -1.40      0.00
    4   28    0      1.69      0.00
    4   28    1     -1.84      0.00
    4   28    2      1.09      0.00
    4   28    3     -3.43      0.00
    4   28    4     -0.70      0.00
    4   28    5      0.69      0.00
    4   28    6     -1.48      0.00
    4   28    7     -0.70      0.00
    4   28    8     -0.49      0.00
    4   28    9     -0.98      0.00
    5   28    0      2.58      0.00
    5   28    1     -0.15      0.00
    5   28    2     -0.18      0.00
    5   28    3     -0.62      0.00
    5   28    4     -0.05      0.00
    5   28    5      0.04      0.00
    5   28    6      0.13      0.00
    5   28    7      1.07      0.00
    5   28    8     -6.00      0.00
    5   28    9     -0.62      0.00
    6   28    0      2.65      0.00
    6   28    1      3.61      0.00
    6   28    2      1.59      0.00
    6   28    3      4.97      0.00
    6   28    4     -1.23      0.00
    6   28    5      1.69      0.00
    6   28    6     -2.64      0.00
    6   28    7      0.45      0.00
    6   28    8      0.52      0.00
    7   28    0      0.52      0.00
    7   28    1      1.10      0.00
    7   28    2     -0.73      0.00
    7   28    3      2.41      0.00
    7   28    4     -0.01      0.00
    7   28    5      0.16      0.00
    7   28    6      1.53      0.00
    7   28    7     -4.05      0.00
    8   28    0     -3.04      0.00
    8   28    1     -2.51      0.00
    8   28    2     -3.11      0.00
    8   28    3     -4.12      0.00
    8   28    4      1.37      0.00
    8   28    5     -3.59      0.00
    8   28    6      3.23      0.00
    8   28    7     -3.81      0.00
    9   28    0      1.16      0.00
    9   28    1     -0.22      0.00
    9   28    2      2.95      0.00
    9   28    3     -1.52      0.00
    9   28    4      5.22      0.00
    9   28    5      2.17      0.00
    9   28    6     -0.83      0.00
   10   28    0      2.27      0.00
   10   28    1      2.48      0.00
   10   28    2      0.76      0.00
   10   28    3      4.71      0.00
   10   28    4      0.08      0.00
   10   28    5     -0.92      0.00
   11   28    0      2.89      0.00
   11   28    1     -2.80      0.00
   11   28    2      2.01      0.00
   11   28    3     -1.93      0.00
    0   29    1     -0.12      0.00
    0   29    3      1.23      0.00
    0   29    5      4.71      0.00
    0   29    7      3.75      0.00
    0   29    9     -0.38      0.00
    1   29    0     -0.66      0.00
    1   29    1      3.89      0.00
    1   29    2     -1.58      0.00
    1   29    3      1.63      0.00
    1   29    4     -1.17      0.00
    1   29    5     -2.53      0.00
    1   29    6      2.42      0.00
    1   29    7     -1.99      0.00
    1   29    8      2.09      0.00
    1   29    9     -0.26      0.00
    2   29    0      2.21      0.00
    2   29    1      2.63      0.00
    2   29    2     -1.23      0.00
    2   29    3     -2.37      0.00
    2   29    4     -1.38      0.00
    2   29    5     -1.07      0.00
    2   29    6      0.72      0.00
    2   29    7      1.83      0.00
    2   29    8      2.74      0.00
    2   29    9      0.57      0.00
    3   29    0      5.42      0.00
    3   29    1      5.83      0.00
    3   29    2     -0.39      0.00
    3   29    3      2.26      0.00
    3   29    4     -1.15      0.00
    3   29    5     -1.37      0.00
    3   29    6     -0.28      0.00
    3   29    7     -0.90      0.00
    3   29    8     -0.03      0.00
    4   29    0      3.22      0.00
    4   29    1      3.40      0.00
    4   29    2      0.88      0.00
    4   29    3     -0.61      0.00
    4   29    4     -1.05      0.00
    4   29    5     -0.30      0.00
    4   29    6     -2.38      0.00
    4   29    7     -0.41      0.00
    4   29    8      1.31      0.00
    5   29    0     -0.44      0.00
    5   29    1      2.88      0.00
    5   29    2      1.91      0.00
    5   29    3      0.34      0.00
    5   29    4      2.46      0.00
    5   29    5      1.48      0.00
    5   29    6     -2.10      0.00
    5   29    7      2.92      0.00
    5   29    8     -1.66      0.00
    6   29    0     -1.55      0.00
    6   29    1     -1.07      0.00
    6   29    2      0.12      0.00
    6   29    3      0.08      0.00
    6   29    4      0.64      0.00
    6   29    5      0.36      0.00
    6   29    6     -1.05      0.00
    6   29    7     -1.48      0.00
    7   29    0     -3.55      0.00
    7   29    1     -3.59      0.00
    7   29    2     -2.06      0.00
    7   29    3     -1.26      0.00
    7   29    4     -1.92      0.00
    7   29    5      0.09      0.00
    7   29    6     -1.59      0.00
    7   29    7     -0.96      0.00
    8   29    0      0.80      0.00
    8   29    1      2.67      0.00
    8   29    2     -0.17      0.00
    8   29    3      3.67      0.00
    8   29    4     -0.92      0.00
    8   29    5     -1.08      0.00
    8   29    6      0.54      0.00
    9   29    0     -2.74      0.00
    9   29    1     -0.48      0.00
    9   29    2      1.58      0.00
    9   29    3     -0.73      0.00
    9   29    4     -0.19      0.00
    9   29    5      0.81      0.00
   10   29    0     -2.02      0.00
   10   29    1     -2.44      0.00
   10   29    2     -3.05      0.00
   10   29    3     -0.83      0.00
    0   30    0      9.16      0.00
    0   30    2      5.47      0.00
    0   30    4     -1.68      0.00
    0   30    6     -4.18      0.00
    0   30    8     -1.42      0.00
    1   30    0      2.16      0.00
    1   30    1      2.08      0.00
    1   30    2      2.30      0.00
    1   30    3     -0.54      0.00
    1   30    4      0.37      0.00
    1   30    5     -3.20      0.00
    1   30    6     -0.54      0.00
    1   30    7     -1.53      0.00
    1   30    8      2.05      0.00
    2   30    0      0.71      0.00
    2   30    1     -0.59      0.00
    2   30    2      2.97      0.00
    2   30    3     -1.85      0.00
    2   30    4      2.50      0.00
    2   30    5     -1.49      0.00
    2   30    6      0.70      0.00
    2   30    7     -4.00      0.00
    2   30    8     -0.57      0.00
    3   30    0     -1.19      0.00
    3   30    1     -1.78      0.00
    3   30    2      1.50      0.00
    3   30    3      2.59      0.00
    3   30    4      0.29      0.00
    3   30    5      1.53      0.00
    3   30    6     -1.35      0.00
    3   30    7     -0.79      0.00
    3   30    8     -2.98      0.00
    4   30    0     -3.75      0.00
    4   30    1     -4.41      0.00
    4   30    2     -0.95      0.00
    4   30    3      1.18      0.00
    4   30    4     -1.51      0.00
    4   30    5      1.05      0.00
    4   30    6      1.66      0.00
    4   30    7      2.81      0.00
    5   30    0     -1.32      0.00
    5   30    1     -2.12      0.00
    5   30    2     -0.67      0.00
    5   30    3     -0.40      0.00
    5   30    4     -0.74      0.00
    5   30    5      0.16      0.00
    5   30    6     -0.16      0.00
    5   30    7      5.51      0.00
    6   30    0      2.54      0.00
    6   30    1      0.54      0.00
    6   30    2     -1.64      0.00
    6   30    3     -0.15      0.00
    6   30    4     -2.46      0.00
    6   30    5     -2.36      0.00
    6   30    6      3.81      0.00
    7   30    0      0.51      0.00
    7   30    1      2.77      0.00
    7   30    2      0.74      0.00
    7   30    3     -0.95      0.00
    7   30    4      1.33      0.00
    7   30    5     -0.21      0.00
    7   30    6      3.32      0.00
    8   30    0      1.44      0.00
    8   30    1      0.87      0.00
    8   30    2     -1.21      0.00
    8   30    3      0.02      0.00
    8   30    4     -1.87      0.00
    8   30    5      1.00      0.00
    9   30    0     -0.56      0.00
    9   30    1      0.57      0.00
    9   30    2      2.08      0.00
    9   30    3     -3.48      0.00
    0   31    1      0.88      0.00
    0   31    3      3.77      0.00
    0   31    5      3.76      0.00
    0   31    7     -3.26      0.00
    1   31    0     -4.71      0.00
    1   31    1     -2.42      0.00
    1   31    2     -3.26      0.00
    1   31    3      1.96      0.00
    1   31    4     -0.25      0.00
    1   31    5      1.51      0.00
    1   31    6     -0.70      0.00
    1   31    7      4.10      0.00
    2   31    0     -5.62      0.00
    2   31    1     -0.64      0.00
    2   31    2     -3.26      0.00
    2   31    3     -0.76      0.00
    2   31    4      2.89      0.00
    2   31    5     -1.97      0.00
    2   31    6      5.39      0.00
    2   31    7     -0.59      0.00
    3   31    0     -0.19      0.00
    3   31    1     -1.81      0.00
    3   31    2     -0.42      0.00
    3   31    3     -1.80      0.00
    3   31    4      0.98      0.00
    3   31    5      1.18      0.00
    3   31    6     -0.22      0.00
    3   31    7      0.06      0.00
    4   31    0     -1.40      0.00
    4   31    1     -1.46      0.00
    4   31    2     -0.70      0.00
    4   31    3     -2.45      0.00
    4   31    4     -0.89      0.00
    4   31    5      0.74      0.00
    4   31    6     -0.21      0.00
    5   31    0      0.99      0.00
    5   31    1     -0.04      0.00
    5   31    2      0.33      0.00
    5   31    3     -0.37      0.00
    5   31    4      1.57      0.00
    5   31    5      0.75      0.00
    5   31    6     -3.59      0.00
    6   31    0     -1.74      0.00
    6   31    1     -0.25      0.00
    6   31    2     -1.27      0.00
    6   31    3      0.99      0.00
    6   31    4     -0.22      0.00
    6   31    5      3.00      0.00
    7   31    0     -4.34      0.00
    7   31    1      0.51      0.00
    7   31    2     -2.49      0.00
    7   31    3      0.74      0.00
    7   31    4      1.04      0.00
    8   31    0      3.30      0.00
    8   31    1      1.70      0.00
    8   31    2      0.10      0.00
    8   31    3      4.00      0.00
    0   32    0     -0.81      0.00
    0   32    2     -0.51      0.00
    0   32    4     -1.50      0.00
    0   32    6      3.28      0.00
    1   32    0      0.42      0.00
    1   32    1     -3.24      0.00
    1   32    2     -0.83      0.00
    1   32    3     -1.65      0.00
    1   32    4     -3.12      0.00
    1   32    5      0.20      0.00
    1   32    6     -3.95      0.00
    2   32    0      1.26      0.00
    2   32    1      2.16      0.00
    2   32    2      1.83      0.00
    2   32    3     -0.59      0.00
    2   32    4      1.46      0.00
    2   32    5     -2.01      0.00
    2   32    6      1.09      0.00
    3   32    0      4.01      0.00
    3   32    1      0.37      0.00
    3   32    2      0.25      0.00
    3   32    3      0.35      0.00
    3   32    4     -0.85      0.00
    3   32    5      0.89      0.00
    3   32    6     -0.41      0.00
    4   32    0      1.30      0.00
    4   32    1      1.50      0.00
    4   32    2     -0.40      0.00
    4   32    3      0.83      0.00
    4   32    4     -2.55      0.00
    4   32    5      0.41      0.00
    5   32    0      5.20      0.00
    5   32    1      1.35      0.00
    5   32    2      1.80      0.00
    5   32    3      1.95      0.00
    5   32    4      2.06      0.00
    5   32    5     -4.20      0.00
    6   32    0     -0.44      0.00
    6   32    1      0.52      0.00
    6   32    2      4.19      0.00
    6   32    3     -2.63      0.00
    6   32    4      0.91      0.00
    7   32    0     -1.47      0.00
    7   32    1      0.75      0.00
    7   32    2     -0.47      0.00
    0   33    1      3.66      0.00
    0   33    3      0.92      0.00
    0   33    5      0.22      0.00
    1   33    0     -0.22      0.00
    1   33    1      1.19      0.00
    1   33    2     -1.40      0.00
    1   33    3     -0.02      0.00
    1   33    4      0.78      0.00
    1   33    5     -0.37      0.00
    2   33    0      1.81      0.00
    2   33    1      2.23      0.00
    2   33    2      2.86      0.00
    2   33    3     -0.71      0.00
    2   33    4      2.01      0.00
    2   33    5     -0.90      0.00
    3   33    0      1.06      0.00
    3   33    1      0.51      0.00
    3   33    2      0.82      0.00
    3   33    3      0.04      0.00
    3   33    4     -1.52      0.00
    4   33    0     -2.68      0.00
    4   33    1      0.04      0.00
    4   33    2      0.99      0.00
    4   33    3      1.03      0.00
    4   33    4     -2.18      0.00
    5   33    0      1.57      0.00
    5   33    1     -2.12      0.00
    5   33    2     -0.58      0.00
    5   33    3      1.88      0.00
    6   33    0     -3.67      0.00
    6   33    1     -0.50      0.00
    0   34    0      1.40      0.00
    0   34    2      1.07      0.00
    1   34    0     -2.62      0.00
    1   34    1      0.23      0.00
    1   34    2     -1.89      0.00
    1   34    3      1.40      0.00
    2   34    0     -0.37      0.00
    2   34    1     -0.09      0.00
    2   34    2      0.81      0.00
    2   34    3      1.23      0.00
    3   34    0     -2.27      0.00
    3   34    1     -3.46      0.00
    3   34    2     -1.97      0.00
    4   34    0      0.29      0.00
    4   34    1     -1.84      0.00
    6    0    0    -34.87      0.00
    1    1    0   -156.48      0.00
    2    1    0      5.90      0.00
    0    2    0    135.40      0.00
    1    2    0     20.75      0.00
    1    3    0     53.79      0.00
    1    4    0    -88.67      0.00
   19    9    0     -5.09      0.00
   19   10    0      2.33      0.00
   19   11    0     -6.28      0.00
   19   12    0     -1.36      0.00
   19   13    0     -3.70      0.00
   18   14    0     -1.97      0.00
   19   14    0      6.00      0.00
   18   15    0      0.17      0.00
   19   15    0      0.14      0.00
   18   16    0     -9.67      0.00
   19   16    0      3.06      0.00
   18   17    0     -1.51      0.00
   19   17    0      2.84      0.00
   17   18    0      7.26      0.00
   18   18    0     -1.22      0.00
   17   19    0     -1.71      0.00
   18   19    0     -3.84      0.00
    9   20    0      2.17      0.00
   17   20    0      0.58      0.00
   18   20    0      7.27      0.00
   16   21    0      1.03      0.00
   17   21    0     -5.87      0.00
   16   22    0      2.31      0.00
   17   22    0      0.78      0.00
   15   23    0      0.81      0.00
   16   23    0      2.66      0.00
   17   23    0     -1.02      0.00
   15   24    0     -1.65      0.00
   16   24    0     -1.01      0.00
   14   25    0      0.06      0.00
   15   25    0     -3.14      0.00
   16   25    0      0.79      0.00
   14   26    0      1.81      0.00
   15   26    0      1.30      0.00
   13   27    0     -0.93      0.00
   14   27    0     -5.14      0.00
   15   27    0     -0.68      0.00
   12   28    0     -2.69      0.00
   13   28    0      0.87      0.00
   14   28    0      1.76      0.00
   11   29    0      4.23      0.00
   12   29    0      0.99      0.00
   13   29    0     -1.39      0.00
   10   30    0      3.57      0.00
   11   30    0     -1.24      0.00
   12   30    0     -1.36      0.00
   13   30    0     -0.76      0.00
    9   31    0     -1.51      0.00
   10   31    0      2.45      0.00
   11   31    0      0.51      0.00
   12   31    0     -0.53      0.00
    8   32    0     -3.16      0.00
    9   32    0     -2.07      0.00
   10   32    0      2.83      0.00
   11   32    0     -2.19      0.00
    7   33    0      1.97      0.00
    8   33    0      2.93      0.00
    9   33    0      1.50      0.00
   10   33    0      0.93      0.00
    5   34    0      3.87      0.00
    6   34    0     -4.10      0.00
    7   34    0     -0.78      0.00
    8   34    0     -1.04      0.00
    9   34    0     -0.34      0.00
    1    0    1     37.51      0.00
    0    1    1   -221.14      0.00
    1    1    1    -69.84      0.00
    1    2    1    -83.32      0.00
    0    3    1     54.39      0.00
   19    9    1     -2.83      0.00
   19   10    1      2.05      0.00
   19   11    1     -0.35      0.00
   19   12    1      1.93      0.00
   19   13    1     -1.36      0.00
   18   14    1      1.49      0.00
   19   14    1      0.09      0.00
   18   15    1      2.29      0.00
   19   15    1     -4.75      0.00
   18   16    1     -2.47      0.00
   19   16    1     -1.48      0.00
   18   17    1      5.84      0.00
   19   17    1      1.52      0.00
   17   18    1     -1.64      0.00
   18   18    1      2.13      0.00
   17   19    1     -2.96      0.00
   18   19    1     -2.90      0.00
   16   20    1     -0.75      0.00
   17   20    1     -2.20      0.00
   18   20    1     -0.08      0.00
   16   21    1      2.80      0.00
   17   21    1      0.35      0.00
   16   22    1     -0.19      0.00
   17   22    1     -2.85      0.00
   15   23    1      3.01      0.00
   16   23    1      3.58      0.00
   17   23    1     -1.00      0.00
   15   24    1      1.20      0.00
   16   24    1     -2.48      0.00
   14   25    1     -1.70      0.00
   15   25    1      1.53      0.00
   16   25    1     -0.30      0.00
   14   26    1      1.31      0.00
   15   26    1      2.10      0.00
   13   27    1      0.10      0.00
   14   27    1     -1.27      0.00
   15   27    1     -1.11      0.00
   12   28    1     -3.22      0.00
   13   28    1      2.99      0.00
   14   28    1      3.47      0.00
   11   29    1      0.53      0.00
   12   29    1     -0.51      0.00
   13   29    1      2.02      0.00
   10   30    1     -1.75      0.00
   11   30    1     -1.02      0.00
   12   30    1     -1.54      0.00
   13   30    1      0.08      0.00
    9   31    1     -0.76      0.00
   10   31    1     -1.85      0.00
   11   31    1      3.26      0.00
   12   31    1      0.46      0.00
    8   32    1     -1.11      0.00
    9   32    1     -1.88      0.00
   10   32    1     -0.37      0.00
   11   32    1     -1.63      0.00
    7   33    1      1.63      0.00
    8   33    1      3.82      0.00
    9   33    1     -1.29      0.00
   10   33    1      0.07      0.00
    5   34    1     -0.87      0.00
    6   34    1      0.86      0.00
    7   34    1      0.80      0.00
    8   34    1     -1.43      0.00
    9   34    1     -2.19      0.00
   19    8    2      0.05      0.00
   19    9    2     -0.41      0.00
   19   10    2      2.51      0.00
   19   11    2     -3.63      0.00
   19   12    2     -2.25      0.00
   19   13    2     -1.83      0.00
   18   14    2      1.20      0.00
   19   14    2      0.60      0.00
   18   15    2     -0.59      0.00
   19   15    2      0.94      0.00
   18   16    2     -1.28      0.00
   19   16    2      1.24      0.00
   17   17    2     -0.67      0.00
   18   17    2     -0.72      0.00
   19   17    2      2.73      0.00
   17   18    2      0.37      0.00
   18   18    2     -1.27      0.00
   17   19    2      2.35      0.00
   18   19    2     -0.24      0.00
   16   20    2      0.73      0.00
   17   20    2     -2.79      0.00
   18   20    2      1.52      0.00
   16   21    2      0.46      0.00
   17   21    2      0.79      0.00
   16   22    2     -0.08      0.00
   17   22    2     -1.07      0.00
   15   23    2      2.18      0.00
   16   23    2      1.51      0.00
   15   24    2      1.21      0.00
   16   24    2     -2.59      0.00
   14   25    2     -2.32      0.00
   15   25    2     -1.66      0.00
   16   25    2     -1.58      0.00
   13   26    2     -2.26      0.00
   14   26    2      1.37      0.00
   15   26    2      2.06      0.00
   13   27    2     -2.21      0.00
   14   27    2     -1.65      0.00
   12   28    2      3.06      0.00
   13   28    2     -1.74      0.00
   14   28    2      0.82      0.00
   11   29    2      0.52      0.00
   12   29    2      1.61      0.00
   13   29    2     -3.32      0.00
   10   30    2      1.39      0.00
   11   30    2     -0.64      0.00
   12   30    2      1.63      0.00
   13   30    2      0.47      0.00
    9   31    2     -0.10      0.00
   10   31    2     -0.08      0.00
   11   31    2      0.58      0.00
   12   31    2     -1.64      0.00
    8   32    2     -2.07      0.00
    9   32    2      1.70      0.00
   10   32    2      2.72      0.00
   11   32    2      0.74      0.00
    6   33    2      0.10      0.00
    7   33    2     -3.64      0.00
    8   33    2     -0.97      0.00
    9   33    2      0.42      0.00
   10   33    2     -1.76      0.00
    4   34    2     -0.62      0.00
    5   34    2     -0.94      0.00
    6   34    2      1.09      0.00
    7   34    2      0.77      0.00
    8   34    2      0.24      0.00
    9   34    2      1.06      0.00
   17    0    3     -1.61      0.00
   19    6    3      2.91      0.00
   19    7    3      3.40      0.00
   19    8    3      0.64      0.00
   19    9    3      0.84      0.00
   19   10    3      0.45      0.00
   19   11    3     -0.05      0.00
   19   12    3      2.29      0.00
   18   13    3     -0.06      0.00
   19   13    3     -0.26      0.00
   18   14    3     -1.79      0.00
   19   14    3     -0.87      0.00
   18   15    3     -3.07      0.00
   19   15    3     -1.26      0.00
   18   16    3     -0.19      0.00
   19   16    3      0.24      0.00
   17   17    3      0.95      0.00
   18   17    3     -1.07      0.00
   17   18    3     -0.61      0.00
   18   18    3     -1.27      0.00
   17   19    3     -2.65      0.00
   18   19    3     -2.35      0.00
   16   20    3      4.05      0.00
   17   20    3     -2.01      0.00
   16   21    3      0.62      0.00
   17   21    3     -4.07      0.00
   15   22    3     -1.53      0.00
   16   22    3      1.19      0.00
   17   22    3     -1.74      0.00
   15   23    3      1.49      0.00
   16   23    3      0.86      0.00
   14   24    3      3.81      0.00
   15   24    3      0.22      0.00
   16   24    3     -1.06      0.00
   14   25    3      0.05      0.00
   15   25    3     -2.02      0.00
   13   26    3     -2.03      0.00
   14   26    3      0.08      0.00
   15   26    3     -1.02      0.00
   12   27    3      2.84      0.00
   13   27    3      4.36      0.00
   14   27    3      0.99      0.00
   12   28    3     -5.61      0.00
   13   28    3      1.85      0.00
   14   28    3      1.43      0.00
   11   29    3      0.37      0.00
   12   29    3     -1.44      0.00
   13   29    3      2.36      0.00
   10   30    3     -1.86      0.00
   11   30    3      1.25      0.00
   12   30    3     -0.21      0.00
    9   31    3      0.27      0.00
   10   31    3     -1.82      0.00
   11   31    3      1.30      0.00
   12   31    3     -0.85      0.00
    7   32    3      1.22      0.00
    8   32    3      1.02      0.00
    9   32    3      0.10      0.00
   10   32    3     -0.67      0.00
   11   32    3     -0.15      0.00
    6   33    3     -4.00      0.00
    7   33    3      1.30      0.00
    8   33    3      0.70      0.00
    9   33    3     -1.91      0.00
   10   33    3     -2.14      0.00
    3   34    3     -1.09      0.00
    4   34    3     -1.05      0.00
    5   34    3     -0.59      0.00
    6   34    3     -2.33      0.00
    7   34    3      2.67      0.00
    8   34    3      1.03      0.00
    9   34    3      0.66      0.00
   19    1    4     -0.30      0.00
   19    2    4     -2.09      0.00
   19    3    4     -2.79      0.00
   19    4    4      0.63      0.00
   19    5    4     -3.19      0.00
   19    6    4     -0.04      0.00
   19    7    4     -3.01      0.00
   19    8    4      0.57      0.00
   19    9    4     -2.06      0.00
   19   10    4      1.36      0.00
   18   11    4     -0.80      0.00
   19   11    4     -2.07      0.00
   18   12    4      4.43      0.00
   19   12    4     -0.01      0.00
   18   13    4      1.27      0.00
   19   13    4     -1.77      0.00
   18   14    4      1.69      0.00
   19   14    4      0.07      0.00
   18   15    4      1.04      0.00
   19   15    4      0.93      0.00
   17   16    4     -0.31      0.00
   18   16    4      2.17      0.00
   17   17    4     -0.84      0.00
   18   17    4      1.13      0.00
   17   18    4      0.61      0.00
   18   18    4     -0.72      0.00
   16   19    4     -3.65      0.00
   17   19    4      1.31      0.00
   18   19    4      2.23      0.00
   16   20    4      2.88      0.00
   17   20    4      3.45      0.00
   15   21    4     -2.77      0.00
   16   21    4     -3.45      0.00
   17   21    4      0.03      0.00
   15   22    4     -0.25      0.00
   16   22    4      0.90      0.00
   14   23    4     -0.50      0.00
   15   23    4     -0.29      0.00
   16   23    4      0.92      0.00
   14   24    4      1.60      0.00
   15   24    4      2.33      0.00
   16   24    4     -1.02      0.00
   13   25    4     -0.78      0.00
   14   25    4     -0.94      0.00
   15   25    4      0.03      0.00
   13   26    4     -2.15      0.00
   14   26    4      1.19      0.00
   15   26    4      0.61      0.00
   12   27    4      0.69      0.00
   13   27    4     -1.94      0.00
   14   27    4      1.40      0.00
   11   28    4      0.25      0.00
   12   28    4     -2.64      0.00
   13   28    4     -2.48      0.00
   10   29    4     -2.63      0.00
   11   29    4      2.68      0.00
   12   29    4      2.10      0.00
   13   29    4      0.30      0.00
    9   30    4      1.81      0.00
   10   30    4      1.41      0.00
   11   30    4     -0.97      0.00
   12   30    4     -1.29      0.00
    8   31    4     -1.85      0.00
    9   31    4      0.59      0.00
   10   31    4      1.70      0.00
   11   31    4      0.59      0.00
    7   32    4      0.14      0.00
    8   32    4     -0.86      0.00
    9   32    4      0.30      0.00
   10   32    4      0.98      0.00
    5   33    4      2.47      0.00
    6   33    4      0.34      0.00
    7   33    4     -4.46      0.00
    8   33    4     -1.02      0.00
    9   33    4     -0.39      0.00
    0   34    4     -2.81      0.00
    1   34    4      0.64      0.00
    2   34    4      1.07      0.00
    3   34    4      0.66      0.00
    4   34    4     -0.69      0.00
    5   34    4      1.02      0.00
    6   34    4      1.37      0.00
    7   34    4      0.27      0.00
    8   34    4      1.59      0.00
   19    0    5      1.91      0.00
   19    1    5     -0.71      0.00
   19    2    5      0.66      0.00
   19    3    5     -1.43      0.00
   19    4    5      0.07      0.00
   19    5    5     -1.49      0.00
   19    6    5      0.76      0.00
   19    7    5      3.97      0.00
   19    8    5      1.99      0.00
   18    9    5      0.45      0.00
   19    9    5      2.23      0.00
   18   10    5     -0.91      0.00
   19   10    5      0.35      0.00
   18   11    5      0.90      0.00
   19   11    5      0.68      0.00
   18   12    5     -0.18      0.00
   19   12    5      1.53      0.00
   18   13    5      0.04      0.00
   19   13    5     -0.48      0.00
   17   14    5      1.53      0.00
   18   14    5     -0.56      0.00
   19   14    5     -1.50      0.00
   17   15    5     -0.49      0.00
   18   15    5     -1.55      0.00
   17   16    5      3.49      0.00
   18   16    5      1.52      0.00
   17   17    5      0.98      0.00
   18   17    5      0.66      0.00
   16   18    5     -1.16      0.00
   17   18    5     -2.33      0.00
   18   18    5     -2.71      0.00
   16   19    5     -0.74      0.00
   17   19    5      0.64      0.00
   15   20    5      2.14      0.00
   16   20    5      2.05      0.00
   17   20    5     -2.23      0.00
   15   21    5     -1.35      0.00
   16   21    5     -0.61      0.00
   15   22    5      4.98      0.00
   16   22    5      1.67      0.00
   14   23    5     -2.69      0.00
   15   23    5     -1.39      0.00
   16   23    5     -0.89      0.00
   13   24    5     -0.80      0.00
   14   24    5     -2.78      0.00
   15   24    5      1.79      0.00
   13   25    5      0.92      0.00
   14   25    5     -1.93      0.00
   15   25    5     -0.96      0.00
   12   26    5      6.49      0.00
   13   26    5      3.41      0.00
   14   26    5     -0.86      0.00
   11   27    5     -0.24      0.00
   12   27    5      2.38      0.00
   13   27    5     -1.29      0.00
   14   27    5     -2.01      0.00
   11   28    5     -5.36      0.00
   12   28    5     -0.16      0.00
   13   28    5      1.32      0.00
   10   29    5     -1.17      0.00
   11   29    5      1.65      0.00
   12   29    5      1.63      0.00
    9   30    5      0.49      0.00
   10   30    5     -2.63      0.00
   11   30    5     -0.73      0.00
    7   31    5     -0.28      0.00
    8   31    5      0.91      0.00
    9   31    5      0.29      0.00
   10   31    5     -0.90      0.00
   11   31    5      0.77      0.00
    6   32    5      0.07      0.00
    7   32    5     -0.28      0.00
    8   32    5     -0.04      0.00
    9   32    5      0.87      0.00
   10   32    5     -0.61      0.00
    3   33    5     -0.41      0.00
    4   33    5      3.58      0.00
    5   33    5     -1.60      0.00
    6   33    5     -0.06      0.00
    7   33    5      0.63      0.00
    8   33    5     -0.58      0.00
    9   33    5      0.35      0.00
    1   34    5     -1.04      0.00
    2   34    5      0.67      0.00
    3   34    5     -0.08      0.00
    4   34    5      1.22      0.00
    5   34    5     -2.47      0.00
    6   34    5      0.27      0.00
    7   34    5      2.75      0.00
   19    1    6     -0.08      0.00
   19    2    6     -1.20      0.00
   19    3    6     -0.87      0.00
   19    4    6      3.10      0.00
   19    5    6     -0.06      0.00
   18    6    6     -2.09      0.00
   19    6    6      0.52      0.00
   18    7    6     -1.08      0.00
   19    7    6     -0.52      0.00
   18    8    6     -1.12      0.00
   19    8    6     -0.78      0.00
   18    9    6     -1.08      0.00
   19    9    6     -1.20      0.00
   18   10    6     -2.00      0.00
   19   10    6      0.70      0.00
   18   11    6      2.34      0.00
   19   11    6      0.60      0.00
   17   12    6     -1.43      0.00
   18   12    6     -2.74      0.00
   19   12    6     -1.50      0.00
   17   13    6      0.20      0.00
   18   13    6      2.44      0.00
   17   14    6     -0.27      0.00
   18   14    6      1.29      0.00
   17   15    6     -3.95      0.00
   18   15    6     -0.91      0.00
   16   16    6      0.92      0.00
   17   16    6      2.00      0.00
   18   16    6      1.85      0.00
   16   17    6      4.10      0.00
   17   17    6     -0.62      0.00
   16   18    6      0.24      0.00
   17   18    6      0.27      0.00
   15   19    6     -2.13      0.00
   16   19    6      0.69      0.00
   17   19    6      2.62      0.00
   15   20    6      2.17      0.00
   16   20    6     -0.21      0.00
   14   21    6      0.16      0.00
   15   21    6     -3.71      0.00
   16   21    6     -1.77      0.00
   14   22    6      2.93      0.00
   15   22    6      2.20      0.00
   16   22    6      1.69      0.00
   13   23    6      1.76      0.00
   14   23    6      5.39      0.00
   15   23    6     -5.11      0.00
   13   24    6     -3.86      0.00
   14   24    6      2.10      0.00
   15   24    6      1.30      0.00
   12   25    6     -5.18      0.00
   13   25    6     -3.10      0.00
   14   25    6      0.69      0.00
   12   26    6      1.96      0.00
   13   26    6      1.76      0.00
   14   26    6      2.02      0.00
   11   27    6      3.06      0.00
   12   27    6     -3.68      0.00
   13   27    6     -5.21      0.00
   10   28    6      0.05      0.00
   11   28    6     -0.68      0.00
   12   28    6      1.18      0.00
    9   29    6     -2.04      0.00
   10   29    6      1.26      0.00
   11   29    6      1.99      0.00
   12   29    6     -0.55      0.00
    8   30    6     -0.16      0.00
    9   30    6     -0.10      0.00
   10   30    6     -0.43      0.00
   11   30    6     -0.26      0.00
    6   31    6     -1.34      0.00
    7   31    6     -0.30      0.00
    8   31    6     -2.87      0.00
    9   31    6      1.75      0.00
   10   31    6      1.37      0.00
    4   32    6     -1.17      0.00
    5   32    6      0.08      0.00
    6   32    6      1.04      0.00
    7   32    6      1.76      0.00
    8   32    6     -2.27      0.00
    9   32    6     -0.53      0.00
    1   33    6     -0.33      0.00
    2   33    6      1.08      0.00
    3   33    6     -1.77      0.00
    4   33    6     -1.29      0.00
    5   33    6      3.38      0.00
    6   33    6      0.72      0.00
    7   33    6     -1.59      0.00
    8   33    6      0.36      0.00
    0   34    6     -0.64      0.00
    1   34    6      0.50      0.00
    2   34    6     -0.35      0.00
    3   34    6      1.37      0.00
    4   34    6     -0.30      0.00
    5   34    6     -0.77      0.00
    6   34    6     -0.22      0.00
   19    0    7     -0.28      0.00
   18    1    7      1.47      0.00
   19    1    7      1.41      0.00
   18    2    7     -1.77      0.00
   19    2    7      1.87      0.00
   18    3    7     -2.42      0.00
   19    3    7     -0.20      0.00
   18    4    7      0.43      0.00
   19    4    7      1.12      0.00
   18    5    7      1.12      0.00
   19    5    7     -3.10      0.00
   18    6    7      0.27      0.00
   19    6    7      1.66      0.00
   18    7    7      2.14      0.00
   19    7    7     -0.81      0.00
   18    8    7      0.91      0.00
   19    8    7      2.33      0.00
   18    9    7     -3.36      0.00
   19    9    7     -1.95      0.00
   17   10    7      0.31      0.00
   18   10    7      1.71      0.00
   19   10    7      1.17      0.00
   17   11    7      1.72      0.00
   18   11    7      0.97      0.00
   17   12    7      0.17      0.00
   18   12    7     -1.73      0.00
   17   13    7     -0.80      0.00
   18   13    7     -0.34      0.00
   16   14    7      2.68      0.00
   17   14    7      1.59      0.00
   18   14    7     -1.35      0.00
   16   15    7      1.43      0.00
   17   15    7     -2.72      0.00
   16   16    7     -0.89      0.00
   17   16    7     -0.06      0.00
   16   17    7      0.21      0.00
   17   17    7     -1.75      0.00
   15   18    7      2.52      0.00
   16   18    7     -1.91      0.00
   17   18    7     -1.07      0.00
   14   19    7     -1.71      0.00
   15   19    7      2.87      0.00
   16   19    7     -0.59      0.00
   14   20    7     -0.98      0.00
   15   20    7     -0.52      0.00
   16   20    7      0.29      0.00
   14   21    7      1.81      0.00
   15   21    7     -1.07      0.00
   13   22    7     -4.29      0.00
   14   22    7     -2.53      0.00
   15   22    7      2.86      0.00
   13   23    7      4.86      0.00
   14   23    7      0.19      0.00
   15   23    7     -2.31      0.00
   12   24    7      1.81      0.00
   13   24    7     -0.27      0.00
   14   24    7     -0.88      0.00
   11   25    7      2.38      0.00
   12   25    7     -0.99      0.00
   13   25    7     -1.35      0.00
   14   25    7      0.40      0.00
   11   26    7     -3.20      0.00
   12   26    7      4.25      0.00
   13   26    7      3.61      0.00
   10   27    7     -2.33      0.00
   11   27    7     -0.24      0.00
   12   27    7     -0.91      0.00
    9   28    7      5.55      0.00
   10   28    7      0.95      0.00
   11   28    7     -0.45      0.00
   12   28    7     -0.20      0.00
    8   29    7      0.61      0.00
    9   29    7      0.50      0.00
   10   29    7     -2.44      0.00
   11   29    7     -0.20      0.00
    6   30    7     -1.68      0.00
    7   30    7      0.62      0.00
    8   30    7      1.75      0.00
    9   30    7     -1.35      0.00
   10   30    7     -0.53      0.00
    4   31    7      0.60      0.00
    5   31    7     -0.03      0.00
    6   31    7     -4.39      0.00
    7   31    7     -2.03      0.00
    8   31    7      1.64      0.00
    9   31    7     -0.47      0.00
    1   32    7      3.96      0.00
    2   32    7     -3.91      0.00
    3   32    7     -0.81      0.00
    4   32    7      1.95      0.00
    5   32    7     -0.58      0.00
    6   32    7     -0.96      0.00
    7   32    7      1.08      0.00
    8   32    7      1.65      0.00
    0   33    7     -5.78      0.00
    1   33    7      2.25      0.00
    2   33    7      0.20      0.00
    3   33    7     -1.07      0.00
    4   33    7      1.84      0.00
    5   33    7      1.90      0.00
    6   33    7      0.94      0.00
    7   33    7      0.51      0.00
    1   34    7      0.57      0.00
    2   34    7     -0.41      0.00
    3   34    7      0.87      0.00
    4   34    7     -1.46      0.00
    5   34    7     -2.52      0.00
   18    0    8     -4.89      0.00
   18    1    8      0.89      0.00
   19    1    8      1.73      0.00
   18    2    8     -1.25      0.00
   19    2    8     -1.29      0.00
   18    3    8     -0.58      0.00
   19    3    8     -1.36      0.00
   18    4    8      0.46      0.00
   19    4    8      3.75      0.00
   17    5    8      3.24      0.00
   18    5    8     -0.67      0.00
   19    5    8     -1.00      0.00
   17    6    8     -1.35      0.00
   18    6    8     -1.93      0.00
   19    6    8      1.80      0.00
   17    7    8      2.58      0.00
   18    7    8      0.14      0.00
   17    8    8      2.47      0.00
   18    8    8      1.46      0.00
   17    9    8     -2.41      0.00
   18    9    8     -1.85      0.00
   17   10    8     -1.66      0.00
   18   10    8      0.68      0.00
   17   11    8      0.28      0.00
   18   11    8     -0.35      0.00
   16   12    8      2.42      0.00
   17   12    8     -1.13      0.00
   18   12    8     -2.54      0.00
   16   13    8      0.61      0.00
   17   13    8     -0.24      0.00
   16   14    8     -1.32      0.00
   17   14    8      1.63      0.00
   15   15    8      3.26      0.00
   16   15    8     -2.94      0.00
   17   15    8     -0.43      0.00
   15   16    8      0.23      0.00
   16   16    8      0.08      0.00
   17   16    8      2.15      0.00
   15   17    8     -1.74      0.00
   16   17    8      0.48      0.00
   14   18    8      0.57      0.00
   15   18    8     -2.33      0.00
   16   18    8      2.79      0.00
   14   19    8      0.58      0.00
   15   19    8     -1.62      0.00
   16   19    8      1.19      0.00
   14   20    8     -2.74      0.00
   15   20    8     -0.39      0.00
   13   21    8      1.26      0.00
   14   21    8     -0.07      0.00
   15   21    8      3.53      0.00
   12   22    8      3.33      0.00
   13   22    8     -3.33      0.00
   14   22    8     -3.07      0.00
   12   23    8     -0.33      0.00
   13   23    8      1.39      0.00
   14   23    8      2.92      0.00
   11   24    8     -2.56      0.00
   12   24    8      2.64      0.00
   13   24    8     -1.91      0.00
   10   25    8      3.35      0.00
   11   25    8      2.51      0.00
   12   25    8     -1.43      0.00
   13   25    8     -0.93      0.00
   10   26    8     -0.55      0.00
   11   26    8     -0.55      0.00
   12   26    8     -1.31      0.00
    9   27    8     -2.78      0.00
   10   27    8     -2.14      0.00
   11   27    8      1.34      0.00
    7   28    8      2.05      0.00
    8   28    8     -1.06      0.00
    9   28    8      2.03      0.00
   10   28    8      4.05      0.00
   11   28    8      0.64      0.00
    6   29    8      3.81      0.00
    7   29    8      3.25      0.00
    8   29    8     -1.80      0.00
    9   29    8     -3.14      0.00
   10   29    8     -1.61      0.00
    4   30    8      0.76      0.00
    5   30    8     -1.47      0.00
    6   30    8      0.73      0.00
    7   30    8      0.58      0.00
    8   30    8     -0.14      0.00
    9   30    8      1.17      0.00
    1   31    8     -0.63      0.00
    2   31    8      3.06      0.00
    3   31    8      0.68      0.00
    4   31    8     -2.66      0.00
    5   31    8     -2.37      0.00
    6   31    8      0.28      0.00
    7   31    8     -0.62      0.00
    8   31    8     -1.01      0.00
    0   32    8      3.85      0.00
    1   32    8     -1.14      0.00
    2   32    8     -0.15      0.00
    3   32    8      1.84      0.00
    4   32    8     -2.27      0.00
    5   32    8      0.70      0.00
    6   32    8      2.07      0.00
    7   32    8      0.51      0.00
    1   33    8     -1.22      0.00
    2   33    8     -0.18      0.00
    3   33    8      0.00      0.00
    4   33    8     -0.80      0.00
    5   33    8      2.09      0.00
    0   34    8      1.54      0.00
    1   34    8     -0.41      0.00
    2   34    8     -0.02      0.00
   17    0    9      0.88      0.00
   17    1    9      0.47      0.00
   18    1    9      2.37      0.00
   17    2    9      2.18      0.00
   18    2    9     -1.00      0.00
   17    3    9     -0.05      0.00
   18    3    9     -1.76      0.00
   17    4    9      4.29      0.00
   18    4    9      0.67      0.00
   17    5    9      2.08      0.00
   18    5    9      0.27      0.00
   17    6    9     -2.08      0.00
   18    6    9     -1.24      0.00
   17    7    9     -0.81      0.00
   18    7    9      1.23      0.00
   16    8    9      1.50      0.00
   17    8    9      2.69      0.00
   18    8    9     -1.23      0.00
   16    9    9     -0.52      0.00
   17    9    9     -0.57      0.00
   18    9    9     -2.78      0.00
   16   10    9     -2.01      0.00
   17   10    9      2.25      0.00
   16   11    9     -2.45      0.00
   17   11    9      2.04      0.00
   16   12    9     -2.01      0.00
   17   12    9      0.18      0.00
   15   13    9     -1.73      0.00
   16   13    9     -1.35      0.00
   17   13    9      0.73      0.00
   15   14    9     -3.86      0.00
   16   14    9      1.08      0.00
   15   15    9     -0.32      0.00
   16   15    9      1.81      0.00
   14   16    9      0.18      0.00
   15   16    9     -4.77      0.00
   16   16    9      0.50      0.00
   14   17    9      1.56      0.00
   15   17    9      0.31      0.00
   16   17    9      1.97      0.00
   14   18    9     -0.88      0.00
   15   18    9     -0.43      0.00
   13   19    9      0.43      0.00
   14   19    9      1.00      0.00
   15   19    9      1.33      0.00
   13   20    9     -1.76      0.00
   14   20    9     -1.35      0.00
   12   21    9      3.08      0.00
   13   21    9     -0.97      0.00
   14   21    9      0.73      0.00
   11   22    9     -0.26      0.00
   12   22    9     -0.33      0.00
   13   22    9     -2.09      0.00
   14   22    9     -0.65      0.00
   11   23    9      0.34      0.00
   12   23    9     -1.24      0.00
   13   23    9      1.66      0.00
   10   24    9     -0.17      0.00
   11   24    9     -0.43      0.00
   12   24    9      1.50      0.00
    9   25    9      0.43      0.00
   10   25    9      3.61      0.00
   11   25    9      0.68      0.00
   12   25    9     -0.03      0.00
    8   26    9     -4.67      0.00
    9   26    9     -0.52      0.00
   10   26    9     -0.04      0.00
   11   26    9     -2.51      0.00
    7   27    9     -0.90      0.00
    8   27    9      3.77      0.00
    9   27    9      0.18      0.00
   10   27    9     -2.26      0.00
    6   28    9      0.18      0.00
    7   28    9     -1.92      0.00
    8   28    9      1.89      0.00
    9   28    9      1.99      0.00
   10   28    9      0.33      0.00
    3   29    9      4.89      0.00
    4   29    9      2.69      0.00
    5   29    9      3.98      0.00
    6   29    9      2.72      0.00
    7   29    9     -4.23      0.00
    8   29    9     -0.72      0.00
    9   29    9     -0.37      0.00
    1   30    9     -1.01      0.00
    2   30    9     -5.91      0.00
    3   30    9      1.01      0.00
    4   30    9      0.40      0.00
    5   30    9     -1.77      0.00
    6   30    9     -1.30      0.00
    7   30    9     -1.71      0.00
    8   30    9      1.47      0.00
    0   31    9      1.35      0.00
    1   31    9     -0.13      0.00
    2   31    9     -0.86      0.00
    3   31    9      2.44      0.00
    4   31    9      0.56      0.00
    5   31    9     -2.42      0.00
    6   31    9      0.10      0.00
    1   32    9     -1.19      0.00
    2   32    9     -1.47      0.00
    3   32    9      1.42      0.00
    4   32    9      2.65      0.00
    5   32    9      0.01      0.00
    0   33    9      0.81      0.00
    1   33    9      0.31      0.00
    2   33    9      0.19      0.00
   16    0   10     -2.76      0.00
   18    0   10      1.12      0.00
   16    1   10     -0.70      0.00
   17    1   10     -0.86      0.00
   16    2   10      2.51      0.00
   17    2   10     -0.41      0.00
   16    3   10     -3.00      0.00
   17    3   10     -1.48      0.00
   16    4   10      4.30      0.00
   17    4   10      0.49      0.00
   16    5   10     -1.37      0.00
   17    5   10     -1.56      0.00
   16    6   10      0.27      0.00
   17    6   10     -0.18      0.00
   16    7   10      1.46      0.00
   17    7   10      0.48      0.00
   16    8   10      1.21      0.00
   17    8   10     -0.39      0.00
   15    9   10      0.44      0.00
   16    9   10      0.83      0.00
   17    9   10     -0.54      0.00
   15   10   10      2.42      0.00
   16   10   10     -0.49      0.00
   17   10   10     -0.80      0.00
   15   11   10      1.01      0.00
   16   11   10     -0.38      0.00
   15   12   10      1.67      0.00
   16   12   10      0.02      0.00
   14   13   10      3.67      0.00
   15   13   10      3.58      0.00
   16   13   10     -1.19      0.00
   14   14   10     -2.39      0.00
   15   14   10      0.98      0.00
   16   14   10      0.27      0.00
   14   15   10      0.55      0.00
   15   15   10      2.16      0.00
   13   16   10      5.83      0.00
   14   16   10      0.06      0.00
   15   16   10     -1.42      0.00
   13   17   10      0.27      0.00
   14   17   10     -1.58      0.00
   15   17   10     -0.76      0.00
   13   18   10      2.35      0.00
   14   18   10      1.21      0.00
   12   19   10      1.49      0.00
   13   19   10      1.96      0.00
   14   19   10     -2.76      0.00
   11   20   10     -6.86      0.00
   12   20   10     -1.25      0.00
   13   20   10      3.66      0.00
   14   20   10     -0.18      0.00
   11   21   10      1.74      0.00
   12   21   10     -0.46      0.00
   13   21   10     -0.64      0.00
   10   22   10     -0.99      0.00
   11   22   10     -0.94      0.00
   12   22   10      0.04      0.00
   13   22   10     -0.72      0.00
    9   23   10     -0.88      0.00
   10   23   10     -2.31      0.00
   11   23   10     -1.08      0.00
   12   23   10     -0.26      0.00
    9   24   10      1.77      0.00
   10   24   10     -1.79      0.00
   11   24   10     -0.39      0.00
    8   25   10     -0.34      0.00
    9   25   10     -0.04      0.00
   10   25   10      0.97      0.00
   11   25   10      0.23      0.00
    6   26   10      3.62      0.00
    7   26   10      1.19      0.00
    8   26   10     -5.01      0.00
    9   26   10     -1.64      0.00
   10   26   10     -0.16      0.00
    5   27   10     -3.71      0.00
    6   27   10     -3.39      0.00
    7   27   10      1.73      0.00
    8   27   10      1.87      0.00
    9   27   10      2.32      0.00
    0   28   10      1.56      0.00
    1   28   10     -0.81      0.00
    2   28   10      0.90      0.00
    3   28   10     -0.16      0.00
    4   28   10     -0.87      0.00
    5   28   10      2.40      0.00
    6   28   10      1.07      0.00
    7   28   10      3.18      0.00
    8   28   10     -1.40      0.00
    1   29   10     -1.00      0.00
    2   29   10      5.19      0.00
    3   29   10     -1.45      0.00
    4   29   10     -2.55      0.00
    5   29   10      3.00      0.00
    6   29   10      0.79      0.00
    7   29   10      0.98      0.00
    0   30   10      1.86      0.00
    1   30   10     -0.03      0.00
    2   30   10      0.78      0.00
    3   30   10     -2.54      0.00
    4   30   10     -1.06      0.00
    5   30   10      0.43      0.00
    6   30   10     -2.54      0.00
    1   31   10     -0.06      0.00
    2   31   10      2.29      0.00
    3   31   10     -0.88      0.00
    4   31   10     -1.72      0.00
    0   32   10     -0.42      0.00
   15    0   11     -2.89      0.00
   17    0   11      0.76      0.00
   15    1   11      0.78      0.00
   16    1   11      1.06      0.00
   17    1   11      2.76      0.00
   15    2   11      1.67      0.00
   16    2   11     -2.30      0.00
   17    2   11     -0.36      0.00
   15    3   11     -0.27      0.00
   16    3   11     -3.63      0.00
   17    3   11      2.53      0.00
   15    4   11     -1.70      0.00
   16    4   11      1.08      0.00
   17    4   11      2.76      0.00
   15    5   11     -4.01      0.00
   16    5   11     -0.94      0.00
   15    6   11     -2.14      0.00
   16    6   11     -1.75      0.00
   15    7   11     -0.74      0.00
   16    7   11      1.38      0.00
   15    8   11     -0.59      0.00
   16    8   11     -0.27      0.00
   14    9   11     -0.78      0.00
   15    9   11     -3.17      0.00
   16    9   11      1.56      0.00
   14   10   11      0.12      0.00
   15   10   11     -1.55      0.00
   16   10   11      1.37      0.00
   14   11   11     -0.99      0.00
   15   11   11     -0.79      0.00
   16   11   11      0.01      0.00
   14   12   11     -2.23      0.00
   15   12   11      0.13      0.00
   13   13   11      3.92      0.00
   14   13   11     -0.60      0.00
   15   13   11     -1.87      0.00
   13   14   11      1.98      0.00
   14   14   11     -1.64      0.00
   15   14   11     -2.20      0.00
   13   15   11     -5.63      0.00
   14   15   11      1.30      0.00
   12   16   11      2.24      0.00
   13   16   11      2.29      0.00
   14   16   11     -0.06      0.00
   12   17   11     -0.12      0.00
   13   17   11     -1.64      0.00
   14   17   11     -2.33      0.00
   11   18   11      2.18      0.00
   12   18   11     -4.16      0.00
   13   18   11      0.08      0.00
   11   19   11      6.28      0.00
   12   19   11     -0.90      0.00
   13   19   11     -0.30      0.00
   10   20   11     -3.05      0.00
   11   20   11     -0.87      0.00
   12   20   11      0.15      0.00
   13   20   11      0.42      0.00
    9   21   11     -1.38      0.00
   10   21   11      2.41      0.00
   11   21   11      3.70      0.00
   12   21   11     -0.48      0.00
    9   22   11     -1.41      0.00
   10   22   11      1.45      0.00
   11   22   11     -0.29      0.00
    8   23   11      3.83      0.00
    9   23   11     -0.70      0.00
   10   23   11      0.91      0.00
   11   23   11     -0.20      0.00
    6   24   11     -0.75      0.00
    7   24   11     -5.29      0.00
    8   24   11      0.21      0.00
    9   24   11     -0.32      0.00
   10   24   11      1.34      0.00
    5   25   11      2.64      0.00
    6   25   11      1.48      0.00
    7   25   11     -1.03      0.00
    8   25   11      0.89      0.00
    9   25   11      1.60      0.00
    3   26   11      2.50      0.00
    4   26   11      5.53      0.00
    5   26   11      0.82      0.00
    6   26   11     -1.72      0.00
    7   26   11     -2.67      0.00
    8   26   11     -1.81      0.00
    9   26   11      0.76      0.00
    0   27   11     -1.16      0.00
    1   27   11     -1.22      0.00
    2   27   11      2.41      0.00
    3   27   11     -0.77      0.00
    4   27   11     -1.13      0.00
    5   27   11     -3.08      0.00
    6   27   11     -0.68      0.00
    7   27   11      0.61      0.00
    8   27   11      0.20      0.00
    1   28   11     -1.16      0.00
    2   28   11     -2.77      0.00
    3   28   11     -0.39      0.00
    4   28   11      3.66      0.00
    5   28   11     -0.17      0.00
    6   28   11     -0.52      0.00
    0   29   11      0.28      0.00
    1   29   11     -0.68      0.00
    2   29   11      0.52      0.00
    3   29   11      0.74      0.00
    4   29   11      1.61      0.00
    5   29   11      0.38      0.00
    1   30   11     -0.61      0.00
    2   30   11     -1.41      0.00
    3   30   11      0.23      0.00
   14    0   12      1.11      0.00
   16    0   12     -2.64      0.00
   14    1   12     -0.13      0.00
   15    1   12      3.31      0.00
   16    1   12      0.95      0.00
   14    2   12      0.98      0.00
   15    2   12      0.45      0.00
   16    2   12     -0.20      0.00
   14    3   12     -1.64      0.00
   15    3   12     -0.96      0.00
   16    3   12      0.78      0.00
   14    4   12      0.46      0.00
   15    4   12      3.09      0.00
   16    4   12      0.50      0.00
   14    5   12      0.20      0.00
   15    5   12      2.53      0.00
   16    5   12     -2.36      0.00
   14    6   12      1.65      0.00
   15    6   12      0.47      0.00
   14    7   12      3.01      0.00
   15    7   12      0.50      0.00
   13    8   12     -3.83      0.00
   14    8   12      4.76      0.00
   15    8   12      0.22      0.00
   13    9   12     -2.74      0.00
   14    9   12     -0.38      0.00
   15    9   12      0.17      0.00
   13   10   12      2.32      0.00
   14   10   12     -1.64      0.00
   15   10   12      0.95      0.00
   13   11   12      2.77      0.00
   14   11   12     -1.72      0.00
   15   11   12     -0.72      0.00
   12   12   12     -4.27      0.00
   13   12   12      0.92      0.00
   14   12   12      1.79      0.00
   12   13   12      1.23      0.00
   13   13   12     -0.72      0.00
   14   13   12      0.30      0.00
   12   14   12     -0.19      0.00
   13   14   12      0.67      0.00
   14   14   12     -0.18      0.00
   11   15   12      0.02      0.00
   12   15   12     -1.48      0.00
   13   15   12     -1.75      0.00
   11   16   12     -0.68      0.00
   12   16   12      1.41      0.00
   13   16   12      2.93      0.00
   10   17   12     -1.17      0.00
   11   17   12     -3.26      0.00
   12   17   12     -1.76      0.00
   13   17   12     -1.37      0.00
   10   18   12     -2.81      0.00
   11   18   12      0.05      0.00
   12   18   12      1.68      0.00
    9   19   12      3.67      0.00
   10   19   12      1.11      0.00
   11   19   12     -1.18      0.00
   12   19   12     -2.21      0.00
    8   20   12      1.59      0.00
    9   20   12      2.10      0.00
   10   20   12     -3.63      0.00
   11   20   12     -0.01      0.00
    7   21   12      2.74      0.00
    8   21   12      0.79      0.00
    9   21   12     -1.25      0.00
   10   21   12     -2.99      0.00
   11   21   12      0.27      0.00
    6   22   12     -0.37      0.00
    7   22   12      0.02      0.00
    8   22   12     -0.79      0.00
    9   22   12      1.79      0.00
   10   22   12      1.18      0.00
    5   23   12     -0.94      0.00
    6   23   12      1.37      0.00
    7   23   12      2.22      0.00
    8   23   12     -0.06      0.00
    9   23   12     -1.18      0.00
    3   24   12      0.41      0.00
    4   24   12      1.40      0.00
    5   24   12     -3.73      0.00
    6   24   12     -0.95      0.00
    7   24   12      1.93      0.00
    8   24   12     -0.14      0.00
    9   24   12     -0.23      0.00
    1   25   12      1.61      0.00
    2   25   12     -1.20      0.00
    3   25   12     -2.02      0.00
    4   25   12     -0.61      0.00
    5   25   12     -0.59      0.00
    6   25   12      1.79      0.00
    7   25   12      3.16      0.00
    8   25   12     -0.73      0.00
    0   26   12      2.56      0.00
    1   26   12      1.90      0.00
    2   26   12     -2.23      0.00
    3   26   12      2.67      0.00
    4   26   12      1.25      0.00
    5   26   12      0.68      0.00
    6   26   12     -1.17      0.00
    7   26   12      0.81      0.00
    1   27   12      0.47      0.00
    2   27   12      0.69      0.00
    3   27   12      0.77      0.00
    4   27   12     -5.06      0.00
    5   27   12      0.25      0.00
    0   28   12      0.89      0.00
    1   28   12      1.92      0.00
    2   28   12     -1.43      0.00
    3   28   12      0.84      0.00
    4   28   12     -1.57      0.00
   13    0   13      0.79      0.00
   15    0   13     -0.02      0.00
   13    1   13     -0.31      0.00
   14    1   13     -2.21      0.00
   15    1   13     -0.60      0.00
   13    2   13     -0.71      0.00
   14    2   13      2.55      0.00
   15    2   13      1.13      0.00
   13    3   13     -2.78      0.00
   14    3   13     -2.64      0.00
   15    3   13      0.83      0.00
   13    4   13      1.65      0.00
   14    4   13      0.53      0.00
   12    5   13      0.67      0.00
   13    5   13      2.03      0.00
   14    5   13     -1.40      0.00
   12    6   13      3.91      0.00
   13    6   13      0.66      0.00
   14    6   13     -1.75      0.00
   12    7   13      1.91      0.00
   13    7   13      2.28      0.00
   14    7   13     -1.77      0.00
   12    8   13      2.90      0.00
   13    8   13      4.11      0.00
   14    8   13     -2.84      0.00
   12    9   13     -3.49      0.00
   13    9   13      1.38      0.00
   14    9   13     -0.15      0.00
   11   10   13      2.02      0.00
   12   10   13      0.80      0.00
   13   10   13      0.63      0.00
   14   10   13      0.72      0.00
   11   11   13      2.75      0.00
   12   11   13      1.92      0.00
   13   11   13     -4.22      0.00
   11   12   13     -1.30      0.00
   12   12   13      0.88      0.00
   13   12   13     -0.12      0.00
   10   13   13      1.74      0.00
   11   13   13     -2.10      0.00
   12   13   13      1.05      0.00
   13   13   13      1.19      0.00
   10   14   13      1.28      0.00
   11   14   13      0.71      0.00
   12   14   13      0.62      0.00
    9   15   13     -1.64      0.00
   10   15   13      0.87      0.00
   11   15   13     -0.06      0.00
   12   15   13     -1.38      0.00
    9   16   13     -1.19      0.00
   10   16   13      2.72      0.00
   11   16   13      2.24      0.00
   12   16   13      0.83      0.00
    8   17   13     -0.72      0.00
    9   17   13      0.03      0.00
   10   17   13     -1.66      0.00
   11   17   13     -0.38      0.00
    8   18   13     -1.10      0.00
    9   18   13     -0.65      0.00
   10   18   13      0.09      0.00
   11   18   13      1.30      0.00
    7   19   13     -0.19      0.00
    8   19   13     -4.92      0.00
    9   19   13      0.55      0.00
   10   19   13      4.07      0.00
    6   20   13      0.35      0.00
    7   20   13      3.06      0.00
    8   20   13      1.03      0.00
    9   20   13     -1.18      0.00
   10   20   13      1.01      0.00
    4   21   13      3.63      0.00
    5   21   13     -1.32      0.00
    6   21   13     -0.95      0.00
    7   21   13      0.32      0.00
    8   21   13     -2.08      0.00
    9   21   13     -1.66      0.00
    1   22   13      2.13      0.00
    2   22   13      3.72      0.00
    3   22   13     -0.05      0.00
    4   22   13      0.83      0.00
    5   22   13     -0.24      0.00
    6   22   13     -0.72      0.00
    7   22   13      2.12      0.00
    8   22   13     -1.03      0.00
    0   23   13     -1.65      0.00
    1   23   13     -3.81      0.00
    2   23   13      0.63      0.00
    3   23   13     -0.36      0.00
    4   23   13     -0.18      0.00
    5   23   13      0.98      0.00
    6   23   13     -3.41      0.00
    7   23   13      0.39      0.00
    1   24   13      0.48      0.00
    2   24   13     -0.98      0.00
    3   24   13     -0.53      0.00
    4   24   13     -0.73      0.00
    5   24   13      2.98      0.00
    6   24   13     -1.46      0.00
    0   25   13     -3.13      0.00
    1   25   13     -0.74      0.00
    2   25   13      0.52      0.00
    3   25   13      1.63      0.00
    4   25   13     -0.58      0.00
    5   25   13     -0.70      0.00
    1   26   13      0.77      0.00
    2   26   13     -2.31      0.00
    3   26   13      0.43      0.00
    4   26   13      2.84      0.00
   12    0   14      3.79      0.00
   11    1   14     -3.53      0.00
   12    1   14     -0.11      0.00
   13    1   14      0.74      0.00
   11    2   14     -0.29      0.00
   12    2   14     -1.47      0.00
   13    2   14      1.67      0.00
   11    3   14      2.12      0.00
   12    3   14     -1.08      0.00
   13    3   14      1.96      0.00
   11    4   14     -0.33      0.00
   12    4   14     -2.99      0.00
   13    4   14     -0.21      0.00
   11    5   14     -0.32      0.00
   12    5   14     -1.23      0.00
   13    5   14     -0.10      0.00
   11    6   14      1.07      0.00
   12    6   14     -2.37      0.00
   13    6   14     -0.75      0.00
   10    7   14     -0.40      0.00
   11    7   14      2.90      0.00
   12    7   14     -2.08      0.00
   13    7   14     -0.75      0.00
   10    8   14     -1.40      0.00
   11    8   14      1.78      0.00
   12    8   14     -1.57      0.00
   13    8   14     -0.87      0.00
   10    9   14      1.18      0.00
   11    9   14     -0.96      0.00
   12    9   14     -0.21      0.00
   10   10   14     -0.39      0.00
   11   10   14     -2.10      0.00
   12   10   14      0.89      0.00
    9   11   14      3.17      0.00
   10   11   14     -0.99      0.00
   11   11   14     -1.47      0.00
   12   11   14     -1.29      0.00
    9   12   14     -0.97      0.00
   10   12   14     -1.35      0.00
   11   12   14      2.34      0.00
   12   12   14     -1.32      0.00
    8   13   14      2.27      0.00
    9   13   14     -1.71      0.00
   10   13   14     -0.79      0.00
   11   13   14      1.10      0.00
    8   14   14      5.69      0.00
    9   14   14     -2.89      0.00
   10   14   14     -0.93      0.00
   11   14   14      0.91      0.00
    7   15   14     -0.95      0.00
    8   15   14      0.25      0.00
    9   15   14     -1.21      0.00
   10   15   14     -0.92      0.00
   11   15   14     -0.68      0.00
    6   16   14     -2.21      0.00
    7   16   14      1.50      0.00
    8   16   14      2.87      0.00
    9   16   14      1.10      0.00
   10   16   14     -0.33      0.00
    5   17   14      4.07      0.00
    6   17   14      0.60      0.00
    7   17   14     -3.51      0.00
    8   17   14     -0.81      0.00
    9   17   14      0.49      0.00
   10   17   14     -0.56      0.00
    4   18   14     -4.93      0.00
    5   18   14     -1.00      0.00
    6   18   14      1.57      0.00
    7   18   14      1.31      0.00
    8   18   14      2.68      0.00
    9   18   14     -0.89      0.00
    1   19   14     -1.53      0.00
    2   19   14     -0.80      0.00
    3   19   14      2.28      0.00
    4   19   14      3.22      0.00
    5   19   14      0.68      0.00
    6   19   14     -0.07      0.00
    7   19   14     -3.24      0.00
    8   19   14     -1.14      0.00
    0   20   14      3.66      0.00
    1   20   14     -0.76      0.00
    2   20   14      1.41      0.00
    3   20   14     -3.67      0.00
    4   20   14     -2.69      0.00
    5   20   14      0.59      0.00
    6   20   14     -0.21      0.00
    7   20   14      0.95      0.00
    8   20   14      1.15      0.00
    1   21   14     -1.53      0.00
    2   21   14      0.32      0.00
    3   21   14     -0.57      0.00
    4   21   14      1.78      0.00
    5   21   14      1.51      0.00
    6   21   14     -1.11      0.00
    7   21   14      0.52      0.00
    0   22   14      0.73      0.00
    1   22   14      2.33      0.00
    2   22   14      0.42      0.00
    3   22   14     -0.66      0.00
    4   22   14      0.40      0.00
    5   22   14     -0.11      0.00
    6   22   14      1.18      0.00
    1   23   14      1.55      0.00
    2   23   14      0.91      0.00
    3   23   14     -1.43      0.00
    4   23   14      0.46      0.00
    5   23   14     -1.91      0.00
    0   24   14     -0.47      0.00
    1   24   14      2.14      0.00
    2   24   14     -0.96      0.00
    3   24   14     -3.64      0.00
    9    0   15     -3.71      0.00
   11    0   15      5.23      0.00
    9    1   15      1.21      0.00
   10    1   15      2.04      0.00
   11    1   15     -0.02      0.00
   12    1   15     -2.43      0.00
    9    2   15     -0.66      0.00
   10    2   15      0.48      0.00
   11    2   15     -0.63      0.00
   12    2   15     -0.34      0.00
    9    3   15     -1.42      0.00
   10    3   15      4.02      0.00
   11    3   15     -0.12      0.00
   12    3   15      0.06      0.00
    9    4   15     -0.40      0.00
   10    4   15      1.15      0.00
   11    4   15     -0.80      0.00
   12    4   15      0.08      0.00
    9    5   15      1.19      0.00
   10    5   15     -1.66      0.00
   11    5   15     -0.55      0.00
   12    5   15     -0.66      0.00
    8    6   15     -1.21      0.00
    9    6   15      3.57      0.00
   10    6   15     -1.36      0.00
   11    6   15      0.61      0.00
    8    7   15      0.57      0.00
    9    7   15      2.65      0.00
   10    7   15     -3.08      0.00
   11    7   15     -1.69      0.00
    8    8   15     -0.46      0.00
    9    8   15      0.82      0.00
   10    8   15     -0.92      0.00
   11    8   15     -0.61      0.00
    8    9   15     -0.15      0.00
    9    9   15      0.51      0.00
   10    9   15     -1.63      0.00
   11    9   15      0.40      0.00
    7   10   15      1.17      0.00
    8   10   15      2.87      0.00
    9   10   15      0.45      0.00
   10   10   15     -0.87      0.00
   11   10   15      1.88      0.00
    7   11   15     -2.93      0.00
    8   11   15     -1.46      0.00
    9   11   15     -1.91      0.00
   10   11   15     -2.33      0.00
    6   12   15      3.87      0.00
    7   12   15     -1.54      0.00
    8   12   15      0.80      0.00
    9   12   15      0.24      0.00
   10   12   15      0.63      0.00
    5   13   15     -2.69      0.00
    6   13   15      3.22      0.00
    7   13   15     -2.14      0.00
    8   13   15     -2.66      0.00
    9   13   15      2.33      0.00
   10   13   15      1.26      0.00
    4   14   15      1.11      0.00
    5   14   15      3.30      0.00
    6   14   15      2.78      0.00
    7   14   15     -0.86      0.00
    8   14   15     -1.34      0.00
    9   14   15     -0.33      0.00
    2   15   15      2.73      0.00
    3   15   15     -0.01      0.00
    4   15   15     -1.10      0.00
    5   15   15      0.75      0.00
    6   15   15      0.03      0.00
    7   15   15     -1.75      0.00
    8   15   15     -1.26      0.00
    9   15   15      1.01      0.00
    1   16   15      1.84      0.00
    2   16   15     -1.35      0.00
    3   16   15     -1.21      0.00
    4   16   15      1.01      0.00
    5   16   15     -0.10      0.00
    6   16   15     -0.01      0.00
    7   16   15      0.03      0.00
    8   16   15      0.97      0.00
    0   17   15     -2.88      0.00
    1   17   15     -2.64      0.00
    2   17   15      0.46      0.00
    3   17   15     -0.50      0.00
    4   17   15     -1.03      0.00
    5   17   15      0.76      0.00
    6   17   15      1.68      0.00
    7   17   15     -1.02      0.00
    1   18   15      0.34      0.00
    2   18   15      2.98      0.00
    3   18   15      1.02      0.00
    4   18   15     -1.23      0.00
    5   18   15      0.63      0.00
    6   18   15     -0.47      0.00
    7   18   15      0.17      0.00
    0   19   15      0.00      0.00
    1   19   15     -0.20      0.00
    2   19   15     -1.13      0.00
    3   19   15      1.64      0.00
    4   19   15     -0.28      0.00
    5   19   15      0.21      0.00
    6   19   15     -1.13      0.00
    1   20   15     -0.27      0.00
    2   20   15     -0.89      0.00
    3   20   15      0.23      0.00
    4   20   15     -1.52      0.00
    5   20   15      0.14      0.00
    0   21   15     -1.08      0.00
    1   21   15     -0.87      0.00
    2   21   15      0.15      0.00
    3   21   15      0.95      0.00
    6    0   16     -4.55      0.00
    8    0   16      0.26      0.00
   10    0   16      0.27      0.00
    6    1   16     -2.00      0.00
    7    1   16      1.82      0.00
    8    1   16     -0.64      0.00
    9    1   16     -0.55      0.00
   10    1   16      0.43      0.00
    6    2   16     -1.98      0.00
    7    2   16      1.28      0.00
    8    2   16      2.53      0.00
    9    2   16      0.13      0.00
   10    2   16     -1.69      0.00
    6    3   16     -0.52      0.00
    7    3   16     -0.87      0.00
    8    3   16      1.37      0.00
    9    3   16      0.68      0.00
   10    3   16     -2.21      0.00
    6    4   16     -0.13      0.00
    7    4   16      0.24      0.00
    8    4   16     -0.13      0.00
    9    4   16      0.98      0.00
   10    4   16     -1.57      0.00
    5    5   16      1.15      0.00
    6    5   16     -0.27      0.00
    7    5   16     -0.92      0.00
    8    5   16     -2.14      0.00
    9    5   16      1.98      0.00
   10    5   16      1.13      0.00
    5    6   16     -1.56      0.00
    6    6   16      0.81      0.00
    7    6   16      4.15      0.00
    8    6   16      0.10      0.00
    9    6   16     -0.89      0.00
    5    7   16      2.70      0.00
    6    7   16     -2.66      0.00
    7    7   16      0.00      0.00
    8    7   16     -1.09      0.00
    9    7   16      0.05      0.00
    4    8   16     -1.33      0.00
    5    8   16     -2.44      0.00
    6    8   16     -0.73      0.00
    7    8   16      3.72      0.00
    8    8   16     -0.93      0.00
    9    8   16     -1.34      0.00
    3    9   16     -3.18      0.00
    4    9   16      3.02      0.00
    5    9   16      0.96      0.00
    6    9   16     -0.94      0.00
    7    9   16      0.93      0.00
    8    9   16     -1.56      0.00
    9    9   16      1.23      0.00
    1   10   16      1.07      0.00
    2   10   16      0.65      0.00
    3   10   16     -2.03      0.00
    4   10   16     -0.06      0.00
    5   10   16     -0.50      0.00
    6   10   16      1.05      0.00
    7   10   16      1.18      0.00
    8   10   16     -0.97      0.00
    1   11   16     -0.59      0.00
    2   11   16      1.39      0.00
    3   11   16      1.74      0.00
    4   11   16      1.38      0.00
    5   11   16     -2.35      0.00
    6   11   16     -1.29      0.00
    7   11   16      0.64      0.00
    8   11   16      0.90      0.00
    0   12   16     -1.38      0.00
    1   12   16     -0.95      0.00
    2   12   16     -0.39      0.00
    3   12   16     -0.99      0.00
    4   12   16      0.15      0.00
    5   12   16      0.96      0.00
    6   12   16     -2.29      0.00
    7   12   16     -1.52      0.00
    8   12   16      2.56      0.00
    1   13   16      0.27      0.00
    2   13   16      1.55      0.00
    3   13   16      0.59      0.00
    4   13   16     -0.19      0.00
    5   13   16      0.76      0.00
    6   13   16      0.30      0.00
    7   13   16      0.03      0.00
    0   14   16     -0.91      0.00
    1   14   16      1.32      0.00
    2   14   16      0.69      0.00
    3   14   16     -1.41      0.00
    4   14   16     -1.66      0.00
    5   14   16     -0.73      0.00
    6   14   16      0.13      0.00
    7   14   16     -0.47      0.00
    1   15   16     -0.99      0.00
    2   15   16      1.51      0.00
    3   15   16      2.62      0.00
    4   15   16      0.03      0.00
    5   15   16     -1.79      0.00
    6   15   16      0.64      0.00
    0   16   16      3.36      0.00
    1   16   16     -1.38      0.00
    2   16   16     -2.45      0.00
    3   16   16      1.85      0.00
    4   16   16      1.37      0.00
    5   16   16     -2.17      0.00
    1   17   16     -0.48      0.00
    2   17   16     -1.74      0.00
    3   17   16     -0.21      0.00
    4   17   16     -0.40      0.00
    0   18   16      0.56      0.00
    1   18   16      2.11      0.00
    2   18   16      0.60      0.00
    0    0    0      0.00      0.00
# SQUEEZE RESULTS (Version = 120716)
# Note: Data are Listed for all Voids in the P1 Unit Cell
# i.e. Centre of Gravity, Solvent Accessible Volume,
# Recovered number of Electrons in the Void and
# Details about the Squeezed Material
loop_
  _platon_squeeze_void_nr
  _platon_squeeze_void_average_x
  _platon_squeeze_void_average_y
  _platon_squeeze_void_average_z
  _platon_squeeze_void_volume
  _platon_squeeze_void_count_electrons
  _platon_squeeze_void_content
   1  0.500  0.000 -0.045      1521       280 ' '
   2  0.744  0.170  0.000         9         1 ' '
   3  0.000  0.500 -0.008      1517       279 ' '
   4  0.256  0.830  0.000         9         1 ' '
   5  0.244  0.330  0.500         9         1 ' '
   6  0.756  0.670  0.500         9         1 ' '
# Missing Reflections Below sin(th)/lambda = 0.25
loop_
  _platon_missing_refln_index_h
  _platon_missing_refln_index_k
  _platon_missing_refln_index_l
  _platon_missing_refln_theta
    6    0    0     7.462
    1    1    0     1.423
    2    1    0     2.577
    0    2    0     1.394
    1    2    0     1.866
    1    3    0     2.432
    1    4    0     3.053
    1    0    1     1.908
    0    1    1     1.608
    1    1    1     2.031
    1    2    1     2.363
    0    3    1     2.545
_platon_squeeze_void_probe_radius                  1.20
_platon_squeeze_details
)
TITL mo_WUXS201711152DIWEN_0m_a.res in Pnnm
CELL   16.4180   29.2130   14.0520     90.00     90.00     90.00
SPGR Pnnm
# Solvent Accessible Volume =      3061
# Electrons Found in S.A.V. =       555
# Note: Atoms in Void as Cxxx and Qxxx all others
C101 0.366 0.492 0.001 !       6.28 eA-3
C102 0.166 0.695 0.000 !       2.82 eA-3
C103 0.617 0.906-0.003 !       2.69 eA-3
C104 0.757 0.422 0.000 !       2.37 eA-3
C105 0.781 0.695-0.004 !       2.15 eA-3
C106 0.756 0.475 0.973 !       2.10 eA-3
C107 1.000 0.500 0.453 !       2.02 eA-3
C108 0.032 0.523 0.507 !       1.97 eA-3
C109 0.590 0.922 0.162 !       1.95 eA-3
C110 0.725 0.167 0.443 !       1.81 eA-3
C111 0.293 0.352 0.003 !       1.79 eA-3
C112 0.585 0.936 0.061 !       1.70 eA-3
C113 0.424 0.765 0.440 !       1.66 eA-3
C114 0.676 0.130 0.641 !       1.63 eA-3
C115 0.334 0.148 0.509 !       1.52 eA-3
C116 0.263 0.133 0.495 !       1.46 eA-3
C117 0.055 0.266 0.009 !       1.36 eA-3
C118 0.830 0.669 0.088 !       1.33 eA-3
C119 0.283 0.984 0.536 !       1.22 eA-3
C120 0.099 0.680 0.003 !       1.21 eA-3
C121 0.766 0.505 0.064 !       1.20 eA-3
C122 0.606 0.195 0.601 !       1.16 eA-3
C123 0.763 0.546 0.939 !       1.12 eA-3
C124 0.204 0.820 0.505 !       1.10 eA-3
C125 0.041 0.610 0.798 !       1.09 eA-3
C126 0.620 0.953 0.206 !       1.08 eA-3
C127 0.368 0.172 0.539 !       1.08 eA-3
C128 0.131 0.532 0.256 !       1.06 eA-3
C129 0.059 0.316 0.828 !       1.00 eA-3
C130 0.083 0.531 0.201 !       0.98 eA-3
C131 0.281 0.965 0.408 !       0.97 eA-3
C132 0.234 0.906 0.500 !       0.96 eA-3
C133 0.461 0.813 0.498 !       0.90 eA-3
C134 0.812 0.495 0.094 !       0.89 eA-3
C135 0.176 0.592 0.146 !       0.89 eA-3
C136 0.562 0.109 0.559 !       0.88 eA-3
C137 0.180 0.540 0.090 !       0.87 eA-3
C138 0.059 0.615 0.859 !       0.86 eA-3
Q139 0.248 0.810 0.823 !       0.85 eA-3
C140 0.276 0.092 0.555 !       0.85 eA-3
C141 0.141 0.498 0.161 !       0.84 eA-3
C142 0.562 0.148 0.659 !       0.83 eA-3
Q143 0.713 0.331 0.212 !       0.81 eA-3
Q144 0.710 0.318 0.239 !       0.80 eA-3
C145 0.146 0.635 0.888 !       0.79 eA-3
Q146 0.152 0.915 0.714 !       0.79 eA-3
C147 0.256 0.922 0.507 !       0.78 eA-3
C148 0.631 0.055 0.506 !       0.77 eA-3
Q149 0.172 0.680 0.320 !       0.77 eA-3
Q150 0.931 0.008 0.504 !       0.76 eA-3
Q151 0.689 0.203-0.003 !       0.75 eA-3
C152 0.121 0.508 0.796 !       0.73 eA-3
C153 0.672 0.118 0.713 !       0.73 eA-3
Q154 0.778 0.508 0.503 !       0.73 eA-3
C155 0.832 0.562-0.002 !       0.72 eA-3
Q156 0.211 0.758 0.506 !       0.72 eA-3
Q157 0.748 0.735 0.307 !       0.71 eA-3
Q158 0.987 0.961 0.593 !       0.71 eA-3
Q159 0.382 0.586 0.860 !       0.71 eA-3
C160 0.253 0.945 0.502 !       0.71 eA-3
Q161 0.364 0.302 0.784 !       0.71 eA-3
Q162 0.815 0.930 0.284 !       0.69 eA-3
C163 0.568 0.827 0.549 !       0.69 eA-3
Q164 0.033 0.155 0.716 !       0.69 eA-3
Q165 0.851 0.023 0.001 !       0.67 eA-3
Q166 0.450 0.445 0.002 !       0.67 eA-3
Q167 0.170 0.601 0.497 !       0.66 eA-3
C168 0.495 0.773 0.365 !       0.66 eA-3
Q169 0.652 0.305 0.499 !       0.66 eA-3
Q170 0.866 0.976 0.079 !       0.66 eA-3
C171 0.533 0.977 0.674 !       0.65 eA-3
C172 0.147 0.500-0.005 !       0.65 eA-3
Q173 0.496 0.633-0.001 !       0.65 eA-3
Q174 0.937 0.126 0.165 !       0.63 eA-3
Q175 0.226 0.111 0.422 !       0.63 eA-3
C176 0.699 0.398 0.001 !       0.63 eA-3
C177 0.120 0.408 0.810 !       0.63 eA-3
Q178 0.425 0.400 0.849 !       0.63 eA-3
Q179 0.150 0.585 0.389 !       0.63 eA-3
C180 0.480 0.945 0.709 !       0.60 eA-3
C181 0.759 0.617 0.005 !       0.60 eA-3
C182 0.661 0.009 0.561 !       0.59 eA-3
C183 0.089 0.641 0.003 !       0.59 eA-3
Q184 0.283 0.011 0.933 !       0.58 eA-3
Q185 0.643 0.063 0.830 !       0.58 eA-3
Q186 0.976 0.038 0.953 !       0.58 eA-3
Q187 0.815 0.461 0.282 !       0.57 eA-3
Q188 0.335 0.063 0.833 !       0.57 eA-3
Q189 0.816 0.570 0.345 !       0.56 eA-3
Q190 0.366 0.328 0.497 !       0.56 eA-3
Q191 0.517 0.547 0.497 !       0.56 eA-3
Q192 0.232 0.095 0.142 !       0.56 eA-3
C193 0.066 0.647 0.094 !       0.56 eA-3
Q194 0.458 0.705 0.346 !       0.56 eA-3
C195 0.045 0.420 0.206 !       0.56 eA-3
Q196 0.208 0.975 0.238 !       0.55 eA-3
Q197 0.269 0.859 0.000 !       0.55 eA-3
C198 0.891 0.703 0.001 !       0.55 eA-3
C199 0.983 0.336 0.885 !       0.55 eA-3
)
;
_shelx_fab_checksum              53804
_olex2_submission_special_instructions 'No special instructions were received'
loop_
_space_group_symop_operation_xyz
'x, y, z'
'x+1/2, -y+1/2, -z+1/2'
'-x+1/2, y+1/2, -z+1/2'
'-x, -y, z'
'-x, -y, -z'
'-x-1/2, y-1/2, z-1/2'
'x-1/2, -y-1/2, z-1/2'
'x, y, -z'
loop_
_atom_site_label
_atom_site_type_symbol
_atom_site_fract_x
_atom_site_fract_y
_atom_site_fract_z
_atom_site_U_iso_or_equiv
_atom_site_adp_type
_atom_site_occupancy
_atom_site_site_symmetry_order
_atom_site_calc_flag
_atom_site_refinement_flags_posn
_atom_site_refinement_flags_adp
_atom_site_refinement_flags_occupancy
Cu1 Cu 0.46463(2) 0.70291(2) 0.000000 0.01351(13) Uani 1 2 d S T P
Cu2 Cu 0.95715(2) 0.70520(2) 0.500000 0.01481(13) Uani 1 2 d S T P
Cl1 Cl 0.47844(7) 0.62159(3) 0.000000 0.0284(2) Uani 1 2 d S T P
O1 O 0.87527(13) 0.71785(6) 0.40182(15) 0.0359(5) Uani 1 1 d . . .
O2 O 0.87899(12) 0.79403(6) 0.40136(13) 0.0263(4) Uani 1 1 d . . .
O3 O 0.54694(11) 0.71702(6) 0.09844(14) 0.0284(5) Uani 1 1 d . . .
O4 O 0.54398(12) 0.79368(6) 0.09616(15) 0.0318(5) Uani 1 1 d . . .
N1 N 0.9192(2) 0.63394(10) 0.500000 0.0258(7) Uani 1 2 d S T P
N2 N 0.6807(2) 0.53390(11) 0.500000 0.0317(8) Uani 1 2 d S T P
H2A H 0.674128 0.551499 0.551132 0.038 Uiso 0.5 1 calc R . .
H2B H 0.674128 0.551499 0.448868 0.038 Uiso 0.5 1 calc R . .
C1 C 0.77933(17) 0.75676(9) 0.30854(19) 0.0240(6) Uani 1 1 d . . .
C2 C 0.75481(18) 0.79679(9) 0.2636(2) 0.0299(7) Uani 1 1 d . . .
H2 H 0.783355 0.823811 0.274171 0.036 Uiso 1 1 calc R . .
C3 C 0.68830(18) 0.79679(9) 0.2033(2) 0.0312(7) Uani 1 1 d . . .
H3 H 0.672957 0.823681 0.172732 0.037 Uiso 1 1 calc R . .
C4 C 0.64419(17) 0.75682(9) 0.18802(19) 0.0265(6) Uani 1 1 d . . .
C5 C 0.66902(18) 0.71683(10) 0.2334(2) 0.0338(7) Uani 1 1 d . . .
H5 H 0.640362 0.689817 0.223243 0.041 Uiso 1 1 calc R . .
C6 C 0.73506(19) 0.71675(10) 0.2929(2) 0.0356(8) Uani 1 1 d . . .
H6 H 0.750510 0.689781 0.323099 0.043 Uiso 1 1 calc R . .
C7 C 0.85033(16) 0.75622(9) 0.37544(18) 0.0214(6) Uani 1 1 d . . .
C8 C 0.57284(16) 0.75585(9) 0.12297(18) 0.0230(6) Uani 1 1 d . . .
C9 C 0.8948(2) 0.61405(10) 0.4197(2) 0.0377(8) Uani 1 1 d . . .
H9 H 0.910865 0.627157 0.362365 0.045 Uiso 1 1 calc R . .
C10 C 0.8474(2) 0.57529(10) 0.4164(2) 0.0376(8) Uani 1 1 d . . .
H10 H 0.832144 0.562746 0.358191 0.045 Uiso 1 1 calc R . .
C11 C 0.8228(3) 0.55537(13) 0.500000 0.0304(10) Uani 1 2 d S T P
C12 C 0.7642(3) 0.51564(13) 0.500000 0.0364(11) Uani 1 2 d S T P
H12A H 0.772848 0.496828 0.444020 0.044 Uiso 0.5 1 calc R . .
H12B H 0.772848 0.496828 0.555980 0.044 Uiso 0.5 1 calc R . .
C13 C 0.6173(2) 0.49845(12) 0.500000 0.0274(9) Uani 1 2 d S T P
H13A H 0.624178 0.479268 0.555759 0.033 Uiso 0.5 1 calc R . .
H13B H 0.624178 0.479268 0.444241 0.033 Uiso 0.5 1 calc R . .
C14 C 0.5320(2) 0.51777(13) 0.500000 0.0314(10) Uani 1 2 d S T P
H14A H 0.525103 0.536966 0.555752 0.038 Uiso 0.5 1 calc R . .
H14B H 0.525102 0.536966 0.444248 0.038 Uiso 0.5 1 calc R . .
O5 O 0.68153(13) 0.51244(7) 0.72262(15) 0.0399(5) Uani 1 1 d . . .
O6 O 0.65682(13) 0.61501(6) 0.61168(14) 0.0345(5) Uani 1 1 d . . .
O7 O 0.29288(13) 0.59609(7) 0.61573(14) 0.0405(5) Uani 1 1 d . . .
N3 N 0.58049(15) 0.46713(8) 0.78943(16) 0.0312(6) Uani 1 1 d . . .
N4 N 0.56577(15) 0.54245(8) 0.79240(16) 0.0300(6) Uani 1 1 d . . .
N5 N 0.54947(15) 0.61584(8) 0.71649(17) 0.0335(6) Uani 1 1 d . . .
N6 N 0.54107(16) 0.65815(8) 0.58590(17) 0.0350(6) Uani 1 1 d . . .
N7 N 0.39349(16) 0.64975(8) 0.58647(18) 0.0367(6) Uani 1 1 d . . .
N8 N 0.40212(15) 0.60708(8) 0.71675(17) 0.0329(6) Uani 1 1 d . . .
C15 C 0.61661(19) 0.50784(10) 0.7640(2) 0.0318(7) Uani 1 1 d . . .
C16 C 0.49476(17) 0.52606(10) 0.84221(19) 0.0284(7) Uani 1 1 d . . .
H16 H 0.491349 0.538464 0.906895 0.034 Uiso 1 1 calc R . .
C17 C 0.58947(18) 0.58964(10) 0.79044(19) 0.0317(7) Uani 1 1 d . . .
H17A H 0.647925 0.591432 0.781121 0.038 Uiso 1 1 calc R . .
H17B H 0.577125 0.603339 0.851645 0.038 Uiso 1 1 calc R . .
C18 C 0.58970(19) 0.62788(9) 0.6346(2) 0.0304(7) Uani 1 1 d . . .
C19 C 0.5679(3) 0.68072(13) 0.500000 0.0392(11) Uani 1 2 d S T P
H19A H 0.626932 0.682098 0.500000 0.047 Uiso 1 2 calc RS T P
H19B H 0.547593 0.711899 0.500000 0.047 Uiso 1 2 calc RS T P
C20 C 0.4647(2) 0.66731(10) 0.6338(2) 0.0360(8) Uani 1 1 d . . .
H20 H 0.458729 0.699902 0.648779 0.043 Uiso 1 1 calc R . .
C21 C 0.47036(18) 0.63782(10) 0.7258(2) 0.0328(7) Uani 1 1 d . . .
H21 H 0.466779 0.656562 0.783498 0.039 Uiso 1 1 calc R . .
C22 C 0.3591(3) 0.66804(14) 0.500000 0.0406(11) Uani 1 2 d S T P
H22A H 0.366515 0.700979 0.500000 0.049 Uiso 1 2 calc RS T P
H22B H 0.300991 0.662071 0.499999 0.049 Uiso 1 2 calc RS T P
C23 C 0.3563(2) 0.61510(10) 0.6368(2) 0.0324(7) Uani 1 1 d . . .
C24 C 0.37493(19) 0.57545(10) 0.7896(2) 0.0335(7) Uani 1 1 d . . .
H24A H 0.380838 0.589863 0.851439 0.040 Uiso 1 1 calc R . .
H24B H 0.317548 0.569009 0.780087 0.040 Uiso 1 1 calc R . .
loop_
_atom_site_aniso_label
_atom_site_aniso_U_11
_atom_site_aniso_U_22
_atom_site_aniso_U_33
_atom_site_aniso_U_23
_atom_site_aniso_U_13
_atom_site_aniso_U_12
Cu1 0.0077(2) 0.0219(2) 0.0109(2) 0.000 0.000 0.00055(18)
Cu2 0.0091(2) 0.0226(2) 0.0128(2) 0.000 0.000 -0.00116(18)
Cl1 0.0435(6) 0.0225(4) 0.0191(5) 0.000 0.000 0.0039(4)
O1 0.0345(12) 0.0307(10) 0.0424(12) 0.0034(10) -0.0293(10) -0.0047(10)
O2 0.0243(11) 0.0289(9) 0.0257(10) 0.0009(8) -0.0125(8) -0.0051(9)
O3 0.0222(11) 0.0318(10) 0.0313(11) 0.0001(9) -0.0116(8) -0.0021(9)
O4 0.0338(12) 0.0285(10) 0.0332(12) 0.0025(9) -0.0194(9) -0.0037(9)
N1 0.0240(19) 0.0271(16) 0.0263(18) 0.000 0.000 -0.0028(15)
N2 0.0238(19) 0.0284(17) 0.043(2) 0.000 0.000 -0.0077(15)
C1 0.0182(14) 0.0330(15) 0.0208(14) 0.0032(12) -0.0069(11) -0.0060(12)
C2 0.0258(16) 0.0317(15) 0.0321(16) 0.0068(13) -0.0139(13) -0.0126(13)
C3 0.0298(17) 0.0277(14) 0.0362(17) 0.0083(13) -0.0151(14) -0.0048(13)
C4 0.0188(15) 0.0365(15) 0.0240(15) 0.0055(12) -0.0088(12) -0.0078(13)
C5 0.0293(17) 0.0324(15) 0.0398(18) 0.0143(14) -0.0187(14) -0.0129(14)
C6 0.0320(18) 0.0333(15) 0.0414(18) 0.0132(14) -0.0210(15) -0.0083(14)
C7 0.0148(14) 0.0330(15) 0.0164(13) 0.0012(12) -0.0026(11) -0.0047(12)
C8 0.0152(14) 0.0377(16) 0.0161(13) 0.0017(12) -0.0022(11) -0.0036(13)
C9 0.046(2) 0.0359(16) 0.0308(16) -0.0032(14) 0.0044(15) -0.0077(16)
C10 0.044(2) 0.0346(15) 0.0340(17) -0.0070(14) -0.0008(15) -0.0082(15)
C11 0.024(2) 0.028(2) 0.040(2) 0.000 0.000 -0.0013(18)
C12 0.029(3) 0.027(2) 0.053(3) 0.000 0.000 -0.0008(19)
C13 0.031(2) 0.0232(19) 0.029(2) 0.000 0.000 -0.0056(18)
C14 0.028(2) 0.0244(19) 0.042(2) 0.000 0.000 -0.0054(18)
O5 0.0292(12) 0.0485(12) 0.0420(12) -0.0062(11) 0.0130(10) -0.0036(10)
O6 0.0318(12) 0.0402(11) 0.0314(11) -0.0034(10) 0.0025(9) -0.0042(10)
O7 0.0350(13) 0.0491(12) 0.0374(12) -0.0021(11) -0.0063(10) 0.0046(11)
N3 0.0273(14) 0.0395(13) 0.0269(13) 0.0009(11) 0.0053(11) 0.0022(12)
N4 0.0296(14) 0.0348(13) 0.0257(13) -0.0009(11) 0.0027(11) -0.0001(12)
N5 0.0336(15) 0.0388(13) 0.0280(13) -0.0059(12) 0.0021(11) 0.0021(12)
N6 0.0408(17) 0.0352(13) 0.0289(14) -0.0027(12) 0.0005(11) -0.0005(12)
N7 0.0365(16) 0.0372(13) 0.0364(14) 0.0021(12) -0.0070(12) 0.0083(13)
N8 0.0338(15) 0.0353(13) 0.0297(13) -0.0020(11) -0.0054(11) -0.0017(12)
C15 0.0311(18) 0.0434(17) 0.0208(14) -0.0049(14) -0.0067(13) 0.0004(15)
C16 0.0269(16) 0.0393(16) 0.0190(14) -0.0009(12) 0.0005(12) 0.0031(14)
C17 0.0271(16) 0.0434(17) 0.0247(15) -0.0045(14) -0.0029(13) -0.0027(14)
C18 0.0360(19) 0.0272(14) 0.0281(16) -0.0113(13) -0.0005(14) -0.0052(14)
C19 0.054(3) 0.026(2) 0.038(3) 0.000 0.000 -0.006(2)
C20 0.050(2) 0.0222(13) 0.0363(17) -0.0083(13) 0.0050(15) 0.0058(15)
C21 0.0368(18) 0.0331(15) 0.0285(16) -0.0128(13) 0.0031(13) 0.0037(14)
C22 0.046(3) 0.036(2) 0.040(3) 0.000 0.000 0.020(2)
C23 0.0358(19) 0.0316(15) 0.0298(16) -0.0077(14) 0.0006(14) 0.0127(15)
C24 0.0314(17) 0.0418(16) 0.0273(16) -0.0026(14) 0.0027(13) 0.0051(15)
loop_
_atom_type_symbol
_atom_type_description
_atom_type_scat_dispersion_real
_atom_type_scat_dispersion_imag
_atom_type_scat_source
C C 0.0033 0.0016 'International Tables Vol C Tables 4.2.6.8 and 6.1.1.4'
H H 0.0000 0.0000 'International Tables Vol C Tables 4.2.6.8 and 6.1.1.4'
Cl Cl 0.1484 0.1585 'International Tables Vol C Tables 4.2.6.8 and 6.1.1.4'
Cu Cu 0.3201 1.2651 'International Tables Vol C Tables 4.2.6.8 and 6.1.1.4'
N N 0.0061 0.0033 'International Tables Vol C Tables 4.2.6.8 and 6.1.1.4'
O O 0.0106 0.0060 'International Tables Vol C Tables 4.2.6.8 and 6.1.1.4'
loop_
_geom_angle_atom_site_label_1
_geom_angle_atom_site_label_2
_geom_angle_atom_site_label_3
_geom_angle
_geom_angle_site_symmetry_1
_geom_angle_site_symmetry_3
Cl1 Cu1 Cu2 177.17(3) . 2_465
O2 Cu1 Cu2 85.54(5) 7_575 2_465
O2 Cu1 Cu2 85.54(5) 2_465 2_465
O2 Cu1 Cl1 96.47(5) 2_465 .
O2 Cu1 Cl1 96.47(5) 7_575 .
O2 Cu1 O2 89.06(12) 7_575 2_465
O2 Cu1 O3 89.21(9) 2_465 .
O2 Cu1 O3 165.33(8) 7_575 .
O2 Cu1 O3 89.21(9) 7_575 8
O2 Cu1 O3 165.33(8) 2_465 8
O3 Cu1 Cu2 79.80(6) 8 2_465
O3 Cu1 Cu2 79.80(6) . 2_465
O3 Cu1 Cl1 98.20(6) . .
O3 Cu1 Cl1 98.20(6) 8 .
O3 Cu1 O3 88.78(12) 8 .
O1 Cu2 Cu1 80.97(6) . 2_565
O1 Cu2 Cu1 80.97(6) 8_556 2_565
O1 Cu2 O1 89.39(14) . 8_556
O1 Cu2 O4 90.60(10) 8_556 7_676
O1 Cu2 O4 90.60(10) . 2_565
O1 Cu2 O4 167.97(8) . 7_676
O1 Cu2 O4 167.97(8) 8_556 2_565
O1 Cu2 N1 89.09(8) 8_556 .
O1 Cu2 N1 89.10(8) . .
O4 Cu2 Cu1 87.14(5) 7_676 2_565
O4 Cu2 Cu1 87.14(5) 2_565 2_565
O4 Cu2 O4 86.91(14) 7_676 2_565
O4 Cu2 N1 102.94(8) 7_676 .
O4 Cu2 N1 102.94(8) 2_565 .
N1 Cu2 Cu1 165.97(9) . 2_565
C7 O1 Cu2 127.03(17) . .
C7 O2 Cu1 120.69(17) . 2_565
C8 O3 Cu1 127.59(18) . .
C8 O4 Cu2 119.55(17) . 2_465
C9 N1 Cu2 120.30(17) 8_556 .
C9 N1 Cu2 120.30(17) . .
C9 N1 C9 116.0(3) 8_556 .
H2A N2 H2B 107.7 . .
C12 N2 H2A 108.8 . .
C12 N2 H2B 108.8 . .
C13 N2 H2A 108.8 . .
C13 N2 H2B 108.8 . .
C13 N2 C12 113.9(3) . .
C2 C1 C6 118.9(3) . .
C2 C1 C7 121.3(2) . .
C6 C1 C7 119.7(2) . .
C1 C2 H2 119.7 . .
C3 C2 C1 120.5(3) . .
C3 C2 H2 119.7 . .
C2 C3 H3 119.8 . .
C2 C3 C4 120.4(3) . .
C4 C3 H3 119.8 . .
C3 C4 C5 118.8(3) . .
C3 C4 C8 121.4(2) . .
C5 C4 C8 119.8(2) . .
C4 C5 H5 119.6 . .
C6 C5 C4 120.9(3) . .
C6 C5 H5 119.6 . .
C1 C6 H6 119.7 . .
C5 C6 C1 120.5(3) . .
C5 C6 H6 119.7 . .
O1 C7 O2 125.5(2) . .
O1 C7 C1 116.8(2) . .
O2 C7 C1 117.7(2) . .
O3 C8 O4 125.5(2) . .
O3 C8 C4 116.8(2) . .
O4 C8 C4 117.6(2) . .
N1 C9 H9 118.0 . .
N1 C9 C10 124.0(3) . .
C10 C9 H9 118.0 . .
C9 C10 H10 120.4 . .
C11 C10 C9 119.1(3) . .
C11 C10 H10 120.4 . .
C10 C11 C10 117.9(4) 8_556 .
C10 C11 C12 120.93(19) . .
C10 C11 C12 120.93(19) 8_556 .
N2 C12 C11 108.4(3) . .
N2 C12 H12A 110.0 . .
N2 C12 H12B 110.0 . .
C11 C12 H12A 110.0 . .
C11 C12 H12B 110.0 . .
H12A C12 H12B 108.4 . .
N2 C13 H13A 108.9 . .
N2 C13 H13B 108.9 . .
N2 C13 C14 113.2(3) . .
H13A C13 H13B 107.7 . .
C14 C13 H13A 108.9 . .
C14 C13 H13B 108.9 . .
C13 C14 H14A 108.9 . .
C13 C14 H14B 108.9 . .
C14 C14 C13 113.4(4) 5_666 .
C14 C14 H14A 108.9 5_666 .
C14 C14 H14B 108.9 5_666 .
H14A C14 H14B 107.7 . .
C15 N3 C16 112.4(2) . 4_665
C15 N3 C24 121.8(2) . 4_665
C24 N3 C16 123.2(2) 4_665 4_665
C15 N4 C16 112.9(2) . .
C15 N4 C17 122.6(2) . .
C17 N4 C16 123.3(2) . .
C17 N5 C21 125.0(2) . .
C18 N5 C17 121.2(3) . .
C18 N5 C21 113.1(2) . .
C18 N6 C19 122.2(3) . .
C18 N6 C20 113.0(2) . .
C19 N6 C20 124.6(3) . .
C20 N7 C22 125.1(3) . .
C23 N7 C20 112.7(2) . .
C23 N7 C22 122.1(3) . .
C21 N8 C24 125.0(2) . .
C23 N8 C21 113.1(2) . .
C23 N8 C24 121.2(3) . .
O5 C15 N3 126.5(3) . .
O5 C15 N4 126.1(3) . .
N4 C15 N3 107.4(3) . .
N3 C16 C16 103.4(3) 4_665 4_665
N3 C16 H16 111.9 4_665 .
N4 C16 N3 113.2(2) . 4_665
N4 C16 C16 103.8(2) . 4_665
N4 C16 H16 111.9 . .
C16 C16 H16 111.9 4_665 .
N4 C17 N5 113.5(2) . .
N4 C17 H17A 108.9 . .
N4 C17 H17B 108.9 . .
N5 C17 H17A 108.9 . .
N5 C17 H17B 108.9 . .
H17A C17 H17B 107.7 . .
O6 C18 N5 125.6(3) . .
O6 C18 N6 126.7(3) . .
N5 C18 N6 107.6(3) . .
N6 C19 N6 113.4(3) . 8_556
N6 C19 H19A 108.9 8_556 .
N6 C19 H19A 108.9 . .
N6 C19 H19B 108.9 8_556 .
N6 C19 H19B 108.9 . .
H19A C19 H19B 107.7 . .
N6 C20 H20 111.4 . .
N6 C20 C21 103.4(2) . .
N7 C20 N6 115.0(2) . .
N7 C20 H20 111.4 . .
N7 C20 C21 103.6(2) . .
C21 C20 H20 111.4 . .
N5 C21 C20 102.9(2) . .
N5 C21 H21 112.0 . .
N8 C21 N5 114.3(2) . .
N8 C21 C20 103.0(2) . .
N8 C21 H21 112.0 . .
C20 C21 H21 112.0 . .
N7 C22 N7 114.8(3) . 8_556
N7 C22 H22A 108.6 8_556 .
N7 C22 H22A 108.6 . .
N7 C22 H22B 108.6 . .
N7 C22 H22B 108.6 8_556 .
H22A C22 H22B 107.5 . .
O7 C23 N7 126.2(3) . .
O7 C23 N8 126.2(3) . .
N8 C23 N7 107.6(3) . .
N3 C24 N8 113.1(2) 4_665 .
N3 C24 H24A 109.0 4_665 .
N3 C24 H24B 109.0 4_665 .
N8 C24 H24A 109.0 . .
N8 C24 H24B 109.0 . .
H24A C24 H24B 107.8 . .
loop_
_geom_bond_atom_site_label_1
_geom_bond_atom_site_label_2
_geom_bond_distance
_geom_bond_site_symmetry_2
Cu1 Cu2 2.6874(13) 2_465
Cu1 Cl1 2.3863(14) .
Cu1 O2 1.9764(19) 7_575
Cu1 O2 1.9764(19) 2_465
Cu1 O3 1.977(2) .
Cu1 O3 1.977(2) 8
Cu2 O1 1.9615(19) 8_556
Cu2 O1 1.9614(19) .
Cu2 O4 1.964(2) 2_565
Cu2 O4 1.964(2) 7_676
Cu2 N1 2.173(3) .
O1 C7 1.250(3) .
O2 C7 1.255(3) .
O3 C8 1.260(3) .
O4 C8 1.260(3) .
N1 C9 1.331(3) .
N1 C9 1.331(3) 8_556
N2 H2A 0.8900 .
N2 H2B 0.8900 .
N2 C12 1.471(5) .
N2 C13 1.468(5) .
C1 C2 1.388(4) .
C1 C6 1.394(4) .
C1 C7 1.497(4) .
C2 H2 0.9300 .
C2 C3 1.382(4) .
C3 H3 0.9300 .
C3 C4 1.391(4) .
C4 C5 1.392(4) .
C4 C8 1.486(4) .
C5 H5 0.9300 .
C5 C6 1.369(4) .
C6 H6 0.9300 .
C9 H9 0.9300 .
C9 C10 1.375(4) .
C10 H10 0.9300 .
C10 C11 1.372(4) .
C11 C12 1.508(5) .
C12 H12A 0.9700 .
C12 H12B 0.9700 .
C13 H13A 0.9700 .
C13 H13B 0.9700 .
C13 C14 1.510(5) .
C14 C14 1.476(7) 5_666
C14 H14A 0.9700 .
C14 H14B 0.9700 .
O5 C15 1.221(3) .
O6 C18 1.208(3) .
O7 C23 1.216(4) .
N3 C15 1.376(4) .
N3 C16 1.455(4) 4_665
N3 C24 1.443(4) 4_665
N4 C15 1.371(4) .
N4 C16 1.442(4) .
N4 C17 1.433(4) .
N5 C17 1.448(4) .
N5 C18 1.373(4) .
N5 C21 1.455(4) .
N6 C18 1.374(4) .
N6 C19 1.444(3) .
N6 C20 1.449(4) .
N7 C20 1.439(4) .
N7 C22 1.442(3) .
N7 C23 1.377(4) .
N8 C21 1.441(4) .
N8 C23 1.373(4) .
N8 C24 1.450(4) .
C16 C16 1.532(6) 4_665
C16 H16 0.9800 .
C17 H17A 0.9700 .
C17 H17B 0.9700 .
C19 H19A 0.9700 .
C19 H19B 0.9700 .
C20 H20 0.9800 .
C20 C21 1.556(4) .
C21 H21 0.9800 .
C22 H22A 0.9700 .
C22 H22B 0.9700 .
C24 H24A 0.9700 .
C24 H24B 0.9700 .
