#------------------------------------------------------------------------------
#$Date: 2019-11-17 05:05:20 +0200 (Sun, 17 Nov 2019) $
#$Revision: 228024 $
#$URL: file:///home/coder/svn-repositories/cod/cif/7/12/24/7122472.cif $
#------------------------------------------------------------------------------
#
# This file is available in the Crystallography Open Database (COD),
# http://www.crystallography.net/
#
# All data on this site have been placed in the public domain by the
# contributors.
#
data_7122472
loop_
_publ_author_name
'Chen, Cheng-Xia'
'Qiu, Qian-Feng'
'Pan, Mei'
'Cao, Chen-Chen'
'Zhu, Neng-Xiu'
'Wang, Hai-Ping'
'Jiang, Ji-Jun'
'Wei, Zhang-Wen'
'Su, Cheng-Yong'
_publ_section_title
;
 Tunability of fluorescent metal-organic frameworks through dynamic spacer
 installation with multivariate fluorophores.
;
_journal_issue                   97
_journal_name_full
'Chemical communications (Cambridge, England)'
_journal_page_first              13666
_journal_page_last               13669
_journal_paper_doi               10.1039/c8cc07441k
_journal_volume                  54
_journal_year                    2018
_chemical_formula_moiety         'C76 H30 F24 O34 Zr6'
_chemical_formula_sum            'C76 H30 F24 O34 Zr6'
_chemical_formula_weight         2490.32
_chemical_name_common            LIFM-53
_space_group_crystal_system      tetragonal
_space_group_IT_number           131
_space_group_name_Hall           '-P 4c 2'
_space_group_name_H-M_alt        'P 42/m m c'
_symmetry_space_group_name_Hall  '-P 4c 2'
_symmetry_space_group_name_H-M   'P 42/m m c'
_atom_sites_solution_hydrogens   geom
_audit_creation_method           SHELXL-2014/7
_audit_update_record
;
2018-07-30 deposited with the CCDC.
2018-10-16 downloaded from the CCDC.
;
_cell_angle_alpha                90
_cell_angle_beta                 90
_cell_angle_gamma                90
_cell_formula_units_Z            2
_cell_length_a                   24.3097(5)
_cell_length_b                   24.3097(5)
_cell_length_c                   14.9770(5)
_cell_measurement_reflns_used    6142
_cell_measurement_temperature    150(2)
_cell_measurement_theta_max      65.3620
_cell_measurement_theta_min      4.0400
_cell_volume                     8850.8(4)
_computing_structure_refinement  'SHELXL-2014/7 (Sheldrick, 2014)'
_computing_structure_solution    'SHELXL-2014/7 (Sheldrick, 2014)'
_diffrn_ambient_temperature      150(2)
_diffrn_detector                 'CCD plate'
_diffrn_detector_area_resol_mean 10.6525
_diffrn_detector_type            Atlas
_diffrn_measured_fraction_theta_full 0.969
_diffrn_measured_fraction_theta_max 0.969
_diffrn_measurement_device       'four-circle diffractometer'
_diffrn_measurement_device_type  'SuperNova, Dual, Cu at zero, Atlas'
_diffrn_measurement_method       '\w scans'
_diffrn_radiation_monochromator  mirror
_diffrn_radiation_type           CuK\a
_diffrn_radiation_wavelength     1.54184
_diffrn_reflns_av_R_equivalents  0.0767
_diffrn_reflns_av_unetI/netI     0.0577
_diffrn_reflns_Laue_measured_fraction_full 0.969
_diffrn_reflns_Laue_measured_fraction_max 0.969
_diffrn_reflns_limit_h_max       24
_diffrn_reflns_limit_h_min       -28
_diffrn_reflns_limit_k_max       12
_diffrn_reflns_limit_k_min       -28
_diffrn_reflns_limit_l_max       17
_diffrn_reflns_limit_l_min       -17
_diffrn_reflns_number            15851
_diffrn_reflns_point_group_measured_fraction_full 0.969
_diffrn_reflns_point_group_measured_fraction_max 0.969
_diffrn_reflns_theta_full        65.367
_diffrn_reflns_theta_max         65.367
_diffrn_reflns_theta_min         3.636
_diffrn_source                   'micro-focus sealed X-ray tube'
_diffrn_source_type              'SuperNova (Cu) X-ray Source'
_exptl_absorpt_coefficient_mu    3.411
_exptl_absorpt_correction_T_max  1.00000
_exptl_absorpt_correction_T_min  0.00708
_exptl_absorpt_correction_type   multi-scan
_exptl_absorpt_process_details
;
CrysAlisPro 1.171.38.43 (Rigaku Oxford Diffraction, 2015)
Empirical absorption correction using spherical harmonics,
 implemented in SCALE3 ABSPACK scaling algorithm.
;
_exptl_crystal_colour            Colorless
_exptl_crystal_density_diffrn    0.934
_exptl_crystal_description       Block
_exptl_crystal_F_000             2428
_exptl_crystal_size_max          0.1
_exptl_crystal_size_mid          0.1
_exptl_crystal_size_min          0.1
_refine_diff_density_max         1.941
_refine_diff_density_min         -1.859
_refine_diff_density_rms         0.156
_refine_ls_extinction_method     none
_refine_ls_goodness_of_fit_ref   1.054
_refine_ls_hydrogen_treatment    constr
_refine_ls_matrix_type           full
_refine_ls_number_parameters     221
_refine_ls_number_reflns         4050
_refine_ls_number_restraints     276
_refine_ls_restrained_S_all      1.091
_refine_ls_R_factor_all          0.1261
_refine_ls_R_factor_gt           0.1056
_refine_ls_shift/su_max          0.000
_refine_ls_shift/su_mean         0.000
_refine_ls_structure_factor_coef Fsqd
_refine_ls_weighting_details
'w=1/[\s^2^(Fo^2^)+(0.1749P)^2^+67.5347P] where P=(Fo^2^+2Fc^2^)/3'
_refine_ls_weighting_scheme      calc
_refine_ls_wR_factor_gt          0.2901
_refine_ls_wR_factor_ref         0.3150
_reflns_Friedel_coverage         0.000
_reflns_number_gt                3077
_reflns_number_total             4050
_reflns_threshold_expression     'I > 2\s(I)'
_cod_data_source_file            c8cc07441k2.cif
_cod_data_source_block           LIFM-53
_cod_depositor_comments
'Adding full bibliography for 7122472--7122473.cif.'
_cod_original_cell_volume        8850.8(5)
_cod_database_code               7122472
_shelx_shelxl_version_number     2014/7
_shelx_space_group_comment
;
The symmetry employed for this shelxl refinement is uniquely defined
by the following loop, which should always be used as a source of
symmetry information in preference to the above space-group names.
They are only intended as comments.
;
_shelx_res_file
;

    F:\xray\ccx3\NEWFOL~1\1050\1_sq.res created by SHELXL-2014/7

REM  exp_1050 in P4(2)/mmc
REM R1 =  0.2804 for    3077 Fo > 4sig(Fo)  and  0.3176 for all    4050 data
REM    107 parameters refined using     77 restraints
REM Highest difference peak 10.689,  deepest hole -4.679,  1-sigma level  0.417
REM  exp_1050 in P4(2)/mmc
REM R1 =  0.2796 for    3077 Fo > 4sig(Fo)  and  0.3165 for all    4050 data
REM    107 parameters refined using     78 restraints
REM Highest difference peak 10.397,  deepest hole -4.756,  1-sigma level  0.408
REM  exp_1050 in P4(2)/mmc
REM R1 =  0.1294 for    3077 Fo > 4sig(Fo)  and  0.1555 for all    4050 data
REM    233 parameters refined using    254 restraints
REM Highest difference peak  3.110,  deepest hole -2.075,  1-sigma level  0.222
REM  exp_1050 in P4(2)/mmc
REM R1 =  0.1310 for    3077 Fo > 4sig(Fo)  and  0.1570 for all    4050 data
REM    221 parameters refined using    266 restraints
REM Highest difference peak  3.298,  deepest hole -2.148,  1-sigma level  0.230
TITL exp_1050 in P4(2)/mmc
CELL 1.54184 24.3097 24.3097 14.9770 90.000 90.000 90.000
ZERR 2.0000 0.0005 0.0005 0.0005 0.000 0.000 0.000
LATT 1
SYMM -Y, X, 0.5+Z
SYMM -X, -Y, Z
SYMM Y, -X, 0.5+Z
SYMM X, -Y, -Z
SYMM -X, Y, -Z
SYMM Y, X, 0.5-Z
SYMM -Y, -X, 0.5-Z
SFAC C F H O ZR
UNIT 152 48 60 68 12
MERG 2
FMAP 2
GRID
PLAN 5
TEMP -123
EQIV $1 1-X,Y,Z
EQIV $10 X, Y, 1-Z
EQIV $11 1-X, Y, 1-Z
EQIV $12 X, -Y, 1-Z
EQIV $13 1-X, -Y, Z
EQIV $14 1-X, -Y, 1-Z
FLAT 0.01 C4 C7 O1 O2
SADI C7 O1 C7 O2
FLAT 0.01 C1 C2 C3 C4 C5 C6 C7 C8 C8A
DFIX 1.39 0.01 C1 C2 C2 C3 C3 C4 C4 C5 C5 C6 C6 C1
DFIX 2.40 0.01 C1 C3 C2 C4 C3 C5 C4 C6 C5 C1 C6 C2
DFIX 2.80 0.01 C1 C4 C2 C5 C3 C6
DFIX 1.50 0.01 C2 C8 C6 C8A
SADI C1 C8 C3 C8 C1 C8A C5 C8A
DFIX 1.31 0.01 C8 F1 C8 F2 C8 F3 C8A F1A C8A F2A C8A F3A
DFIX 2.38 0.01 C2 F1 C2 F2 C2 F3 C6 F1A C6 F2A C6 F3A
SADI F1 F2 F2 F3 F3 F1 F1A F2A F2A F3A F3A F1A
DFIX 1.50 0.02 C9 C10
DFIX 1.29 0.01 C9 O3 C9 O4
FLAT 0.01 C11 C10 C12 C10_$13 C11_$13 O3 O4 C9
DFIX 1.39 0.01 C10 C11 C10 C12 C11 C11_$10 C12 C12_$10
DFIX 2.40 0.01 C11 C12 C10 C12_$12 C12 C10_$10
DFIX 2.40 0.01 C11 C10_$10
DFIX 2.80 0.01 C11 C12_$12 C10 C10_$10 C12 C11_$10
SADI C9 C11 C9 C12
DELU 0.01 C1 C2 C3 C4 C5 C6 C7 C8 C8A F1 F2 F3 F1A F2A F3A
SIMU 0.01 C1 C2 C3 C4 C5 C6 C7 C8 C8A F1 F2 F3 F1A F2A F3A
DELU 0.01 O5 O3 O4 C9 C10 C11 C12 ZR1
SIMU 0.01 O5 O3 O4 C9 C10 C11 C12 ZR1
ISOR 0.01 O5
DFIX 2.19 0.01 ZR1 O3 ZR O5
ABIN
L.S. 20
ACTA
WGHT    0.174900   67.534698
FVAR       2.41230   0.57458
ZR1   5    0.500000    0.072025    0.117539    10.50000    0.02909    0.07745 =
         0.07749   -0.05419    0.00000    0.00000
ZR2   5    0.399244    0.000000    0.000000    10.25000    0.02584    0.02873 =
         0.03178    0.00000    0.00000    0.00000
PART 1
F1    2    0.135023    0.155071    0.168301    21.00000    0.06435    0.26077 =
         0.33765   -0.14511   -0.00204    0.01432
F2    2    0.174010    0.127907    0.055393    21.00000    0.09500    0.21606 =
         0.29155   -0.12369   -0.03702    0.05689
F3    2    0.163784    0.210122    0.076492    21.00000    0.18044    0.22366 =
         0.31326   -0.10473   -0.04327    0.08729
PART 2
F1A   2    0.317118    0.289855    0.338131   -21.00000    0.20323    0.21185 =
         0.34814   -0.19533   -0.01378    0.00737
F2A   2    0.278874    0.236872    0.423921   -21.00000    0.17610    0.27628 =
         0.28434   -0.20635    0.02785    0.04304
F3A   2    0.359490    0.226056    0.392288   -21.00000    0.16353    0.27145 =
         0.28989   -0.21416   -0.01795    0.03917
PART 0
O1    4    0.416470    0.101540    0.164423    11.00000    0.04244    0.15353 =
         0.15875   -0.13111    0.00498    0.01021
O2    4    0.352179    0.054848    0.087294    11.00000    0.03754    0.06307 =
         0.06349   -0.02729    0.00418    0.00273
PART 1
O3    4    0.500000    0.092117    0.259159    10.25000    0.32625    0.31642 =
         0.07678   -0.02637    0.00000    0.00000
O4    4    0.500000    0.000000    0.272195    10.25000    0.33776    0.32377 =
         0.10721    0.00000    0.00000    0.00000
PART 2
O5    4    0.500000    0.063192    0.259211    10.25000    0.28756    0.27974 =
         0.09051   -0.02252    0.00000    0.00000
PART 0
O6    4    0.450353    0.072705    0.000000    10.50000    0.05823    0.14366 =
         0.04650    0.00000    0.00000   -0.05039
O7    4    0.449832    0.000000    0.116152    10.50000    0.05192    0.08158 =
         0.11329    0.00000   -0.04371    0.00000
O8    4    0.500000    0.162002    0.113299    10.50000    0.06079    0.06491 =
         0.28488   -0.08837    0.00000    0.00000
C1    1    0.244759    0.202064    0.237651    11.00000    0.07664    0.15752 =
         0.25742   -0.13685    0.03896    0.02191
C2    1    0.232833    0.167101    0.166040    11.00000    0.06311    0.15648 =
         0.25413   -0.12562    0.02295    0.03224
PART 2
AFIX  43
H2    3    0.197474    0.167668    0.139047   -21.00000   -1.20000
PART 0
AFIX   0
C3    1    0.273360    0.131413    0.134675    11.00000    0.04680    0.13098 =
         0.23480   -0.11641    0.02177    0.01168
AFIX  43
H3    3    0.265604    0.107688    0.085868    11.00000   -1.20000
AFIX   0
C4    1    0.324856    0.130326    0.174221    11.00000    0.04647    0.13151 =
         0.21316   -0.12413    0.02636    0.00741
C5    1    0.336720    0.165108    0.244581    11.00000    0.07295    0.16466 =
         0.24163   -0.14893    0.02291    0.01287
AFIX  43
H5    3    0.372234    0.164517    0.271031    11.00000   -1.20000
AFIX   0
C6    1    0.296394    0.201374    0.277154    11.00000    0.09500    0.17871 =
         0.26196   -0.16122    0.02667    0.02115
PART 1
AFIX  43
H6    3    0.304412    0.225182    0.325741    21.00000   -1.20000
PART 0
AFIX   0
C7    1    0.367477    0.092448    0.139045    11.00000    0.02982    0.12058 =
         0.18809   -0.10451    0.01861    0.00690
PART 1
C8    1    0.178080    0.165278    0.119227    21.00000    0.08365    0.19528 =
         0.28424   -0.12353   -0.00641    0.05631
C9    1    0.500000    0.048470    0.306958    10.25000    0.34497    0.32413 =
         0.09941   -0.00898    0.00000    0.00000
PART 0
C10   1    0.500000    0.049511    0.407103    10.50000    0.38249    0.33542 =
         0.10371   -0.00649    0.00000    0.00000
PART 3
AFIX  43
H10   3    0.500000    0.049428    0.343672    10.25000   -1.20000
PART 0
AFIX   0
C11   1    0.500000    0.099106    0.453286    10.50000    0.39675    0.34199 =
         0.11267   -0.01657    0.00000    0.00000
AFIX  43
H11   3    0.500000    0.132923    0.421495    10.50000   -1.20000
AFIX   0
C12   1    0.500000    0.000000    0.453658    10.25000    0.39237    0.34099 =
         0.10616    0.00000    0.00000    0.00000
PART 2
C8A   1    0.311715    0.237709    0.354567   -21.00000    0.13485    0.21218 =
         0.28504   -0.18635    0.01634    0.03053
HKLF 4

REM  exp_1050 in P4(2)/mmc
REM R1 =  0.1056 for    3077 Fo > 4sig(Fo)  and  0.1261 for all    4050 data
REM    221 parameters refined using    276 restraints

END

WGHT      0.1749     67.5162

REM Highest difference peak  1.941,  deepest hole -1.859,  1-sigma level  0.156
Q1    1   0.5000  0.0576  0.1307  10.50000  0.05    0.97
Q2    1   0.5000  0.0402  0.1184  10.50000  0.05    0.88
Q3    1   0.4311  0.0446  0.0000  10.50000  0.05    0.83
Q4    1   0.3780  0.0508  0.0000  10.50000  0.05    0.82
Q5    1   0.5000  0.0829  0.1024  10.50000  0.05    0.80
;
_shelx_res_checksum              81558
_shelx_fab_file
;
    0    0    2     88.04      0.00
    0    0   10      0.84      0.00
    0    0   12     -9.52      0.00
    0    0   14    -19.13      0.00
    0    1    2     -4.21      0.00
    0    1    3     71.26      0.00
    0    1    4    -23.71      0.00
    0    1    9     -3.75      0.00
    0    1   10     15.14      0.00
    0    1   11     -6.71      0.00
    0    1   12     -0.42      0.00
    0    1   13      0.65      0.00
    0    1   14      9.80      0.00
    0    1   15    -16.90      0.00
    0    1   16     23.81      0.00
    1    1    2      3.50      0.00
    1    1    4      7.33      0.00
    1    1    8     -1.77      0.00
    1    1   10     -4.42      0.00
    1    1   12      7.58      0.00
    1    1   14      7.37      0.00
    1    1   16     -0.99      0.00
    0    2    0    115.34      0.00
    0    2    1   -108.55      0.00
    0    2    2    -56.36      0.00
    0    2    3      3.14      0.00
    0    2    4    -20.52      0.00
    0    2    5    -16.42      0.00
    0    2    8     -5.60      0.00
    0    2    9      8.55      0.00
    0    2   10     11.45      0.00
    0    2   11     -0.44      0.00
    0    2   12      4.37      0.00
    0    2   13      4.27      0.00
    0    2   14     20.66      0.00
    0    2   15     16.25      0.00
    0    2   16      8.57      0.00
    0    2   17     -1.57      0.00
    1    2    0     32.12      0.00
    1    2    1     45.68      0.00
    1    2    2     21.83      0.00
    1    2    3     14.30      0.00
    1    2    4     17.75      0.00
    1    2    5     10.48      0.00
    1    2    6     -0.69      0.00
    1    2    8      9.56      0.00
    1    2    9     -0.95      0.00
    1    2   10     -4.24      0.00
    1    2   11     -4.44      0.00
    1    2   12     -1.74      0.00
    1    2   13      6.29      0.00
    1    2   14     -2.87      0.00
    1    2   15      0.38      0.00
    1    2   16    -13.71      0.00
    1    2   17     -4.19      0.00
    2    2    2     36.68      0.00
    2    2    4      8.21      0.00
    2    2    6     -2.48      0.00
    2    2    8      9.35      0.00
    2    2   10     -0.97      0.00
    2    2   12     -9.79      0.00
    2    2   14     21.56      0.00
    2    2   16     -4.76      0.00
    0    3    0    149.92      0.00
    0    3    1    -13.00      0.00
    0    3    2     -7.08      0.00
    0    3    3     -6.66      0.00
    0    3    4      5.53      0.00
    0    3    5    -23.54      0.00
    0    3    6     -1.97      0.00
    0    3    8    -14.16      0.00
    0    3    9     -0.72      0.00
    0    3   10      1.90      0.00
    0    3   11     10.86      0.00
    0    3   12      2.19      0.00
    0    3   13     18.40      0.00
    0    3   14      7.60      0.00
    0    3   15     13.80      0.00
    0    3   16      4.09      0.00
    0    3   17      4.46      0.00
    1    3    0     62.51      0.00
    1    3    1     47.61      0.00
    1    3    2     31.51      0.00
    1    3    3    -11.84      0.00
    1    3    4      3.13      0.00
    1    3    5     10.04      0.00
    1    3    6     -6.12      0.00
    1    3    7     -8.39      0.00
    1    3    8      1.15      0.00
    1    3    9    -14.01      0.00
    1    3   10     -0.69      0.00
    1    3   11      2.35      0.00
    1    3   12     -0.37      0.00
    1    3   13     -1.28      0.00
    1    3   14      6.48      0.00
    1    3   15      2.38      0.00
    1    3   16     -4.88      0.00
    1    3   17     -8.25      0.00
    2    3    0     -9.37      0.00
    2    3    1     14.40      0.00
    2    3    2    -52.46      0.00
    2    3    3    -13.17      0.00
    2    3    4    -22.87      0.00
    2    3    5      6.58      0.00
    2    3    6     -1.83      0.00
    2    3    7     -6.96      0.00
    2    3    8     -5.76      0.00
    2    3    9     -2.56      0.00
    2    3   10      4.38      0.00
    2    3   11     -5.40      0.00
    2    3   12      5.40      0.00
    2    3   13     -0.04      0.00
    2    3   14      3.59      0.00
    2    3   15     -6.46      0.00
    2    3   16     -3.35      0.00
    2    3   17      5.97      0.00
    3    3    2    -46.49      0.00
    3    3    4      3.87      0.00
    3    3    6     -1.55      0.00
    3    3    8     -3.53      0.00
    3    3   10      1.32      0.00
    3    3   12      0.76      0.00
    3    3   14      4.71      0.00
    3    3   16     -9.01      0.00
    0    4    0     48.59      0.00
    0    4    1     67.86      0.00
    0    4    2    -22.07      0.00
    0    4    3     57.02      0.00
    0    4    4     -5.46      0.00
    0    4    5     -3.26      0.00
    0    4    6     -1.78      0.00
    0    4    8     -6.04      0.00
    0    4    9    -20.34      0.00
    0    4   10     -2.01      0.00
    0    4   11     -3.29      0.00
    0    4   12      8.98      0.00
    0    4   13     -4.56      0.00
    0    4   14      3.43      0.00
    0    4   15    -16.00      0.00
    0    4   16     -3.81      0.00
    0    4   17     -3.63      0.00
    1    4    0    -38.79      0.00
    1    4    1    -57.77      0.00
    1    4    2     -0.88      0.00
    1    4    3    -11.48      0.00
    1    4    4     -7.96      0.00
    1    4    5      3.93      0.00
    1    4    6     -3.67      0.00
    1    4    7      3.09      0.00
    1    4    8      5.38      0.00
    1    4    9      5.83      0.00
    1    4   10     -3.47      0.00
    1    4   11      6.69      0.00
    1    4   12      4.48      0.00
    1    4   13    -12.82      0.00
    1    4   14     -2.50      0.00
    1    4   15     -7.73      0.00
    1    4   16      2.78      0.00
    1    4   17     -2.02      0.00
    2    4    0     14.01      0.00
    2    4    1    -56.21      0.00
    2    4    2     29.46      0.00
    2    4    3    -14.50      0.00
    2    4    4      3.13      0.00
    2    4    5     -6.25      0.00
    2    4    6      3.79      0.00
    2    4    7      4.39      0.00
    2    4    8      3.62      0.00
    2    4    9    -19.57      0.00
    2    4   10     -1.39      0.00
    2    4   11      2.08      0.00
    2    4   12      5.87      0.00
    2    4   13     -1.25      0.00
    2    4   14     -3.38      0.00
    2    4   15     -5.42      0.00
    2    4   16    -12.31      0.00
    2    4   17     -3.30      0.00
    3    4    0    -10.52      0.00
    3    4    1     -0.91      0.00
    3    4    2     14.32      0.00
    3    4    3     26.54      0.00
    3    4    4      7.60      0.00
    3    4    5    -12.79      0.00
    3    4    6      4.11      0.00
    3    4    7      3.56      0.00
    3    4    8      4.09      0.00
    3    4    9     -5.94      0.00
    3    4   10    -13.78      0.00
    3    4   11      1.27      0.00
    3    4   12     -7.79      0.00
    3    4   13     -6.01      0.00
    3    4   14     -7.35      0.00
    3    4   15     -2.46      0.00
    3    4   16    -11.02      0.00
    3    4   17      1.42      0.00
    4    4    0    -21.98      0.00
    4    4    2     -5.14      0.00
    4    4    4    -12.05      0.00
    4    4    6     -0.84      0.00
    4    4    8     -1.28      0.00
    4    4   10     -4.21      0.00
    4    4   12      5.37      0.00
    4    4   14     -6.12      0.00
    4    4   16     11.30      0.00
    0    5    0     77.53      0.00
    0    5    1     -0.35      0.00
    0    5    2     -6.94      0.00
    0    5    3      4.50      0.00
    0    5    4     23.31      0.00
    0    5    5     -3.80      0.00
    0    5    6     13.57      0.00
    0    5    7     -0.84      0.00
    0    5    8      5.47      0.00
    0    5    9     -0.66      0.00
    0    5   10      1.27      0.00
    0    5   11      3.09      0.00
    0    5   12     -8.47      0.00
    0    5   13    -15.60      0.00
    0    5   14     -4.56      0.00
    0    5   15      8.74      0.00
    0    5   16     -8.21      0.00
    0    5   17     -5.71      0.00
    1    5    0     -7.48      0.00
    1    5    1    -18.40      0.00
    1    5    2      7.49      0.00
    1    5    3    -13.23      0.00
    1    5    4    -11.11      0.00
    1    5    5     10.11      0.00
    1    5    6     -2.69      0.00
    1    5    7     -5.76      0.00
    1    5    8      0.69      0.00
    1    5    9     -0.64      0.00
    1    5   10     -1.72      0.00
    1    5   11     -2.68      0.00
    1    5   12     12.81      0.00
    1    5   13      3.10      0.00
    1    5   14     22.80      0.00
    1    5   15      5.07      0.00
    1    5   16      9.86      0.00
    1    5   17      7.31      0.00
    2    5    0      9.23      0.00
    2    5    1      4.44      0.00
    2    5    2     -1.79      0.00
    2    5    3      6.40      0.00
    2    5    4     -1.67      0.00
    2    5    5     14.37      0.00
    2    5    6     -2.31      0.00
    2    5    7      4.44      0.00
    2    5    8     -3.27      0.00
    2    5    9      5.24      0.00
    2    5   10      2.62      0.00
    2    5   11     -0.15      0.00
    2    5   12     -8.90      0.00
    2    5   13     -1.88      0.00
    2    5   14      5.16      0.00
    2    5   15     -7.62      0.00
    2    5   16      5.89      0.00
    2    5   17     -6.85      0.00
    3    5    0     -9.91      0.00
    3    5    1     13.31      0.00
    3    5    2    -37.64      0.00
    3    5    3      3.21      0.00
    3    5    4     -2.80      0.00
    3    5    5      5.39      0.00
    3    5    6      1.42      0.00
    3    5    7     -0.19      0.00
    3    5    8     -1.38      0.00
    3    5    9      9.38      0.00
    3    5   10      4.05      0.00
    3    5   11      1.13      0.00
    3    5   12     -1.94      0.00
    3    5   13     -7.56      0.00
    3    5   14     -0.60      0.00
    3    5   15     -0.47      0.00
    3    5   16      1.45      0.00
    3    5   17     -0.13      0.00
    4    5    0     25.87      0.00
    4    5    1      6.15      0.00
    4    5    2      4.07      0.00
    4    5    3     -7.64      0.00
    4    5    4     -1.23      0.00
    4    5    5      5.00      0.00
    4    5    6     -2.74      0.00
    4    5    7     -9.31      0.00
    4    5    8     -0.85      0.00
    4    5    9      3.63      0.00
    4    5   10     -3.20      0.00
    4    5   11      1.93      0.00
    4    5   12      4.70      0.00
    4    5   13     -4.02      0.00
    4    5   14     19.91      0.00
    4    5   15      3.86      0.00
    4    5   16     -4.13      0.00
    4    5   17     -3.70      0.00
    5    5    0     19.72      0.00
    5    5    2     23.50      0.00
    5    5    4     -5.88      0.00
    5    5    6     -3.46      0.00
    5    5    8     -1.94      0.00
    5    5   10      7.21      0.00
    5    5   12    -10.12      0.00
    5    5   14     -0.91      0.00
    5    5   16     -3.89      0.00
    0    6    0    -42.15      0.00
    0    6    1     -1.11      0.00
    0    6    2    -15.26      0.00
    0    6    3     21.55      0.00
    0    6    4      8.77      0.00
    0    6    5    -13.79      0.00
    0    6    6    -10.26      0.00
    0    6    7      6.82      0.00
    0    6    8      2.76      0.00
    0    6    9      6.50      0.00
    0    6   10      0.23      0.00
    0    6   11      8.10      0.00
    0    6   12     18.36      0.00
    0    6   13      3.63      0.00
    0    6   14     23.87      0.00
    0    6   15      2.52      0.00
    0    6   16      2.49      0.00
    0    6   17      5.73      0.00
    1    6    0      8.00      0.00
    1    6    1     15.19      0.00
    1    6    2      0.55      0.00
    1    6    3     -2.27      0.00
    1    6    4    -16.64      0.00
    1    6    5      2.22      0.00
    1    6    6     -4.68      0.00
    1    6    7     -5.94      0.00
    1    6    8     -4.05      0.00
    1    6    9      2.23      0.00
    1    6   10      1.69      0.00
    1    6   11      0.58      0.00
    1    6   12      6.05      0.00
    1    6   13     29.83      0.00
    1    6   14      4.75      0.00
    1    6   15    -10.18      0.00
    1    6   16      4.79      0.00
    1    6   17     -5.03      0.00
    2    6    0    -34.64      0.00
    2    6    1    -24.96      0.00
    2    6    2    -15.15      0.00
    2    6    3     19.91      0.00
    2    6    4     -9.98      0.00
    2    6    5     -6.68      0.00
    2    6    6     -3.49      0.00
    2    6    7      2.72      0.00
    2    6    8      5.08      0.00
    2    6    9     -0.87      0.00
    2    6   10      1.86      0.00
    2    6   11     -4.91      0.00
    2    6   12     11.54      0.00
    2    6   13      0.50      0.00
    2    6   14      1.17      0.00
    2    6   15      0.99      0.00
    2    6   16     -6.53      0.00
    2    6   17      4.44      0.00
    3    6    0     -1.96      0.00
    3    6    1    -20.86      0.00
    3    6    2      2.84      0.00
    3    6    3    -14.53      0.00
    3    6    4      2.65      0.00
    3    6    5    -12.39      0.00
    3    6    6      2.54      0.00
    3    6    7      1.22      0.00
    3    6    8      5.92      0.00
    3    6    9      0.35      0.00
    3    6   10     -1.56      0.00
    3    6   11      2.68      0.00
    3    6   12      3.21      0.00
    3    6   13      9.21      0.00
    3    6   14      3.52      0.00
    3    6   15     -0.32      0.00
    3    6   16     -1.12      0.00
    3    6   17      0.90      0.00
    4    6    0    -19.31      0.00
    4    6    1     -7.09      0.00
    4    6    2     -6.28      0.00
    4    6    3     -4.79      0.00
    4    6    4    -12.53      0.00
    4    6    5     -7.84      0.00
    4    6    6     -4.76      0.00
    4    6    7      3.26      0.00
    4    6    8      1.74      0.00
    4    6    9      7.21      0.00
    4    6   10     -4.28      0.00
    4    6   11     -4.98      0.00
    4    6   12     -8.75      0.00
    4    6   13     16.96      0.00
    4    6   14     -3.58      0.00
    4    6   15     -4.52      0.00
    4    6   16      8.34      0.00
    4    6   17      3.13      0.00
    5    6    0     -3.94      0.00
    5    6    1     31.63      0.00
    5    6    2    -13.90      0.00
    5    6    3     17.49      0.00
    5    6    4     -3.29      0.00
    5    6    5      4.46      0.00
    5    6    6     -0.34      0.00
    5    6    7      8.79      0.00
    5    6    8     -1.69      0.00
    5    6    9     -3.07      0.00
    5    6   10     -1.49      0.00
    5    6   11     -5.01      0.00
    5    6   12     -7.54      0.00
    5    6   13     -7.94      0.00
    5    6   14      6.70      0.00
    5    6   15     -0.33      0.00
    5    6   16     -1.62      0.00
    6    6    0    -11.02      0.00
    6    6    2      7.87      0.00
    6    6    4     -6.63      0.00
    6    6    6     -0.81      0.00
    6    6    8      0.16      0.00
    6    6   10     -6.45      0.00
    6    6   12    -11.54      0.00
    6    6   14      1.33      0.00
    6    6   16      1.89      0.00
    0    7    0     30.31      0.00
    0    7    1     13.01      0.00
    0    7    2    -11.22      0.00
    0    7    3     -6.82      0.00
    0    7    4     -4.57      0.00
    0    7    5    -12.47      0.00
    0    7    6      4.68      0.00
    0    7    7      8.50      0.00
    0    7    8     -1.10      0.00
    0    7    9      0.56      0.00
    0    7   10      6.91      0.00
    0    7   11      5.37      0.00
    0    7   12      6.16      0.00
    0    7   13     22.69      0.00
    0    7   14      3.18      0.00
    0    7   15      1.15      0.00
    0    7   16     -4.76      0.00
    0    7   17      5.83      0.00
    1    7    0     -5.33      0.00
    1    7    1      4.04      0.00
    1    7    2      3.98      0.00
    1    7    3      1.36      0.00
    1    7    4    -12.50      0.00
    1    7    5      6.43      0.00
    1    7    6      4.97      0.00
    1    7    7      1.69      0.00
    1    7    8      4.90      0.00
    1    7    9     -0.02      0.00
    1    7   10      1.16      0.00
    1    7   11      1.76      0.00
    1    7   12      9.50      0.00
    1    7   13     -4.02      0.00
    1    7   14     -8.99      0.00
    1    7   15     -4.43      0.00
    1    7   16     -0.40      0.00
    1    7   17     -3.19      0.00
    2    7    0    -14.36      0.00
    2    7    1      0.84      0.00
    2    7    2     -5.34      0.00
    2    7    3     -6.45      0.00
    2    7    4    -10.05      0.00
    2    7    5      0.96      0.00
    2    7    6      8.25      0.00
    2    7    7      2.09      0.00
    2    7    8     -1.09      0.00
    2    7    9      3.16      0.00
    2    7   10      7.40      0.00
    2    7   11      1.22      0.00
    2    7   12     -1.21      0.00
    2    7   13     14.30      0.00
    2    7   14     -3.47      0.00
    2    7   15     -7.31      0.00
    2    7   16      0.99      0.00
    2    7   17      5.02      0.00
    3    7    0     10.50      0.00
    3    7    1     11.48      0.00
    3    7    2    -20.14      0.00
    3    7    3      3.62      0.00
    3    7    4      4.69      0.00
    3    7    5      0.81      0.00
    3    7    6      2.09      0.00
    3    7    7      3.54      0.00
    3    7    8     -3.39      0.00
    3    7    9     -4.98      0.00
    3    7   10      0.80      0.00
    3    7   11      2.78      0.00
    3    7   12     -3.83      0.00
    3    7   13      7.56      0.00
    3    7   14    -10.74      0.00
    3    7   15      0.42      0.00
    3    7   16     -3.09      0.00
    3    7   17     -6.18      0.00
    4    7    0      3.49      0.00
    4    7    1      5.40      0.00
    4    7    2      8.24      0.00
    4    7    3     -4.53      0.00
    4    7    4     -7.63      0.00
    4    7    5      5.19      0.00
    4    7    6      5.73      0.00
    4    7    7     -0.88      0.00
    4    7    8     -0.97      0.00
    4    7    9      1.77      0.00
    4    7   10      1.60      0.00
    4    7   11      0.20      0.00
    4    7   12      8.97      0.00
    4    7   13     -5.83      0.00
    4    7   14     -5.62      0.00
    4    7   15     -3.31      0.00
    4    7   16      4.16      0.00
    5    7    0     10.22      0.00
    5    7    1     -8.23      0.00
    5    7    2     -4.09      0.00
    5    7    3     -1.58      0.00
    5    7    4     -0.54      0.00
    5    7    5     -0.73      0.00
    5    7    6      1.70      0.00
    5    7    7      1.43      0.00
    5    7    8     -4.07      0.00
    5    7    9     -4.45      0.00
    5    7   10      1.15      0.00
    5    7   11      1.73      0.00
    5    7   12     -6.39      0.00
    5    7   13      8.20      0.00
    5    7   14      5.38      0.00
    5    7   15      0.00      0.00
    5    7   16     -5.29      0.00
    6    7    0     -6.09      0.00
    6    7    1     17.99      0.00
    6    7    2      9.38      0.00
    6    7    3      0.68      0.00
    6    7    4     -2.30      0.00
    6    7    5      7.60      0.00
    6    7    6     -2.45      0.00
    6    7    7     -3.07      0.00
    6    7    8      0.76      0.00
    6    7    9     -2.57      0.00
    6    7   10      1.28      0.00
    6    7   11      4.21      0.00
    6    7   12     -2.19      0.00
    6    7   13      0.36      0.00
    6    7   14     -6.80      0.00
    6    7   15      1.83      0.00
    6    7   16      5.09      0.00
    7    7    0    -17.57      0.00
    7    7    2    -19.65      0.00
    7    7    4     -0.14      0.00
    7    7    6      6.33      0.00
    7    7    8     -0.44      0.00
    7    7   10      1.51      0.00
    7    7   12     -3.20      0.00
    7    7   14     -3.95      0.00
    7    7   16      2.70      0.00
    0    8    0     12.46      0.00
    0    8    1      1.58      0.00
    0    8    2    -10.83      0.00
    0    8    3    -12.16      0.00
    0    8    4      6.81      0.00
    0    8    5      1.72      0.00
    0    8    6     -0.01      0.00
    0    8    7     -6.55      0.00
    0    8    8     -3.22      0.00
    0    8    9     -6.48      0.00
    0    8   10      3.44      0.00
    0    8   11     -1.51      0.00
    0    8   12      1.32      0.00
    0    8   13     -2.17      0.00
    0    8   14      7.09      0.00
    0    8   15      8.67      0.00
    0    8   16      1.29      0.00
    1    8    0      1.95      0.00
    1    8    1     -0.02      0.00
    1    8    2      0.89      0.00
    1    8    3      2.27      0.00
    1    8    4     12.92      0.00
    1    8    5      5.97      0.00
    1    8    6     -0.15      0.00
    1    8    7     -3.43      0.00
    1    8    8      1.72      0.00
    1    8    9      2.59      0.00
    1    8   10     -2.35      0.00
    1    8   11     -1.93      0.00
    1    8   12     -5.93      0.00
    1    8   13     -3.33      0.00
    1    8   14     -1.69      0.00
    1    8   15      3.26      0.00
    1    8   16      2.15      0.00
    2    8    0     -0.80      0.00
    2    8    1    -10.57      0.00
    2    8    2    -10.88      0.00
    2    8    3     -1.12      0.00
    2    8    4     -4.13      0.00
    2    8    5      5.98      0.00
    2    8    6     -0.15      0.00
    2    8    7     -0.55      0.00
    2    8    8     -7.32      0.00
    2    8    9      1.67      0.00
    2    8   10     -2.65      0.00
    2    8   11     -1.27      0.00
    2    8   12     -2.54      0.00
    2    8   13      2.94      0.00
    2    8   14     -5.37      0.00
    2    8   15      2.24      0.00
    2    8   16     -2.49      0.00
    3    8    0      1.73      0.00
    3    8    1     -7.47      0.00
    3    8    2     -5.80      0.00
    3    8    3      2.66      0.00
    3    8    4      5.27      0.00
    3    8    5     -0.61      0.00
    3    8    6     -9.45      0.00
    3    8    7     -1.54      0.00
    3    8    8      2.93      0.00
    3    8    9      0.10      0.00
    3    8   10      3.13      0.00
    3    8   11      0.27      0.00
    3    8   12      5.44      0.00
    3    8   13    -10.02      0.00
    3    8   14     -1.33      0.00
    3    8   15      3.78      0.00
    3    8   16      0.66      0.00
    4    8    0     17.60      0.00
    4    8    1     16.41      0.00
    4    8    2     -3.65      0.00
    4    8    3      1.84      0.00
    4    8    4      5.51      0.00
    4    8    5      6.69      0.00
    4    8    6      3.74      0.00
    4    8    7     -7.29      0.00
    4    8    8      3.10      0.00
    4    8    9      1.55      0.00
    4    8   10      2.12      0.00
    4    8   11     -3.47      0.00
    4    8   12     -3.57      0.00
    4    8   13      6.65      0.00
    4    8   14      1.72      0.00
    4    8   15     -3.61      0.00
    4    8   16      2.71      0.00
    5    8    0     -4.51      0.00
    5    8    1     -7.37      0.00
    5    8    2    -10.95      0.00
    5    8    3     -2.84      0.00
    5    8    4      3.16      0.00
    5    8    5     -8.51      0.00
    5    8    6     -4.47      0.00
    5    8    7     -2.28      0.00
    5    8    8     -3.89      0.00
    5    8    9     -0.03      0.00
    5    8   10     -0.51      0.00
    5    8   11      4.37      0.00
    5    8   12     -0.42      0.00
    5    8   13     -1.66      0.00
    5    8   14      3.88      0.00
    5    8   15      4.99      0.00
    5    8   16     -3.02      0.00
    6    8    0      6.78      0.00
    6    8    1     -4.93      0.00
    6    8    2      7.72      0.00
    6    8    3    -10.79      0.00
    6    8    4      3.55      0.00
    6    8    5      5.91      0.00
    6    8    6     -1.86      0.00
    6    8    7     -4.51      0.00
    6    8    8      1.75      0.00
    6    8    9      3.24      0.00
    6    8   10     -0.42      0.00
    6    8   11      1.41      0.00
    6    8   12     -3.31      0.00
    6    8   13     -2.08      0.00
    6    8   14      0.65      0.00
    6    8   15      0.85      0.00
    6    8   16     -2.24      0.00
    7    8    0      7.43      0.00
    7    8    1      0.54      0.00
    7    8    2      1.53      0.00
    7    8    3      9.32      0.00
    7    8    4     -0.61      0.00
    7    8    5      2.40      0.00
    7    8    6     -3.60      0.00
    7    8    7     -3.06      0.00
    7    8    8     -2.17      0.00
    7    8    9      1.27      0.00
    7    8   10      1.30      0.00
    7    8   11     -0.63      0.00
    7    8   12      3.47      0.00
    7    8   13      0.75      0.00
    7    8   14      1.34      0.00
    7    8   15     -0.76      0.00
    7    8   16     -1.37      0.00
    8    8    0    -17.08      0.00
    8    8    2    -12.24      0.00
    8    8    4      5.81      0.00
    8    8    6     -0.24      0.00
    8    8    8      2.23      0.00
    8    8   10     -1.83      0.00
    8    8   12      1.09      0.00
    8    8   14      5.79      0.00
    8    8   16     -1.35      0.00
    0    9    0     -1.41      0.00
    0    9    1      9.67      0.00
    0    9    2     -2.50      0.00
    0    9    3     15.58      0.00
    0    9    4     -5.24      0.00
    0    9    5      2.39      0.00
    0    9    6    -12.83      0.00
    0    9    7     12.61      0.00
    0    9    8      0.32      0.00
    0    9    9     -1.73      0.00
    0    9   10     -3.58      0.00
    0    9   11      4.08      0.00
    0    9   12      3.20      0.00
    0    9   13     -4.46      0.00
    0    9   14      2.07      0.00
    0    9   15      0.50      0.00
    0    9   16      0.00      0.00
    1    9    0    -10.84      0.00
    1    9    1     -5.46      0.00
    1    9    2     10.03      0.00
    1    9    3      5.36      0.00
    1    9    4     -1.19      0.00
    1    9    5     -8.07      0.00
    1    9    6      1.73      0.00
    1    9    7      1.44      0.00
    1    9    8     -1.18      0.00
    1    9    9      2.75      0.00
    1    9   10     -3.44      0.00
    1    9   11     -3.69      0.00
    1    9   12      1.50      0.00
    1    9   13      5.97      0.00
    1    9   14      2.32      0.00
    1    9   15     -1.20      0.00
    1    9   16      0.33      0.00
    2    9    0     -5.27      0.00
    2    9    1     -4.44      0.00
    2    9    2     15.43      0.00
    2    9    3     -3.61      0.00
    2    9    4      6.83      0.00
    2    9    5     -7.68      0.00
    2    9    6      3.38      0.00
    2    9    7     -5.00      0.00
    2    9    8      1.25      0.00
    2    9    9     -4.12      0.00
    2    9   10     -2.07      0.00
    2    9   11      1.26      0.00
    2    9   12      2.28      0.00
    2    9   13     -7.16      0.00
    2    9   14      2.79      0.00
    2    9   15     -0.86      0.00
    2    9   16     -0.01      0.00
    3    9    0     -7.83      0.00
    3    9    1    -16.52      0.00
    3    9    2     -2.69      0.00
    3    9    3      0.56      0.00
    3    9    4     -1.41      0.00
    3    9    5     -6.74      0.00
    3    9    6      0.27      0.00
    3    9    7      7.36      0.00
    3    9    8      1.99      0.00
    3    9    9      2.88      0.00
    3    9   10      2.13      0.00
    3    9   11     -1.18      0.00
    3    9   12     -0.73      0.00
    3    9   13      2.62      0.00
    3    9   14      2.00      0.00
    3    9   15      2.60      0.00
    3    9   16      0.57      0.00
    4    9    0     12.85      0.00
    4    9    1     -3.50      0.00
    4    9    2     12.30      0.00
    4    9    3      9.81      0.00
    4    9    4     -3.20      0.00
    4    9    5     -2.20      0.00
    4    9    6     -1.06      0.00
    4    9    7      3.50      0.00
    4    9    8     -2.58      0.00
    4    9    9      1.17      0.00
    4    9   10     -3.52      0.00
    4    9   11     -1.46      0.00
    4    9   12      2.12      0.00
    4    9   13      6.35      0.00
    4    9   14     -1.25      0.00
    4    9   15      1.01      0.00
    4    9   16      3.70      0.00
    5    9    0     -3.46      0.00
    5    9    1      8.46      0.00
    5    9    2      0.10      0.00
    5    9    3      5.99      0.00
    5    9    4     -7.33      0.00
    5    9    5     -4.24      0.00
    5    9    6      1.07      0.00
    5    9    7      2.76      0.00
    5    9    8     -0.41      0.00
    5    9    9     -2.12      0.00
    5    9   10     -4.92      0.00
    5    9   11      2.15      0.00
    5    9   12     -2.58      0.00
    5    9   13     -3.88      0.00
    5    9   14      7.60      0.00
    5    9   15     -1.20      0.00
    5    9   16     -1.29      0.00
    6    9    0    -19.67      0.00
    6    9    1      1.15      0.00
    6    9    2     -2.99      0.00
    6    9    3      2.32      0.00
    6    9    4     -0.23      0.00
    6    9    5      1.67      0.00
    6    9    6      0.91      0.00
    6    9    7      0.43      0.00
    6    9    8      1.34      0.00
    6    9    9     -0.66      0.00
    6    9   10     -0.60      0.00
    6    9   11     -3.45      0.00
    6    9   12      2.78      0.00
    6    9   13     -4.02      0.00
    6    9   14      0.38      0.00
    6    9   15     -1.61      0.00
    6    9   16      4.56      0.00
    7    9    0      9.40      0.00
    7    9    1     -4.97      0.00
    7    9    2     10.97      0.00
    7    9    3      3.64      0.00
    7    9    4      1.27      0.00
    7    9    5     -7.51      0.00
    7    9    6      1.80      0.00
    7    9    7      1.50      0.00
    7    9    8     -0.21      0.00
    7    9    9     -0.21      0.00
    7    9   10     -2.68      0.00
    7    9   11      2.71      0.00
    7    9   12     -0.16      0.00
    7    9   13     -0.49      0.00
    7    9   14     -0.04      0.00
    7    9   15     -3.43      0.00
    7    9   16      0.30      0.00
    8    9    0      3.16      0.00
    8    9    1    -13.06      0.00
    8    9    2      1.09      0.00
    8    9    3     -3.19      0.00
    8    9    4      2.06      0.00
    8    9    5     -2.93      0.00
    8    9    6      2.24      0.00
    8    9    7     -0.10      0.00
    8    9    8     -1.61      0.00
    8    9    9      0.30      0.00
    8    9   10     -1.18      0.00
    8    9   11      5.20      0.00
    8    9   12      7.42      0.00
    8    9   13      1.47      0.00
    8    9   14      0.91      0.00
    8    9   15      0.63      0.00
    8    9   16      2.68      0.00
    9    9    0     -6.92      0.00
    9    9    2     -1.42      0.00
    9    9    4     -4.85      0.00
    9    9    6      0.17      0.00
    9    9    8     -3.69      0.00
    9    9   10      4.83      0.00
    9    9   12      1.31      0.00
    9    9   14     -2.63      0.00
    0   10    0     29.22      0.00
    0   10    1      2.15      0.00
    0   10    2      1.67      0.00
    0   10    3     -7.82      0.00
    0   10    4      5.18      0.00
    0   10    5     -5.97      0.00
    0   10    6      0.56      0.00
    0   10    7      4.01      0.00
    0   10    8      2.05      0.00
    0   10    9      0.47      0.00
    0   10   10      0.77      0.00
    0   10   11     -0.21      0.00
    0   10   12     -3.92      0.00
    0   10   13      0.58      0.00
    0   10   14     -0.14      0.00
    0   10   15      0.47      0.00
    0   10   16     -3.72      0.00
    1   10    0     17.58      0.00
    1   10    1      9.82      0.00
    1   10    2     11.97      0.00
    1   10    3    -15.80      0.00
    1   10    4     -9.19      0.00
    1   10    5      2.52      0.00
    1   10    6      5.11      0.00
    1   10    7     -2.65      0.00
    1   10    8     -1.58      0.00
    1   10    9      1.94      0.00
    1   10   10     -0.88      0.00
    1   10   11      0.75      0.00
    1   10   12      4.05      0.00
    1   10   13      6.08      0.00
    1   10   14      2.74      0.00
    1   10   15      0.33      0.00
    1   10   16      4.47      0.00
    2   10    0     -4.23      0.00
    2   10    1      2.29      0.00
    2   10    2     -3.04      0.00
    2   10    3      7.71      0.00
    2   10    4     -6.50      0.00
    2   10    5      0.83      0.00
    2   10    6     -0.52      0.00
    2   10    7      2.85      0.00
    2   10    8     -2.02      0.00
    2   10    9      3.46      0.00
    2   10   10      1.22      0.00
    2   10   11     -2.12      0.00
    2   10   12     -2.43      0.00
    2   10   13      1.25      0.00
    2   10   14     -2.45      0.00
    2   10   15     -3.34      0.00
    2   10   16     -4.32      0.00
    3   10    0      1.42      0.00
    3   10    1     12.77      0.00
    3   10    2      4.92      0.00
    3   10    3     -3.92      0.00
    3   10    4     -1.19      0.00
    3   10    5      4.03      0.00
    3   10    6      2.53      0.00
    3   10    7     -0.99      0.00
    3   10    8     -3.62      0.00
    3   10    9     -1.82      0.00
    3   10   10      1.20      0.00
    3   10   11      1.18      0.00
    3   10   12      6.16      0.00
    3   10   13      5.61      0.00
    3   10   14     -0.30      0.00
    3   10   15     -4.59      0.00
    3   10   16     -1.82      0.00
    4   10    0      7.21      0.00
    4   10    1     -8.10      0.00
    4   10    2      1.34      0.00
    4   10    3     -2.71      0.00
    4   10    4      1.26      0.00
    4   10    5      0.21      0.00
    4   10    6      3.19      0.00
    4   10    7     -3.22      0.00
    4   10    8     -1.52      0.00
    4   10    9      0.52      0.00
    4   10   10     -1.56      0.00
    4   10   11     -1.33      0.00
    4   10   12      2.99      0.00
    4   10   13      2.70      0.00
    4   10   14     -1.24      0.00
    4   10   15     -1.67      0.00
    4   10   16      4.81      0.00
    5   10    0     23.83      0.00
    5   10    1     -2.45      0.00
    5   10    2      8.24      0.00
    5   10    3      0.12      0.00
    5   10    4      3.97      0.00
    5   10    5      2.60      0.00
    5   10    6      2.75      0.00
    5   10    7     -1.53      0.00
    5   10    8     -1.99      0.00
    5   10    9     -0.88      0.00
    5   10   10      2.01      0.00
    5   10   11      1.04      0.00
    5   10   12     -0.80      0.00
    5   10   13      4.86      0.00
    5   10   14      7.53      0.00
    5   10   15     -2.14      0.00
    5   10   16     -4.16      0.00
    6   10    0     -8.02      0.00
    6   10    1      0.76      0.00
    6   10    2      2.45      0.00
    6   10    3     -2.41      0.00
    6   10    4     -0.93      0.00
    6   10    5      3.62      0.00
    6   10    6     -0.75      0.00
    6   10    7     -5.94      0.00
    6   10    8      0.13      0.00
    6   10    9     -0.67      0.00
    6   10   10     -0.01      0.00
    6   10   11     -1.37      0.00
    6   10   12      0.62      0.00
    6   10   13      1.25      0.00
    6   10   14     -3.70      0.00
    6   10   15      1.69      0.00
    6   10   16      0.53      0.00
    7   10    0     -8.11      0.00
    7   10    1     -2.22      0.00
    7   10    2    -10.36      0.00
    7   10    3      0.11      0.00
    7   10    4     -6.30      0.00
    7   10    5      2.07      0.00
    7   10    6     -0.42      0.00
    7   10    7      0.47      0.00
    7   10    8     -3.84      0.00
    7   10    9      3.59      0.00
    7   10   10      1.03      0.00
    7   10   11      2.50      0.00
    7   10   12     -2.55      0.00
    7   10   13      4.02      0.00
    7   10   14      0.31      0.00
    7   10   15     -1.30      0.00
    8   10    0      8.87      0.00
    8   10    1      1.07      0.00
    8   10    2      5.48      0.00
    8   10    3      0.28      0.00
    8   10    4      3.03      0.00
    8   10    5      2.07      0.00
    8   10    6     -2.04      0.00
    8   10    7     -0.05      0.00
    8   10    8     -1.03      0.00
    8   10    9      3.08      0.00
    8   10   10     -3.35      0.00
    8   10   11      1.88      0.00
    8   10   12     -0.90      0.00
    8   10   13      3.28      0.00
    8   10   14      2.59      0.00
    8   10   15     -1.37      0.00
    9   10    0      1.79      0.00
    9   10    1     -5.35      0.00
    9   10    2     -0.99      0.00
    9   10    3     -0.37      0.00
    9   10    4      0.06      0.00
    9   10    5      3.76      0.00
    9   10    6      0.16      0.00
    9   10    7     -1.28      0.00
    9   10    8     -1.24      0.00
    9   10    9     -0.76      0.00
    9   10   10     -1.12      0.00
    9   10   11     -6.15      0.00
    9   10   12      2.11      0.00
    9   10   13      0.78      0.00
    9   10   14     -1.96      0.00
    9   10   15     -0.74      0.00
   10   10    0      6.36      0.00
   10   10    2     -5.51      0.00
   10   10    4      0.65      0.00
   10   10    6      2.56      0.00
   10   10    8     -3.09      0.00
   10   10   10      1.72      0.00
   10   10   12     -0.53      0.00
   10   10   14      0.89      0.00
    0   11    0      4.80      0.00
    0   11    1     -4.56      0.00
    0   11    2      0.43      0.00
    0   11    3      6.78      0.00
    0   11    4      8.16      0.00
    0   11    5     -8.72      0.00
    0   11    6     -0.43      0.00
    0   11    7      1.92      0.00
    0   11    8      1.25      0.00
    0   11    9     -2.61      0.00
    0   11   10     -3.63      0.00
    0   11   11     -1.04      0.00
    0   11   12     -2.18      0.00
    0   11   13      3.19      0.00
    0   11   14     -0.51      0.00
    0   11   15     -0.02      0.00
    0   11   16     -6.07      0.00
    1   11    0    -11.90      0.00
    1   11    1     -7.36      0.00
    1   11    2     -1.96      0.00
    1   11    3     -1.20      0.00
    1   11    4      2.98      0.00
    1   11    5      6.00      0.00
    1   11    6     -2.49      0.00
    1   11    7     -3.11      0.00
    1   11    8      3.32      0.00
    1   11    9      1.00      0.00
    1   11   10     -1.15      0.00
    1   11   11      0.23      0.00
    1   11   12      3.01      0.00
    1   11   13      1.07      0.00
    1   11   14     -4.26      0.00
    1   11   15     -0.64      0.00
    1   11   16      3.95      0.00
    2   11    0     -9.46      0.00
    2   11    1    -10.01      0.00
    2   11    2     10.74      0.00
    2   11    3      2.44      0.00
    2   11    4      0.10      0.00
    2   11    5      2.24      0.00
    2   11    6     -1.91      0.00
    2   11    7      1.20      0.00
    2   11    8     -0.44      0.00
    2   11    9      1.20      0.00
    2   11   10     -2.11      0.00
    2   11   11     -0.11      0.00
    2   11   12      1.88      0.00
    2   11   13     -2.93      0.00
    2   11   14      0.67      0.00
    2   11   15     -0.21      0.00
    2   11   16     -1.18      0.00
    3   11    0     -0.14      0.00
    3   11    1     -5.75      0.00
    3   11    2     -0.90      0.00
    3   11    3      1.95      0.00
    3   11    4      6.03      0.00
    3   11    5     -0.56      0.00
    3   11    6     -1.30      0.00
    3   11    7     -2.53      0.00
    3   11    8      0.56      0.00
    3   11    9     -2.73      0.00
    3   11   10      1.59      0.00
    3   11   11     -3.03      0.00
    3   11   12     -0.96      0.00
    3   11   13     -0.25      0.00
    3   11   14     -2.94      0.00
    3   11   15      0.15      0.00
    3   11   16      0.68      0.00
    4   11    0    -11.18      0.00
    4   11    1      0.01      0.00
    4   11    2     -2.42      0.00
    4   11    3      3.45      0.00
    4   11    4     -3.81      0.00
    4   11    5      0.19      0.00
    4   11    6     -2.27      0.00
    4   11    7     -2.50      0.00
    4   11    8      4.35      0.00
    4   11    9      1.70      0.00
    4   11   10      0.04      0.00
    4   11   11     -0.57      0.00
    4   11   12      3.74      0.00
    4   11   13      4.45      0.00
    4   11   14      1.25      0.00
    4   11   15      5.79      0.00
    4   11   16      2.12      0.00
    5   11    0      6.32      0.00
    5   11    1      2.64      0.00
    5   11    2      3.32      0.00
    5   11    3      0.72      0.00
    5   11    4      2.61      0.00
    5   11    5      0.61      0.00
    5   11    6     -0.29      0.00
    5   11    7      5.29      0.00
    5   11    8      0.06      0.00
    5   11    9     -0.70      0.00
    5   11   10     -0.80      0.00
    5   11   11      2.70      0.00
    5   11   12     -2.81      0.00
    5   11   13      0.73      0.00
    5   11   14     -3.43      0.00
    5   11   15      0.90      0.00
    6   11    0      5.71      0.00
    6   11    1      3.16      0.00
    6   11    2      8.74      0.00
    6   11    3     -6.36      0.00
    6   11    4     -0.45      0.00
    6   11    5     -2.59      0.00
    6   11    6     -4.08      0.00
    6   11    7     -0.38      0.00
    6   11    8      1.49      0.00
    6   11    9     -0.04      0.00
    6   11   10     -3.96      0.00
    6   11   11     -0.95      0.00
    6   11   12     -0.74      0.00
    6   11   13     -4.06      0.00
    6   11   14     -2.05      0.00
    6   11   15      2.47      0.00
    7   11    0     -0.76      0.00
    7   11    1     -1.70      0.00
    7   11    2     -3.50      0.00
    7   11    3      4.45      0.00
    7   11    4     -0.90      0.00
    7   11    5      2.55      0.00
    7   11    6      0.00      0.00
    7   11    7      0.40      0.00
    7   11    8      4.01      0.00
    7   11    9      0.89      0.00
    7   11   10      1.02      0.00
    7   11   11     -0.80      0.00
    7   11   12      3.56      0.00
    7   11   13     -0.78      0.00
    7   11   14      3.30      0.00
    7   11   15      0.43      0.00
    8   11    0     -0.18      0.00
    8   11    1      3.88      0.00
    8   11    2     -0.83      0.00
    8   11    3      2.29      0.00
    8   11    4      0.42      0.00
    8   11    5     -1.28      0.00
    8   11    6      0.84      0.00
    8   11    7      1.63      0.00
    8   11    8      1.61      0.00
    8   11    9     -1.28      0.00
    8   11   10      1.39      0.00
    8   11   11      1.14      0.00
    8   11   12     -0.19      0.00
    8   11   13     -0.77      0.00
    8   11   14      1.59      0.00
    8   11   15      3.08      0.00
    9   11    0      2.55      0.00
    9   11    1      0.49      0.00
    9   11    2      3.60      0.00
    9   11    3     -3.10      0.00
    9   11    4     -0.36      0.00
    9   11    5      2.09      0.00
    9   11    6      0.05      0.00
    9   11    7      0.01      0.00
    9   11    8     -2.50      0.00
    9   11    9     -0.36      0.00
    9   11   10     -2.65      0.00
    9   11   11     -5.94      0.00
    9   11   12      0.30      0.00
    9   11   13      4.69      0.00
    9   11   14     -3.49      0.00
    9   11   15     -1.23      0.00
   10   11    0      1.17      0.00
   10   11    1     -2.41      0.00
   10   11    2      3.43      0.00
   10   11    3      4.57      0.00
   10   11    4     -0.91      0.00
   10   11    5      0.69      0.00
   10   11    6     -1.14      0.00
   10   11    7      4.57      0.00
   10   11    8     -0.71      0.00
   10   11    9     -0.59      0.00
   10   11   10     -3.48      0.00
   10   11   11     -0.21      0.00
   10   11   12     -8.26      0.00
   10   11   13     -0.94      0.00
   10   11   14      1.60      0.00
   10   11   15      2.61      0.00
   11   11    0     -9.38      0.00
   11   11    2     -6.21      0.00
   11   11    4     -4.52      0.00
   11   11    6      1.87      0.00
   11   11    8      1.12      0.00
   11   11   10     -3.25      0.00
   11   11   12      2.27      0.00
   11   11   14     -1.23      0.00
    0   12    0     25.86      0.00
    0   12    1     11.48      0.00
    0   12    2     -1.83      0.00
    0   12    3      2.15      0.00
    0   12    4     -3.64      0.00
    0   12    5      3.47      0.00
    0   12    6     -1.48      0.00
    0   12    7      6.40      0.00
    0   12    8     -3.41      0.00
    0   12    9      2.23      0.00
    0   12   10      0.19      0.00
    0   12   11      3.54      0.00
    0   12   12      1.44      0.00
    0   12   13     -4.84      0.00
    0   12   14      2.10      0.00
    0   12   15      5.62      0.00
    1   12    0      1.10      0.00
    1   12    1      8.25      0.00
    1   12    2      1.45      0.00
    1   12    3      4.45      0.00
    1   12    4     -4.82      0.00
    1   12    5     -0.28      0.00
    1   12    6     -0.92      0.00
    1   12    7     -0.63      0.00
    1   12    8      4.49      0.00
    1   12    9     -0.61      0.00
    1   12   10     -0.94      0.00
    1   12   11     -2.91      0.00
    1   12   12     -3.23      0.00
    1   12   13     -8.13      0.00
    1   12   14      0.10      0.00
    1   12   15     -0.10      0.00
    2   12    0     -1.06      0.00
    2   12    1      2.96      0.00
    2   12    2     -0.95      0.00
    2   12    3     -4.33      0.00
    2   12    4      0.44      0.00
    2   12    5     -2.86      0.00
    2   12    6      6.37      0.00
    2   12    7     -2.51      0.00
    2   12    8     -1.57      0.00
    2   12    9     -1.94      0.00
    2   12   10      3.27      0.00
    2   12   11      0.93      0.00
    2   12   12     -0.79      0.00
    2   12   13     -1.74      0.00
    2   12   14      0.08      0.00
    2   12   15      2.11      0.00
    3   12    0     -4.62      0.00
    3   12    1     -2.83      0.00
    3   12    2     13.43      0.00
    3   12    3     -0.37      0.00
    3   12    4      6.82      0.00
    3   12    5     -3.94      0.00
    3   12    6     -0.01      0.00
    3   12    7      2.13      0.00
    3   12    8     -3.92      0.00
    3   12    9      2.11      0.00
    3   12   10     -0.05      0.00
    3   12   11      2.51      0.00
    3   12   12      2.84      0.00
    3   12   13     -2.13      0.00
    3   12   14     -1.00      0.00
    3   12   15      3.09      0.00
    4   12    0      1.40      0.00
    4   12    1      4.25      0.00
    4   12    2     -2.16      0.00
    4   12    3     -0.67      0.00
    4   12    4     -3.05      0.00
    4   12    5      4.18      0.00
    4   12    6      0.79      0.00
    4   12    7      1.01      0.00
    4   12    8      3.78      0.00
    4   12    9     -1.76      0.00
    4   12   10      0.26      0.00
    4   12   11      3.52      0.00
    4   12   12      6.37      0.00
    4   12   13      2.57      0.00
    4   12   14      4.50      0.00
    4   12   15     -0.03      0.00
    5   12    0     -5.37      0.00
    5   12    1      3.08      0.00
    5   12    2     -7.68      0.00
    5   12    3     10.53      0.00
    5   12    4      0.38      0.00
    5   12    5      3.38      0.00
    5   12    6      0.93      0.00
    5   12    7      0.38      0.00
    5   12    8     -1.69      0.00
    5   12    9     -3.64      0.00
    5   12   10     -0.04      0.00
    5   12   11     -3.36      0.00
    5   12   12     -2.33      0.00
    5   12   13     -7.32      0.00
    5   12   14     -0.38      0.00
    5   12   15      3.35      0.00
    6   12    0     -5.45      0.00
    6   12    1      3.70      0.00
    6   12    2     -0.93      0.00
    6   12    3     -6.92      0.00
    6   12    4      1.95      0.00
    6   12    5     -0.60      0.00
    6   12    6      2.18      0.00
    6   12    7     -0.92      0.00
    6   12    8     -1.10      0.00
    6   12    9     -0.31      0.00
    6   12   10      1.34      0.00
    6   12   11     -0.12      0.00
    6   12   12      0.41      0.00
    6   12   13     -2.25      0.00
    6   12   14      1.52      0.00
    6   12   15     -1.86      0.00
    7   12    0     -1.21      0.00
    7   12    1      0.14      0.00
    7   12    2     -0.44      0.00
    7   12    3     -0.89      0.00
    7   12    4      2.15      0.00
    7   12    5     -1.75      0.00
    7   12    6     -1.33      0.00
    7   12    7      2.73      0.00
    7   12    8     -0.22      0.00
    7   12    9      1.86      0.00
    7   12   10      0.62      0.00
    7   12   11      2.89      0.00
    7   12   12      0.12      0.00
    7   12   13     -2.01      0.00
    7   12   14     -0.40      0.00
    7   12   15      3.05      0.00
    8   12    0     -3.29      0.00
    8   12    1     -1.30      0.00
    8   12    2      1.75      0.00
    8   12    3     -1.49      0.00
    8   12    4      0.78      0.00
    8   12    5      1.53      0.00
    8   12    6      3.74      0.00
    8   12    7      1.77      0.00
    8   12    8      0.80      0.00
    8   12    9      1.28      0.00
    8   12   10     -1.04      0.00
    8   12   11     -0.36      0.00
    8   12   12     -0.39      0.00
    8   12   13     -0.10      0.00
    8   12   14      1.80      0.00
    8   12   15     -1.86      0.00
    9   12    0      2.00      0.00
    9   12    1      1.53      0.00
    9   12    2     -4.08      0.00
    9   12    3      0.07      0.00
    9   12    4     -1.79      0.00
    9   12    5      0.35      0.00
    9   12    6     -1.22      0.00
    9   12    7     -1.70      0.00
    9   12    8     -1.59      0.00
    9   12    9      1.49      0.00
    9   12   10      0.06      0.00
    9   12   11      0.67      0.00
    9   12   12      2.99      0.00
    9   12   13      0.48      0.00
    9   12   14     -0.47      0.00
    9   12   15      4.05      0.00
   10   12    0      2.90      0.00
   10   12    1      2.15      0.00
   10   12    2     -1.35      0.00
   10   12    3      0.30      0.00
   10   12    4      2.70      0.00
   10   12    5     -3.52      0.00
   10   12    6      0.85      0.00
   10   12    7      0.97      0.00
   10   12    8     -1.31      0.00
   10   12    9     -1.08      0.00
   10   12   10      2.17      0.00
   10   12   11     -2.29      0.00
   10   12   12     -0.17      0.00
   10   12   13     -4.11      0.00
   10   12   14      0.81      0.00
   11   12    0     -1.85      0.00
   11   12    1      0.91      0.00
   11   12    2      0.63      0.00
   11   12    3     -1.34      0.00
   11   12    4      0.26      0.00
   11   12    5      0.75      0.00
   11   12    6      1.86      0.00
   11   12    7     -3.11      0.00
   11   12    8      2.42      0.00
   11   12    9      0.91      0.00
   11   12   10      0.75      0.00
   11   12   11      0.46      0.00
   11   12   12      3.89      0.00
   11   12   13     -0.56      0.00
   11   12   14      1.88      0.00
   12   12    0     -1.88      0.00
   12   12    2     -1.58      0.00
   12   12    4     -2.09      0.00
   12   12    6      2.58      0.00
   12   12    8     -0.96      0.00
   12   12   10      0.26      0.00
   12   12   12     -7.49      0.00
   12   12   14     -2.44      0.00
    0   13    0      6.08      0.00
    0   13    1     -4.86      0.00
    0   13    2     -3.91      0.00
    0   13    3     -5.96      0.00
    0   13    4      8.91      0.00
    0   13    5     -3.43      0.00
    0   13    6      1.61      0.00
    0   13    7      2.45      0.00
    0   13    8      1.56      0.00
    0   13    9      1.27      0.00
    0   13   10     -2.62      0.00
    0   13   11      0.27      0.00
    0   13   12     -0.38      0.00
    0   13   13      2.57      0.00
    0   13   14      1.39      0.00
    0   13   15     -3.20      0.00
    1   13    0     -0.34      0.00
    1   13    1     -1.81      0.00
    1   13    2     -1.37      0.00
    1   13    3      1.16      0.00
    1   13    4     -2.19      0.00
    1   13    5     -2.45      0.00
    1   13    6     -0.72      0.00
    1   13    7     -2.32      0.00
    1   13    8      0.97      0.00
    1   13    9     -1.87      0.00
    1   13   10     -3.01      0.00
    1   13   11     -0.84      0.00
    1   13   12      0.21      0.00
    1   13   13     -2.09      0.00
    1   13   14      1.41      0.00
    1   13   15     -0.66      0.00
    2   13    0     -8.64      0.00
    2   13    1      0.47      0.00
    2   13    2     -6.67      0.00
    2   13    3      7.86      0.00
    2   13    4     -7.77      0.00
    2   13    5      2.32      0.00
    2   13    6     -3.02      0.00
    2   13    7     -1.93      0.00
    2   13    8     -2.37      0.00
    2   13    9     -1.63      0.00
    2   13   10      0.70      0.00
    2   13   11     -3.98      0.00
    2   13   12      1.07      0.00
    2   13   13      0.52      0.00
    2   13   14      3.41      0.00
    2   13   15     -3.99      0.00
    3   13    0    -10.52      0.00
    3   13    1      0.54      0.00
    3   13    2     -0.79      0.00
    3   13    3      1.11      0.00
    3   13    4      2.70      0.00
    3   13    5     -0.04      0.00
    3   13    6     -0.36      0.00
    3   13    7      1.05      0.00
    3   13    8      2.11      0.00
    3   13    9      1.51      0.00
    3   13   10     -3.27      0.00
    3   13   11      0.14      0.00
    3   13   12      2.53      0.00
    3   13   13      1.76      0.00
    3   13   14      3.43      0.00
    3   13   15     -1.13      0.00
    4   13    0     -3.82      0.00
    4   13    1      1.14      0.00
    4   13    2     -0.47      0.00
    4   13    3      1.14      0.00
    4   13    4      4.83      0.00
    4   13    5     -0.93      0.00
    4   13    6      2.22      0.00
    4   13    7     -2.40      0.00
    4   13    8      0.10      0.00
    4   13    9     -1.06      0.00
    4   13   10     -0.18      0.00
    4   13   11     -0.79      0.00
    4   13   12      3.19      0.00
    4   13   13      1.78      0.00
    4   13   14      3.60      0.00
    4   13   15      0.15      0.00
    5   13    0      3.21      0.00
    5   13    1      1.56      0.00
    5   13    2      3.77      0.00
    5   13    3     -0.11      0.00
    5   13    4     -1.63      0.00
    5   13    5     -5.98      0.00
    5   13    6     -2.84      0.00
    5   13    7     -0.83      0.00
    5   13    8      2.54      0.00
    5   13    9     -3.55      0.00
    5   13   10     -1.58      0.00
    5   13   11     -3.03      0.00
    5   13   12      0.65      0.00
    5   13   13      2.43      0.00
    5   13   14      1.93      0.00
    5   13   15      1.25      0.00
    6   13    0     -1.15      0.00
    6   13    1     -4.94      0.00
    6   13    2      2.39      0.00
    6   13    3     -1.25      0.00
    6   13    4      1.38      0.00
    6   13    5     -1.10      0.00
    6   13    6      0.04      0.00
    6   13    7      0.48      0.00
    6   13    8      1.62      0.00
    6   13    9      1.79      0.00
    6   13   10     -3.03      0.00
    6   13   11      0.05      0.00
    6   13   12     -1.37      0.00
    6   13   13      0.68      0.00
    6   13   14     -3.10      0.00
    6   13   15     -1.91      0.00
    7   13    0     -0.34      0.00
    7   13    1      2.85      0.00
    7   13    2     -2.37      0.00
    7   13    3      1.91      0.00
    7   13    4     -3.67      0.00
    7   13    5     -5.36      0.00
    7   13    6     -0.90      0.00
    7   13    7      0.64      0.00
    7   13    8      0.38      0.00
    7   13    9      3.46      0.00
    7   13   10     -0.74      0.00
    7   13   11      1.40      0.00
    7   13   12     -1.03      0.00
    7   13   13     -0.99      0.00
    7   13   14      2.12      0.00
    7   13   15     -0.80      0.00
    8   13    0     -5.72      0.00
    8   13    1      3.93      0.00
    8   13    2     -3.27      0.00
    8   13    3      1.28      0.00
    8   13    4      2.42      0.00
    8   13    5      3.46      0.00
    8   13    6     -1.73      0.00
    8   13    7     -2.34      0.00
    8   13    8     -0.76      0.00
    8   13    9     -0.61      0.00
    8   13   10      1.75      0.00
    8   13   11     -3.06      0.00
    8   13   12      3.61      0.00
    8   13   13     -2.85      0.00
    8   13   14      1.35      0.00
    9   13    0      0.34      0.00
    9   13    1     -1.65      0.00
    9   13    2      1.54      0.00
    9   13    3      2.49      0.00
    9   13    4      3.91      0.00
    9   13    5      1.10      0.00
    9   13    6      0.38      0.00
    9   13    7     -0.25      0.00
    9   13    8      3.52      0.00
    9   13    9      0.98      0.00
    9   13   10     -0.38      0.00
    9   13   11     -3.51      0.00
    9   13   12     -0.60      0.00
    9   13   13      0.44      0.00
    9   13   14     -0.80      0.00
   10   13    0      1.56      0.00
   10   13    1     -0.49      0.00
   10   13    2      1.25      0.00
   10   13    3      0.28      0.00
   10   13    4      0.23      0.00
   10   13    5     -0.75      0.00
   10   13    6      0.02      0.00
   10   13    7     -1.74      0.00
   10   13    8     -2.01      0.00
   10   13    9      2.38      0.00
   10   13   10      0.35      0.00
   10   13   11     -0.29      0.00
   10   13   12     -6.00      0.00
   10   13   13      0.96      0.00
   10   13   14     -2.36      0.00
   11   13    0      1.11      0.00
   11   13    1      1.15      0.00
   11   13    2      4.77      0.00
   11   13    3      2.80      0.00
   11   13    4      4.57      0.00
   11   13    5      2.26      0.00
   11   13    6      1.17      0.00
   11   13    7     -2.87      0.00
   11   13    8      0.46      0.00
   11   13    9      4.34      0.00
   11   13   10     -1.54      0.00
   11   13   11      0.30      0.00
   11   13   12      1.01      0.00
   11   13   13     -6.99      0.00
   11   13   14      2.97      0.00
   12   13    0      0.84      0.00
   12   13    1     -1.35      0.00
   12   13    2     -2.97      0.00
   12   13    3      0.70      0.00
   12   13    4      6.04      0.00
   12   13    5     -3.83      0.00
   12   13    6     -1.57      0.00
   12   13    7     -2.07      0.00
   12   13    8     -1.11      0.00
   12   13    9     -1.83      0.00
   12   13   10      1.91      0.00
   12   13   11     -2.29      0.00
   12   13   12      2.83      0.00
   12   13   13      4.96      0.00
   13   13    0     -5.08      0.00
   13   13    2     -0.64      0.00
   13   13    4     -1.85      0.00
   13   13    6     -0.07      0.00
   13   13    8      5.91      0.00
   13   13   10      2.45      0.00
   13   13   12     -0.19      0.00
    0   14    0      8.89      0.00
    0   14    1     -0.28      0.00
    0   14    2     -6.25      0.00
    0   14    3      6.31      0.00
    0   14    4     -2.27      0.00
    0   14    5      0.31      0.00
    0   14    6     -2.01      0.00
    0   14    7      2.90      0.00
    0   14    8      1.46      0.00
    0   14    9      1.03      0.00
    0   14   10      3.65      0.00
    0   14   11     -0.95      0.00
    0   14   12     -0.36      0.00
    0   14   13      2.07      0.00
    0   14   14      2.69      0.00
    0   14   15     -5.63      0.00
    1   14    0      4.67      0.00
    1   14    1      1.45      0.00
    1   14    2     -0.62      0.00
    1   14    3     -1.92      0.00
    1   14    4     -0.06      0.00
    1   14    5      3.72      0.00
    1   14    6      2.30      0.00
    1   14    7     -2.53      0.00
    1   14    8      0.82      0.00
    1   14    9      0.98      0.00
    1   14   10     -1.67      0.00
    1   14   11      1.41      0.00
    1   14   12      0.57      0.00
    1   14   13     -0.42      0.00
    1   14   14      0.35      0.00
    1   14   15     -7.39      0.00
    2   14    0     -2.59      0.00
    2   14    1     -2.22      0.00
    2   14    2      6.30      0.00
    2   14    3     -1.47      0.00
    2   14    4      3.07      0.00
    2   14    5     -1.85      0.00
    2   14    6      1.86      0.00
    2   14    7      0.85      0.00
    2   14    8     -1.36      0.00
    2   14    9     -0.91      0.00
    2   14   10      1.98      0.00
    2   14   11     -0.94      0.00
    2   14   12     -2.52      0.00
    2   14   13      2.36      0.00
    2   14   14     -3.68      0.00
    2   14   15     -6.65      0.00
    3   14    0      2.51      0.00
    3   14    1     -4.62      0.00
    3   14    2     -1.85      0.00
    3   14    3     -5.17      0.00
    3   14    4     -2.72      0.00
    3   14    5      0.80      0.00
    3   14    6      1.22      0.00
    3   14    7      0.46      0.00
    3   14    8     -0.89      0.00
    3   14    9     -0.54      0.00
    3   14   10      1.65      0.00
    3   14   11      0.29      0.00
    3   14   12      3.08      0.00
    3   14   13      2.77      0.00
    3   14   14      2.44      0.00
    3   14   15     -2.64      0.00
    4   14    0      1.89      0.00
    4   14    1      1.19      0.00
    4   14    2      5.17      0.00
    4   14    3      2.70      0.00
    4   14    4      0.92      0.00
    4   14    5      4.00      0.00
    4   14    6      0.62      0.00
    4   14    7     -2.80      0.00
    4   14    8      5.14      0.00
    4   14    9      0.40      0.00
    4   14   10     -2.83      0.00
    4   14   11      1.63      0.00
    4   14   12     -1.02      0.00
    4   14   13      1.51      0.00
    4   14   14     -1.52      0.00
    4   14   15     -0.60      0.00
    5   14    0      6.05      0.00
    5   14    1      2.51      0.00
    5   14    2     -4.91      0.00
    5   14    3     -2.11      0.00
    5   14    4     -3.91      0.00
    5   14    5     -0.44      0.00
    5   14    6      2.69      0.00
    5   14    7      3.36      0.00
    5   14    8     -1.90      0.00
    5   14    9     -0.42      0.00
    5   14   10      3.82      0.00
    5   14   11      1.23      0.00
    5   14   12      0.64      0.00
    5   14   13      0.89      0.00
    5   14   14     -0.68      0.00
    5   14   15     -2.82      0.00
    6   14    0      3.85      0.00
    6   14    1      0.87      0.00
    6   14    2     -0.11      0.00
    6   14    3     -0.41      0.00
    6   14    4     -1.94      0.00
    6   14    5      2.45      0.00
    6   14    6     -1.74      0.00
    6   14    7     -0.35      0.00
    6   14    8     -0.88      0.00
    6   14    9      1.62      0.00
    6   14   10      1.17      0.00
    6   14   11      2.33      0.00
    6   14   12     -1.54      0.00
    6   14   13     -3.26      0.00
    6   14   14     -1.94      0.00
    7   14    0      2.19      0.00
    7   14    1     -2.62      0.00
    7   14    2     -2.27      0.00
    7   14    3     -2.29      0.00
    7   14    4      0.58      0.00
    7   14    5      0.73      0.00
    7   14    6      1.17      0.00
    7   14    7     -2.35      0.00
    7   14    8      2.04      0.00
    7   14    9     -0.73      0.00
    7   14   10      2.49      0.00
    7   14   11      1.30      0.00
    7   14   12     -1.30      0.00
    7   14   13      1.34      0.00
    7   14   14     -0.57      0.00
    8   14    0      5.35      0.00
    8   14    1     -2.61      0.00
    8   14    2      1.98      0.00
    8   14    3     -4.39      0.00
    8   14    4     -2.09      0.00
    8   14    5     -1.40      0.00
    8   14    6      1.67      0.00
    8   14    7     -0.69      0.00
    8   14    8      2.11      0.00
    8   14    9      0.82      0.00
    8   14   10      3.95      0.00
    8   14   11      2.14      0.00
    8   14   12      3.01      0.00
    8   14   13      0.35      0.00
    8   14   14      1.61      0.00
    9   14    0      1.69      0.00
    9   14    1     -2.27      0.00
    9   14    2     -0.11      0.00
    9   14    3     -2.65      0.00
    9   14    4      0.23      0.00
    9   14    5      5.45      0.00
    9   14    6      1.57      0.00
    9   14    7      1.35      0.00
    9   14    8     -4.35      0.00
    9   14    9      1.55      0.00
    9   14   10     -2.42      0.00
    9   14   11      0.11      0.00
    9   14   12     -3.19      0.00
    9   14   13      0.07      0.00
    9   14   14     -3.88      0.00
   10   14    0      0.53      0.00
   10   14    1     -0.62      0.00
   10   14    2     -8.14      0.00
   10   14    3     -0.63      0.00
   10   14    4     -2.83      0.00
   10   14    5      1.81      0.00
   10   14    6     -6.19      0.00
   10   14    7      1.81      0.00
   10   14    8     -0.14      0.00
   10   14    9     -4.37      0.00
   10   14   10     -2.06      0.00
   10   14   11      0.26      0.00
   10   14   12     -0.21      0.00
   10   14   13     -0.47      0.00
   10   14   14      0.65      0.00
   11   14    0     -2.12      0.00
   11   14    1      0.17      0.00
   11   14    2     -1.76      0.00
   11   14    3     -2.84      0.00
   11   14    4     -2.50      0.00
   11   14    5      0.07      0.00
   11   14    6      1.63      0.00
   11   14    7     -3.57      0.00
   11   14    8      4.10      0.00
   11   14    9     -1.00      0.00
   11   14   10     -0.36      0.00
   11   14   11     -3.78      0.00
   11   14   12     -0.01      0.00
   11   14   13     -1.73      0.00
   12   14    0      4.92      0.00
   12   14    1      1.49      0.00
   12   14    2      0.01      0.00
   12   14    3     -2.70      0.00
   12   14    4      2.47      0.00
   12   14    5     -1.32      0.00
   12   14    6      1.28      0.00
   12   14    7      0.00      0.00
   12   14    8      0.01      0.00
   12   14    9      2.15      0.00
   12   14   10      0.43      0.00
   12   14   11     -2.74      0.00
   12   14   12      1.24      0.00
   12   14   13      0.72      0.00
   13   14    0      2.07      0.00
   13   14    1      0.27      0.00
   13   14    2     -0.52      0.00
   13   14    3     -2.34      0.00
   13   14    4      1.38      0.00
   13   14    5      1.85      0.00
   13   14    6      0.66      0.00
   13   14    7      0.48      0.00
   13   14    8     -0.17      0.00
   13   14    9     -1.40      0.00
   13   14   10     -3.16      0.00
   13   14   11      0.45      0.00
   13   14   12     -0.23      0.00
   13   14   13      1.59      0.00
   14   14    0      1.77      0.00
   14   14    2     -6.93      0.00
   14   14    4      1.11      0.00
   14   14    6     -0.65      0.00
   14   14    8      3.43      0.00
   14   14   10     -1.51      0.00
   14   14   12      2.99      0.00
    0   15    0     -5.25      0.00
    0   15    1      2.70      0.00
    0   15    2     -1.37      0.00
    0   15    3      1.70      0.00
    0   15    4     -3.95      0.00
    0   15    5     -2.25      0.00
    0   15    6     -2.00      0.00
    0   15    7      3.10      0.00
    0   15    8     -1.05      0.00
    0   15    9      0.05      0.00
    0   15   10      1.16      0.00
    0   15   11     -0.91      0.00
    0   15   12      4.24      0.00
    0   15   13     -2.20      0.00
    0   15   14     -3.70      0.00
    1   15    0      6.09      0.00
    1   15    1      0.97      0.00
    1   15    2      3.97      0.00
    1   15    3     -3.00      0.00
    1   15    4      0.65      0.00
    1   15    5      1.81      0.00
    1   15    6     -0.22      0.00
    1   15    7      0.25      0.00
    1   15    8      1.30      0.00
    1   15    9      2.11      0.00
    1   15   10     -1.01      0.00
    1   15   11      1.10      0.00
    1   15   12     -0.64      0.00
    1   15   13      1.58      0.00
    1   15   14     10.60      0.00
    2   15    0      0.75      0.00
    2   15    1     -5.14      0.00
    2   15    2      2.42      0.00
    2   15    3     -0.86      0.00
    2   15    4     -1.38      0.00
    2   15    5     -3.21      0.00
    2   15    6      0.37      0.00
    2   15    7     -0.77      0.00
    2   15    8     -1.50      0.00
    2   15    9      2.09      0.00
    2   15   10      2.07      0.00
    2   15   11     -1.25      0.00
    2   15   12     -2.54      0.00
    2   15   13      1.01      0.00
    2   15   14     -1.04      0.00
    3   15    0     -7.92      0.00
    3   15    1     -1.25      0.00
    3   15    2     -1.91      0.00
    3   15    3     -1.20      0.00
    3   15    4     -1.29      0.00
    3   15    5      2.50      0.00
    3   15    6     -1.32      0.00
    3   15    7     -0.21      0.00
    3   15    8     -0.77      0.00
    3   15    9     -0.38      0.00
    3   15   10      0.91      0.00
    3   15   11      2.98      0.00
    3   15   12      6.14      0.00
    3   15   13      5.68      0.00
    3   15   14      0.34      0.00
    4   15    0      0.03      0.00
    4   15    1      1.04      0.00
    4   15    2      4.70      0.00
    4   15    3     -1.22      0.00
    4   15    4      1.74      0.00
    4   15    5      3.20      0.00
    4   15    6     -2.36      0.00
    4   15    7     -0.28      0.00
    4   15    8      1.04      0.00
    4   15    9     -0.29      0.00
    4   15   10     -4.20      0.00
    4   15   11     -0.15      0.00
    4   15   12      2.58      0.00
    4   15   13     -5.09      0.00
    4   15   14      4.70      0.00
    5   15    0      1.27      0.00
    5   15    1     -6.98      0.00
    5   15    2     -1.53      0.00
    5   15    3      1.03      0.00
    5   15    4      3.53      0.00
    5   15    5     -1.02      0.00
    5   15    6      2.23      0.00
    5   15    7     -1.64      0.00
    5   15    8     -1.03      0.00
    5   15    9     -2.37      0.00
    5   15   10      2.32      0.00
    5   15   11      0.07      0.00
    5   15   12     -1.01      0.00
    5   15   13      2.83      0.00
    5   15   14     -1.15      0.00
    6   15    0     -0.55      0.00
    6   15    1      2.09      0.00
    6   15    2      3.39      0.00
    6   15    3      3.29      0.00
    6   15    4     -4.91      0.00
    6   15    5     -0.84      0.00
    6   15    6     -4.32      0.00
    6   15    7     -0.38      0.00
    6   15    8      1.69      0.00
    6   15    9     -1.38      0.00
    6   15   10     -2.55      0.00
    6   15   11     -2.02      0.00
    6   15   12     -0.92      0.00
    6   15   13     -1.15      0.00
    6   15   14     -1.81      0.00
    7   15    0      0.68      0.00
    7   15    1     -3.58      0.00
    7   15    2      0.44      0.00
    7   15    3      3.69      0.00
    7   15    4     -1.27      0.00
    7   15    5      1.92      0.00
    7   15    6     -1.05      0.00
    7   15    7      3.33      0.00
    7   15    8     -2.16      0.00
    7   15    9      0.32      0.00
    7   15   10      0.02      0.00
    7   15   11      1.45      0.00
    7   15   12     -1.40      0.00
    7   15   13      0.40      0.00
    7   15   14     -2.58      0.00
    8   15    0     -0.77      0.00
    8   15    1      0.16      0.00
    8   15    2     -0.64      0.00
    8   15    3      2.96      0.00
    8   15    4     -0.85      0.00
    8   15    5      1.35      0.00
    8   15    6     -0.33      0.00
    8   15    7      3.02      0.00
    8   15    8      1.62      0.00
    8   15    9      1.09      0.00
    8   15   10     -1.31      0.00
    8   15   11     -0.67      0.00
    8   15   12      1.06      0.00
    8   15   13      2.22      0.00
    8   15   14      4.05      0.00
    9   15    0      1.30      0.00
    9   15    1      4.33      0.00
    9   15    2      1.99      0.00
    9   15    3     -0.37      0.00
    9   15    4      2.09      0.00
    9   15    5      0.63      0.00
    9   15    6     -4.25      0.00
    9   15    7      2.67      0.00
    9   15    8      3.47      0.00
    9   15    9     -1.79      0.00
    9   15   10     -1.70      0.00
    9   15   11     -1.88      0.00
    9   15   12      0.41      0.00
    9   15   13     -0.89      0.00
   10   15    0      0.19      0.00
   10   15    1     -5.98      0.00
   10   15    2      1.86      0.00
   10   15    3     -0.74      0.00
   10   15    4      2.01      0.00
   10   15    5      2.32      0.00
   10   15    6      1.10      0.00
   10   15    7     -0.49      0.00
   10   15    8      0.89      0.00
   10   15    9     -0.42      0.00
   10   15   10     -0.97      0.00
   10   15   11     -2.30      0.00
   10   15   12     -4.31      0.00
   10   15   13      0.86      0.00
   11   15    0     -0.26      0.00
   11   15    1     -1.09      0.00
   11   15    2      1.05      0.00
   11   15    3      0.15      0.00
   11   15    4     -1.67      0.00
   11   15    5      0.95      0.00
   11   15    6     -1.10      0.00
   11   15    7      2.08      0.00
   11   15    8     -1.22      0.00
   11   15    9      1.13      0.00
   11   15   10      1.42      0.00
   11   15   11     -0.03      0.00
   11   15   12      0.40      0.00
   11   15   13     -1.88      0.00
   12   15    0     -4.64      0.00
   12   15    1      2.39      0.00
   12   15    2     -2.96      0.00
   12   15    3      3.01      0.00
   12   15    4      1.45      0.00
   12   15    5      4.02      0.00
   12   15    6     -0.49      0.00
   12   15    7      0.88      0.00
   12   15    8      0.46      0.00
   12   15    9     -0.20      0.00
   12   15   10     -2.65      0.00
   12   15   11      0.56      0.00
   12   15   12     -0.98      0.00
   12   15   13      2.57      0.00
   13   15    0      2.03      0.00
   13   15    1      1.36      0.00
   13   15    2      0.55      0.00
   13   15    3     -1.11      0.00
   13   15    4      2.82      0.00
   13   15    5      3.21      0.00
   13   15    6     -1.46      0.00
   13   15    7     -2.69      0.00
   13   15    8     -0.89      0.00
   13   15    9     -3.15      0.00
   13   15   10      1.15      0.00
   13   15   11     -0.93      0.00
   13   15   12     -2.11      0.00
   14   15    0     -2.85      0.00
   14   15    1     -4.57      0.00
   14   15    2      0.57      0.00
   14   15    3     -5.60      0.00
   14   15    4     -2.04      0.00
   14   15    5      0.35      0.00
   14   15    6      5.62      0.00
   14   15    7      0.95      0.00
   14   15    8      2.05      0.00
   14   15    9      2.95      0.00
   14   15   10     -0.71      0.00
   14   15   11      0.40      0.00
   14   15   12      4.49      0.00
   15   15    0      6.46      0.00
   15   15    2     -0.78      0.00
   15   15    4     -5.04      0.00
   15   15    6     -1.17      0.00
   15   15    8      1.73      0.00
   15   15   10      1.33      0.00
    0   16    0     -4.88      0.00
    0   16    1      2.77      0.00
    0   16    2     -4.66      0.00
    0   16    3      3.29      0.00
    0   16    4      2.70      0.00
    0   16    5      0.67      0.00
    0   16    6      4.13      0.00
    0   16    7     -1.20      0.00
    0   16    8      1.42      0.00
    0   16    9      0.02      0.00
    0   16   10     -0.74      0.00
    0   16   11     -0.15      0.00
    0   16   12      4.22      0.00
    0   16   13      1.80      0.00
    1   16    0     -4.67      0.00
    1   16    1     -3.43      0.00
    1   16    2      1.42      0.00
    1   16    3      2.53      0.00
    1   16    4      2.80      0.00
    1   16    5     -1.26      0.00
    1   16    6     -2.42      0.00
    1   16    7      2.20      0.00
    1   16    8      0.09      0.00
    1   16    9      0.66      0.00
    1   16   10     -0.81      0.00
    1   16   11      1.43      0.00
    1   16   12     -0.13      0.00
    1   16   13     -2.11      0.00
    1   16   14      3.99      0.00
    2   16    0     -6.55      0.00
    2   16    1     -3.01      0.00
    2   16    2      1.79      0.00
    2   16    3     -2.48      0.00
    2   16    4     -1.41      0.00
    2   16    5      1.31      0.00
    2   16    6      0.10      0.00
    2   16    7      3.29      0.00
    2   16    8     -2.30      0.00
    2   16    9     -2.22      0.00
    2   16   10     -3.83      0.00
    2   16   11     -1.12      0.00
    2   16   12      3.98      0.00
    2   16   13     -0.09      0.00
    2   16   14      6.74      0.00
    3   16    0     -6.75      0.00
    3   16    1      1.57      0.00
    3   16    2     -1.62      0.00
    3   16    3      4.13      0.00
    3   16    4     -0.69      0.00
    3   16    5     -0.26      0.00
    3   16    6     -2.27      0.00
    3   16    7     -0.76      0.00
    3   16    8      3.58      0.00
    3   16    9      0.47      0.00
    3   16   10      0.10      0.00
    3   16   11      0.21      0.00
    3   16   12      1.35      0.00
    3   16   13     -0.62      0.00
    3   16   14      2.73      0.00
    4   16    0      1.41      0.00
    4   16    1      2.47      0.00
    4   16    2     -2.41      0.00
    4   16    3     -1.44      0.00
    4   16    4     -0.33      0.00
    4   16    5      1.68      0.00
    4   16    6      0.45      0.00
    4   16    7      2.42      0.00
    4   16    8      2.13      0.00
    4   16    9      0.07      0.00
    4   16   10     -2.41      0.00
    4   16   11      1.78      0.00
    4   16   12      3.63      0.00
    4   16   13      3.32      0.00
    4   16   14      9.94      0.00
    5   16    0     -2.64      0.00
    5   16    1      0.69      0.00
    5   16    2      0.94      0.00
    5   16    3      3.34      0.00
    5   16    4     -2.26      0.00
    5   16    5     -1.44      0.00
    5   16    6     -1.59      0.00
    5   16    7      2.06      0.00
    5   16    8      0.11      0.00
    5   16    9     -1.68      0.00
    5   16   10      2.65      0.00
    5   16   11     -1.62      0.00
    5   16   12      2.02      0.00
    5   16   13     -2.33      0.00
    5   16   14     -2.11      0.00
    6   16    0     -0.34      0.00
    6   16    1     -0.34      0.00
    6   16    2      0.59      0.00
    6   16    3     -2.23      0.00
    6   16    4     -0.03      0.00
    6   16    5     -2.21      0.00
    6   16    6     -1.00      0.00
    6   16    7     -0.22      0.00
    6   16    8      2.56      0.00
    6   16    9     -1.80      0.00
    6   16   10     -2.31      0.00
    6   16   11     -0.57      0.00
    6   16   12     -0.15      0.00
    6   16   13     -3.23      0.00
    6   16   14      1.48      0.00
    7   16    0      3.29      0.00
    7   16    1     -0.54      0.00
    7   16    2      0.88      0.00
    7   16    3      1.94      0.00
    7   16    4      1.00      0.00
    7   16    5     -3.92      0.00
    7   16    6     -1.45      0.00
    7   16    7      1.35      0.00
    7   16    8      0.93      0.00
    7   16    9      0.33      0.00
    7   16   10      1.90      0.00
    7   16   11      1.78      0.00
    7   16   12     -0.96      0.00
    7   16   13      0.49      0.00
    8   16    0     -3.19      0.00
    8   16    1     -1.78      0.00
    8   16    2     -0.10      0.00
    8   16    3      0.07      0.00
    8   16    4     -3.31      0.00
    8   16    5      1.22      0.00
    8   16    6     -0.19      0.00
    8   16    7      0.49      0.00
    8   16    8      0.74      0.00
    8   16    9      1.44      0.00
    8   16   10      0.88      0.00
    8   16   11     -2.06      0.00
    8   16   12      0.09      0.00
    8   16   13     -0.44      0.00
    9   16    0      0.48      0.00
    9   16    1      6.49      0.00
    9   16    2      1.30      0.00
    9   16    3      4.63      0.00
    9   16    4     -0.46      0.00
    9   16    5     -1.01      0.00
    9   16    6     -1.25      0.00
    9   16    7      5.22      0.00
    9   16    8     -0.02      0.00
    9   16    9     -3.07      0.00
    9   16   10      1.66      0.00
    9   16   11     -2.82      0.00
    9   16   12     -0.90      0.00
    9   16   13     -1.39      0.00
   10   16    0     -3.08      0.00
   10   16    1      0.70      0.00
   10   16    2      0.75      0.00
   10   16    3      1.31      0.00
   10   16    4     -2.28      0.00
   10   16    5     -1.39      0.00
   10   16    6     -1.95      0.00
   10   16    7      2.81      0.00
   10   16    8     -0.13      0.00
   10   16    9      0.04      0.00
   10   16   10     -3.02      0.00
   10   16   11      2.58      0.00
   10   16   12     -3.52      0.00
   10   16   13     -0.75      0.00
   11   16    0      0.75      0.00
   11   16    1     -1.78      0.00
   11   16    2      3.66      0.00
   11   16    3     -2.06      0.00
   11   16    4     -0.02      0.00
   11   16    5     -1.47      0.00
   11   16    6     -3.66      0.00
   11   16    7     -0.31      0.00
   11   16    8     -1.26      0.00
   11   16    9      0.80      0.00
   11   16   10     -3.25      0.00
   11   16   11     -0.93      0.00
   11   16   12     -0.93      0.00
   12   16    0      3.67      0.00
   12   16    1     -2.29      0.00
   12   16    2      5.04      0.00
   12   16    3     -2.22      0.00
   12   16    4      0.93      0.00
   12   16    5     -0.58      0.00
   12   16    6     -2.76      0.00
   12   16    7      0.56      0.00
   12   16    8     -1.12      0.00
   12   16    9      2.79      0.00
   12   16   10      4.80      0.00
   12   16   11     -2.47      0.00
   12   16   12     -1.95      0.00
   13   16    0     -6.40      0.00
   13   16    1     -1.08      0.00
   13   16    2     -0.89      0.00
   13   16    3     -2.95      0.00
   13   16    4     -3.41      0.00
   13   16    5     -1.75      0.00
   13   16    6      3.49      0.00
   13   16    7     -2.30      0.00
   13   16    8      0.64      0.00
   13   16    9      1.60      0.00
   13   16   10     -0.83      0.00
   13   16   11     -0.69      0.00
   13   16   12      2.55      0.00
   14   16    0     -2.39      0.00
   14   16    1      1.47      0.00
   14   16    2     -0.08      0.00
   14   16    3      1.00      0.00
   14   16    4     -0.41      0.00
   14   16    5      0.84      0.00
   14   16    6      0.84      0.00
   14   16    7     -3.20      0.00
   14   16    8     -0.51      0.00
   14   16    9      1.81      0.00
   14   16   10      1.26      0.00
   14   16   11      4.26      0.00
   15   16    0      0.45      0.00
   15   16    1     -3.11      0.00
   15   16    2      3.61      0.00
   15   16    3     -1.95      0.00
   15   16    4     -2.44      0.00
   15   16    5      3.94      0.00
   15   16    6     -0.46      0.00
   15   16    7      6.96      0.00
   15   16    8     -1.58      0.00
   15   16    9      3.73      0.00
   15   16   10      0.85      0.00
   15   16   11      2.40      0.00
   16   16    0      7.84      0.00
   16   16    2      8.04      0.00
   16   16    4     -6.79      0.00
   16   16    6     -6.17      0.00
   16   16    8      2.79      0.00
   16   16   10      6.30      0.00
    0   17    0     10.88      0.00
    0   17    1      7.09      0.00
    0   17    2     -0.65      0.00
    0   17    3      0.52      0.00
    0   17    4      2.31      0.00
    0   17    5      1.71      0.00
    0   17    6      1.28      0.00
    0   17    7     -4.28      0.00
    0   17    8      0.84      0.00
    0   17    9     -0.08      0.00
    0   17   10      1.17      0.00
    0   17   11      2.54      0.00
    0   17   12     -0.09      0.00
    0   17   13      1.65      0.00
    1   17    0      0.19      0.00
    1   17    1      2.75      0.00
    1   17    2     -1.39      0.00
    1   17    3     -0.57      0.00
    1   17    4     -6.06      0.00
    1   17    5     -0.17      0.00
    1   17    6      0.86      0.00
    1   17    7     -0.87      0.00
    1   17    8     -3.16      0.00
    1   17    9      1.73      0.00
    1   17   10      1.37      0.00
    1   17   11     -0.65      0.00
    1   17   12      1.24      0.00
    1   17   13     -1.55      0.00
    2   17    0      5.82      0.00
    2   17    1      4.41      0.00
    2   17    2     -3.66      0.00
    2   17    3     -3.73      0.00
    2   17    4     -1.25      0.00
    2   17    5     -0.76      0.00
    2   17    6     -0.07      0.00
    2   17    7     -2.92      0.00
    2   17    8     -2.26      0.00
    2   17    9     -0.61      0.00
    2   17   10      4.05      0.00
    2   17   11      2.18      0.00
    2   17   12     -3.09      0.00
    2   17   13      6.81      0.00
    3   17    0      6.40      0.00
    3   17    1      1.76      0.00
    3   17    2      1.74      0.00
    3   17    3     -1.43      0.00
    3   17    4     -0.50      0.00
    3   17    5      1.75      0.00
    3   17    6      3.14      0.00
    3   17    7     -1.31      0.00
    3   17    8      1.81      0.00
    3   17    9     -2.05      0.00
    3   17   10     -0.98      0.00
    3   17   11     -3.25      0.00
    3   17   12      0.18      0.00
    3   17   13     -0.35      0.00
    4   17    0      3.62      0.00
    4   17    1     -0.86      0.00
    4   17    2     -2.67      0.00
    4   17    3     -3.66      0.00
    4   17    4      0.24      0.00
    4   17    5      3.64      0.00
    4   17    6      1.27      0.00
    4   17    7     -2.06      0.00
    4   17    8      1.16      0.00
    4   17    9      2.31      0.00
    4   17   10      4.01      0.00
    4   17   11      4.85      0.00
    4   17   12      5.90      0.00
    4   17   13     -0.64      0.00
    5   17    0      4.45      0.00
    5   17    1      6.60      0.00
    5   17    2      1.73      0.00
    5   17    3      2.42      0.00
    5   17    4      1.73      0.00
    5   17    5      2.79      0.00
    5   17    6     -1.34      0.00
    5   17    7     -0.07      0.00
    5   17    8     -2.14      0.00
    5   17    9     -4.69      0.00
    5   17   10     -0.57      0.00
    5   17   11     -4.58      0.00
    5   17   12     -4.60      0.00
    5   17   13      2.23      0.00
    6   17    0     -7.26      0.00
    6   17    1     -4.12      0.00
    6   17    2     -5.74      0.00
    6   17    3     -0.35      0.00
    6   17    4      0.50      0.00
    6   17    5      3.24      0.00
    6   17    6      2.47      0.00
    6   17    7     -3.38      0.00
    6   17    8     -0.68      0.00
    6   17    9     -0.78      0.00
    6   17   10      7.17      0.00
    6   17   11      4.15      0.00
    6   17   12      4.05      0.00
    6   17   13      0.28      0.00
    7   17    0     -0.27      0.00
    7   17    1      0.06      0.00
    7   17    2      0.21      0.00
    7   17    3      2.17      0.00
    7   17    4      0.92      0.00
    7   17    5      0.09      0.00
    7   17    6      2.18      0.00
    7   17    7     -1.33      0.00
    7   17    8     -0.83      0.00
    7   17    9     -2.78      0.00
    7   17   10      2.62      0.00
    7   17   11     -1.28      0.00
    7   17   12      0.19      0.00
    7   17   13      3.57      0.00
    8   17    0      1.16      0.00
    8   17    1     -0.96      0.00
    8   17    2      0.69      0.00
    8   17    3      1.44      0.00
    8   17    4      2.80      0.00
    8   17    5      0.79      0.00
    8   17    6      1.42      0.00
    8   17    7      0.23      0.00
    8   17    8     -2.62      0.00
    8   17    9     -1.27      0.00
    8   17   10      2.55      0.00
    8   17   11      2.92      0.00
    8   17   12      0.94      0.00
    8   17   13      2.47      0.00
    9   17    0      0.99      0.00
    9   17    1     -3.86      0.00
    9   17    2     -1.85      0.00
    9   17    3     -6.73      0.00
    9   17    4      1.68      0.00
    9   17    5      2.07      0.00
    9   17    6     -1.35      0.00
    9   17    7      1.38      0.00
    9   17    8     -1.29      0.00
    9   17    9     -0.15      0.00
    9   17   10     -1.35      0.00
    9   17   11     -1.03      0.00
    9   17   12      0.54      0.00
    9   17   13      0.59      0.00
   10   17    0      5.64      0.00
   10   17    1      3.61      0.00
   10   17    2      0.31      0.00
   10   17    3      2.34      0.00
   10   17    4      1.09      0.00
   10   17    5      0.93      0.00
   10   17    6      0.06      0.00
   10   17    7      0.93      0.00
   10   17    8      1.58      0.00
   10   17    9     -1.33      0.00
   10   17   10      3.45      0.00
   10   17   11     -2.21      0.00
   10   17   12     -0.60      0.00
   11   17    0     -3.06      0.00
   11   17    1      0.49      0.00
   11   17    2     -2.15      0.00
   11   17    3     -0.02      0.00
   11   17    4     -1.66      0.00
   11   17    5     -2.74      0.00
   11   17    6      3.71      0.00
   11   17    7     -3.43      0.00
   11   17    8     -0.86      0.00
   11   17    9      1.58      0.00
   11   17   10      2.25      0.00
   11   17   11     -0.84      0.00
   11   17   12     -4.15      0.00
   12   17    0      4.60      0.00
   12   17    1      3.64      0.00
   12   17    2      2.38      0.00
   12   17    3      0.42      0.00
   12   17    4      1.12      0.00
   12   17    5     -1.61      0.00
   12   17    6     -1.37      0.00
   12   17    7      2.47      0.00
   12   17    8     -2.95      0.00
   12   17    9      1.80      0.00
   12   17   10     -5.07      0.00
   12   17   11     -0.45      0.00
   12   17   12      1.29      0.00
   13   17    0      1.22      0.00
   13   17    1     -5.37      0.00
   13   17    2      4.02      0.00
   13   17    3     -4.96      0.00
   13   17    4      0.11      0.00
   13   17    5      4.34      0.00
   13   17    6     -1.65      0.00
   13   17    7      0.52      0.00
   13   17    8     -1.38      0.00
   13   17    9      5.21      0.00
   13   17   10     -0.54      0.00
   13   17   11     -0.42      0.00
   14   17    0      2.02      0.00
   14   17    1      3.08      0.00
   14   17    2     -3.10      0.00
   14   17    3     -3.95      0.00
   14   17    4      0.76      0.00
   14   17    5     -1.73      0.00
   14   17    6      4.44      0.00
   14   17    7      0.49      0.00
   14   17    8      2.30      0.00
   14   17    9     -0.41      0.00
   14   17   10     -1.31      0.00
   14   17   11     -4.20      0.00
   15   17    0     -2.42      0.00
   15   17    1      6.73      0.00
   15   17    2     -6.31      0.00
   15   17    3     -1.57      0.00
   15   17    4     -5.37      0.00
   15   17    5      0.83      0.00
   15   17    6      0.27      0.00
   15   17    7     -2.46      0.00
   15   17    8      1.99      0.00
   15   17    9      4.60      0.00
   15   17   10      2.46      0.00
   16   17    0     10.11      0.00
   16   17    1      0.21      0.00
   16   17    2      1.29      0.00
   16   17    3     -8.48      0.00
   16   17    4     -2.69      0.00
   16   17    5     -1.01      0.00
   16   17    6      1.58      0.00
   16   17    7      1.67      0.00
   16   17    8     -1.00      0.00
   16   17    9      2.02      0.00
   17   17    2     -9.81      0.00
   17   17    4      3.24      0.00
   17   17    8     -3.40      0.00
    0   18    0      2.33      0.00
    0   18    1     -7.09      0.00
    0   18    2      6.69      0.00
    0   18    3      3.09      0.00
    0   18    4      4.97      0.00
    0   18    5     -4.57      0.00
    0   18    6      3.61      0.00
    0   18    7      0.87      0.00
    0   18    8      0.41      0.00
    0   18    9      4.14      0.00
    0   18   10      0.05      0.00
    0   18   11      1.42      0.00
    0   18   12      5.17      0.00
    1   18    0     -7.34      0.00
    1   18    1     -4.37      0.00
    1   18    2      0.01      0.00
    1   18    3      0.18      0.00
    1   18    4     -0.10      0.00
    1   18    5     -0.32      0.00
    1   18    6      0.57      0.00
    1   18    7     -3.72      0.00
    1   18    8      1.20      0.00
    1   18    9     -0.07      0.00
    1   18   10      0.31      0.00
    1   18   11      3.31      0.00
    1   18   12     -0.48      0.00
    1   18   13      6.92      0.00
    2   18    0     -8.14      0.00
    2   18    1     -2.70      0.00
    2   18    2     -0.87      0.00
    2   18    3      4.83      0.00
    2   18    4     -6.42      0.00
    2   18    5      0.92      0.00
    2   18    6     -3.48      0.00
    2   18    7      0.06      0.00
    2   18    8      1.99      0.00
    2   18    9      0.66      0.00
    2   18   10      1.59      0.00
    2   18   11     -2.32      0.00
    2   18   12     -0.43      0.00
    2   18   13     -1.24      0.00
    3   18    0     -0.14      0.00
    3   18    1     -1.44      0.00
    3   18    2      2.96      0.00
    3   18    3     -0.44      0.00
    3   18    4     -2.51      0.00
    3   18    5     -1.06      0.00
    3   18    6      3.16      0.00
    3   18    7     -0.45      0.00
    3   18    8      1.97      0.00
    3   18    9     -0.08      0.00
    3   18   10     -2.51      0.00
    3   18   11      2.67      0.00
    3   18   12      2.46      0.00
    3   18   13      5.30      0.00
    4   18    0     -1.47      0.00
    4   18    1     -2.59      0.00
    4   18    2     -1.27      0.00
    4   18    3      0.07      0.00
    4   18    4      0.17      0.00
    4   18    5     -1.65      0.00
    4   18    6     -2.65      0.00
    4   18    7     -0.10      0.00
    4   18    8      1.78      0.00
    4   18    9     -3.36      0.00
    4   18   10     -1.39      0.00
    4   18   11     -1.08      0.00
    4   18   12      0.09      0.00
    4   18   13      2.30      0.00
    5   18    0      4.75      0.00
    5   18    1      2.45      0.00
    5   18    2      3.82      0.00
    5   18    3     -0.45      0.00
    5   18    4     -1.26      0.00
    5   18    5      0.28      0.00
    5   18    6      2.53      0.00
    5   18    7      0.23      0.00
    5   18    8     -0.64      0.00
    5   18    9      0.20      0.00
    5   18   10     -0.25      0.00
    5   18   11     -0.64      0.00
    5   18   12      2.15      0.00
    5   18   13      1.20      0.00
    6   18    0     -2.43      0.00
    6   18    1     -1.46      0.00
    6   18    2      5.84      0.00
    6   18    3     -0.51      0.00
    6   18    4     -0.59      0.00
    6   18    5     -3.19      0.00
    6   18    6     -4.99      0.00
    6   18    7     -0.83      0.00
    6   18    8     -0.75      0.00
    6   18    9    -12.09      0.00
    6   18   10     -5.83      0.00
    6   18   11     -2.57      0.00
    6   18   12      0.80      0.00
    6   18   13     -0.46      0.00
    7   18    0     -3.85      0.00
    7   18    1      0.17      0.00
    7   18    2     -0.26      0.00
    7   18    3      0.58      0.00
    7   18    4     -1.73      0.00
    7   18    5      0.85      0.00
    7   18    6     -2.36      0.00
    7   18    7     -0.35      0.00
    7   18    8      0.15      0.00
    7   18    9     -0.04      0.00
    7   18   10      0.20      0.00
    7   18   11      0.16      0.00
    7   18   12      4.21      0.00
    7   18   13      1.14      0.00
    8   18    0      5.83      0.00
    8   18    1      5.74      0.00
    8   18    2      4.43      0.00
    8   18    3      4.35      0.00
    8   18    4     -1.06      0.00
    8   18    5      1.09      0.00
    8   18    6      2.83      0.00
    8   18    7      0.75      0.00
    8   18    8     -0.80      0.00
    8   18    9     -3.18      0.00
    8   18   10     -2.46      0.00
    8   18   11     -0.09      0.00
    8   18   12     -1.40      0.00
    9   18    0     -6.25      0.00
    9   18    1     -3.10      0.00
    9   18    2     -0.96      0.00
    9   18    3     -1.11      0.00
    9   18    4      3.52      0.00
    9   18    5     -4.87      0.00
    9   18    6      0.41      0.00
    9   18    7      0.92      0.00
    9   18    8      0.55      0.00
    9   18    9     -2.00      0.00
    9   18   10     -1.32      0.00
    9   18   11     -0.23      0.00
    9   18   12      2.51      0.00
   10   18    0      0.05      0.00
   10   18    1     -1.63      0.00
   10   18    2      3.76      0.00
   10   18    3      0.58      0.00
   10   18    4     -2.55      0.00
   10   18    5      1.41      0.00
   10   18    6      0.17      0.00
   10   18    7      2.53      0.00
   10   18    8     -0.25      0.00
   10   18    9      0.29      0.00
   10   18   10     -0.85      0.00
   10   18   11      1.51      0.00
   10   18   12      0.63      0.00
   11   18    0     -0.22      0.00
   11   18    1      0.70      0.00
   11   18    2      1.28      0.00
   11   18    3      3.66      0.00
   11   18    4      0.66      0.00
   11   18    5      1.40      0.00
   11   18    6      0.45      0.00
   11   18    7      0.34      0.00
   11   18    8      1.37      0.00
   11   18    9     -1.19      0.00
   11   18   10     -1.47      0.00
   11   18   11      2.43      0.00
   12   18    0     -2.34      0.00
   12   18    1      1.53      0.00
   12   18    2      0.84      0.00
   12   18    3     -0.82      0.00
   12   18    4      0.07      0.00
   12   18    5     -0.70      0.00
   12   18    6     -1.39      0.00
   12   18    7     -2.36      0.00
   12   18    8      1.30      0.00
   12   18    9      1.43      0.00
   12   18   10      1.87      0.00
   12   18   11     -0.19      0.00
   13   18    0     -2.39      0.00
   13   18    1      2.79      0.00
   13   18    2      0.49      0.00
   13   18    3      0.86      0.00
   13   18    4      1.01      0.00
   13   18    5      0.32      0.00
   13   18    6      2.28      0.00
   13   18    7     -3.50      0.00
   13   18    8     -0.85      0.00
   13   18    9      5.05      0.00
   13   18   10     -2.82      0.00
   13   18   11      3.08      0.00
   14   18    0      0.96      0.00
   14   18    1     -0.24      0.00
   14   18    2      0.08      0.00
   14   18    3      1.14      0.00
   14   18    4      0.62      0.00
   14   18    5     -4.32      0.00
   14   18    6      8.18      0.00
   14   18    7      1.42      0.00
   14   18    8     -2.90      0.00
   14   18    9      2.91      0.00
   14   18   10      2.72      0.00
   15   18    0      0.04      0.00
   15   18    1      1.90      0.00
   15   18    2      7.61      0.00
   15   18    3     -5.84      0.00
   15   18    4     -4.01      0.00
   15   18    5     -1.54      0.00
   15   18    6     -2.09      0.00
   15   18    7     -4.22      0.00
   15   18    8      6.78      0.00
   15   18    9     -2.46      0.00
   15   18   10      0.88      0.00
   16   18    0      5.39      0.00
   16   18    1      6.62      0.00
   16   18    2     -8.01      0.00
   16   18    3      2.00      0.00
   16   18    4      4.38      0.00
   16   18    5      1.61      0.00
   16   18    6     -2.32      0.00
   16   18    7     -2.07      0.00
   16   18    8     -0.38      0.00
   16   18    9      1.39      0.00
   17   18    0      8.73      0.00
   17   18    2     -1.01      0.00
   17   18    3      2.57      0.00
   17   18    4     -6.78      0.00
   17   18    6     -0.45      0.00
   17   18    7     -1.71      0.00
   17   18    8     -1.75      0.00
   18   18    0      3.92      0.00
   18   18    6      5.07      0.00
    0   19    0      1.80      0.00
    0   19    1      3.96      0.00
    0   19    2     -0.33      0.00
    0   19    3      3.58      0.00
    0   19    4     -1.36      0.00
    0   19    5      2.12      0.00
    0   19    6     -2.07      0.00
    0   19    7     -0.81      0.00
    0   19    8     -0.69      0.00
    0   19    9      1.44      0.00
    0   19   10     -1.29      0.00
    0   19   11      1.41      0.00
    0   19   12     -4.47      0.00
    1   19    0      6.68      0.00
    1   19    1      6.55      0.00
    1   19    2      1.28      0.00
    1   19    3     -1.44      0.00
    1   19    4      0.62      0.00
    1   19    5      2.08      0.00
    1   19    6      1.00      0.00
    1   19    7     -1.90      0.00
    1   19    8      1.20      0.00
    1   19    9      0.58      0.00
    1   19   10     -0.38      0.00
    1   19   11      2.51      0.00
    1   19   12      0.01      0.00
    2   19    0      3.32      0.00
    2   19    1     -0.91      0.00
    2   19    2      2.09      0.00
    2   19    3     -0.31      0.00
    2   19    4     -0.66      0.00
    2   19    5     -3.91      0.00
    2   19    6      1.71      0.00
    2   19    7      2.07      0.00
    2   19    8     -0.83      0.00
    2   19    9     -0.60      0.00
    2   19   10     -0.47      0.00
    2   19   11      0.57      0.00
    2   19   12     -3.43      0.00
    3   19    0      8.97      0.00
    3   19    1      0.43      0.00
    3   19    2     -1.68      0.00
    3   19    3     -3.37      0.00
    3   19    4     -1.65      0.00
    3   19    5      3.85      0.00
    3   19    6     -3.13      0.00
    3   19    7     -2.07      0.00
    3   19    8     -1.38      0.00
    3   19    9      1.22      0.00
    3   19   10     -1.49      0.00
    3   19   11      2.15      0.00
    3   19   12     -1.12      0.00
    4   19    0      2.07      0.00
    4   19    1      4.80      0.00
    4   19    2     -2.25      0.00
    4   19    3      1.60      0.00
    4   19    4      0.14      0.00
    4   19    5      1.62      0.00
    4   19    6     -0.67      0.00
    4   19    7     -0.30      0.00
    4   19    8      0.65      0.00
    4   19    9      0.51      0.00
    4   19   10      0.94      0.00
    4   19   11      0.12      0.00
    4   19   12     -2.65      0.00
    5   19    0     -0.04      0.00
    5   19    1     -1.34      0.00
    5   19    2     -4.15      0.00
    5   19    3     -3.05      0.00
    5   19    4      1.08      0.00
    5   19    5      4.43      0.00
    5   19    6     -2.24      0.00
    5   19    7     -0.64      0.00
    5   19    8      0.37      0.00
    5   19    9     -1.99      0.00
    5   19   10      2.91      0.00
    5   19   11      1.25      0.00
    5   19   12      2.60      0.00
    6   19    0      2.94      0.00
    6   19    1      3.08      0.00
    6   19    2      2.28      0.00
    6   19    3      0.83      0.00
    6   19    4      2.79      0.00
    6   19    5      0.50      0.00
    6   19    6      0.49      0.00
    6   19    7     -0.64      0.00
    6   19    8     -1.51      0.00
    6   19    9      2.77      0.00
    6   19   10     -0.08      0.00
    6   19   11      2.12      0.00
    6   19   12     -5.02      0.00
    7   19    0     -4.22      0.00
    7   19    1     -4.52      0.00
    7   19    2     -4.29      0.00
    7   19    3     -4.11      0.00
    7   19    4      1.63      0.00
    7   19    5      0.67      0.00
    7   19    6     -1.51      0.00
    7   19    7      0.84      0.00
    7   19    8     -2.95      0.00
    7   19    9     -1.76      0.00
    7   19   10      0.60      0.00
    7   19   11      2.97      0.00
    7   19   12      1.58      0.00
    8   19    0     -0.47      0.00
    8   19    1      2.52      0.00
    8   19    2     -0.12      0.00
    8   19    3     -1.14      0.00
    8   19    4     -1.31      0.00
    8   19    5      0.21      0.00
    8   19    6      0.12      0.00
    8   19    7     -0.29      0.00
    8   19    8      0.77      0.00
    8   19    9      2.72      0.00
    8   19   10      1.98      0.00
    8   19   11     -0.93      0.00
    8   19   12     -4.42      0.00
    9   19    0      1.63      0.00
    9   19    1      4.84      0.00
    9   19    2      0.18      0.00
    9   19    3     -1.41      0.00
    9   19    4     -2.88      0.00
    9   19    5      1.91      0.00
    9   19    6     -2.92      0.00
    9   19    7     -0.29      0.00
    9   19    8      3.08      0.00
    9   19    9      0.92      0.00
    9   19   10     -1.22      0.00
    9   19   11      2.19      0.00
    9   19   12      2.81      0.00
   10   19    0      0.96      0.00
   10   19    1     -1.85      0.00
   10   19    2     -5.99      0.00
   10   19    3     -2.14      0.00
   10   19    4     -3.46      0.00
   10   19    5      0.59      0.00
   10   19    6     -1.35      0.00
   10   19    7      1.50      0.00
   10   19    8     -3.94      0.00
   10   19    9      0.62      0.00
   10   19   10     -4.42      0.00
   10   19   11      0.28      0.00
   11   19    0      3.90      0.00
   11   19    1      3.89      0.00
   11   19    2      2.57      0.00
   11   19    3      0.38      0.00
   11   19    4      0.41      0.00
   11   19    5     -2.04      0.00
   11   19    6      1.70      0.00
   11   19    7     -0.47      0.00
   11   19    8      0.17      0.00
   11   19    9      3.89      0.00
   11   19   10      1.67      0.00
   11   19   11      1.39      0.00
   12   19    0     -1.34      0.00
   12   19    1     -3.47      0.00
   12   19    2      1.66      0.00
   12   19    3     -3.08      0.00
   12   19    4      0.24      0.00
   12   19    5      0.83      0.00
   12   19    6     -1.32      0.00
   12   19    7     -3.65      0.00
   12   19    8      1.54      0.00
   12   19    9     -1.55      0.00
   12   19   10     -0.15      0.00
   13   19    0      4.35      0.00
   13   19    1      1.58      0.00
   13   19    2      4.75      0.00
   13   19    3      1.20      0.00
   13   19    4      0.10      0.00
   13   19    5      2.06      0.00
   13   19    6      3.04      0.00
   13   19    7     -4.66      0.00
   13   19    8      0.07      0.00
   13   19    9      0.55      0.00
   14   19    0     -1.35      0.00
   14   19    1      0.96      0.00
   14   19    2     -1.51      0.00
   14   19    3      4.46      0.00
   14   19    4      5.99      0.00
   14   19    5      3.11      0.00
   14   19    6      2.05      0.00
   14   19    7      0.30      0.00
   14   19    8      3.68      0.00
   15   19    0     -2.42      0.00
   15   19    1     11.11      0.00
   15   19    2     -3.03      0.00
   15   19    3      1.43      0.00
   15   19    4      1.83      0.00
   15   19    5      1.32      0.00
   15   19    6      0.25      0.00
   15   19    7     -2.11      0.00
   15   19    8      0.06      0.00
   15   19    9      2.27      0.00
   16   19    0     19.04      0.00
   16   19    1      4.28      0.00
   16   19    2      9.17      0.00
   16   19    3      4.29      0.00
   16   19    4     -6.69      0.00
   16   19    5     -4.24      0.00
   16   19    6     -3.79      0.00
   16   19    7     -7.15      0.00
   16   19    8     -0.83      0.00
   17   19    1     -9.69      0.00
   17   19    2     -9.39      0.00
   17   19    3      7.20      0.00
   17   19    4      4.42      0.00
   17   19    7     -2.61      0.00
   18   19    0      6.41      0.00
   18   19    1     -0.51      0.00
   18   19    2      2.58      0.00
   18   19    3     -5.45      0.00
   18   19    5    -14.49      0.00
   18   19    6     -1.87      0.00
    0   20    0     -1.09      0.00
    0   20    1     -7.30      0.00
    0   20    2     -3.67      0.00
    0   20    3     -1.40      0.00
    0   20    4     -2.15      0.00
    0   20    5     -0.79      0.00
    0   20    6     -4.89      0.00
    0   20    7      4.54      0.00
    0   20    8     -1.06      0.00
    0   20    9      0.24      0.00
    0   20   10     -1.92      0.00
    0   20   11      6.07      0.00
    1   20    0     -2.54      0.00
    1   20    1     -0.14      0.00
    1   20    2     -0.58      0.00
    1   20    3      2.92      0.00
    1   20    4      1.89      0.00
    1   20    5     -0.21      0.00
    1   20    6     -0.94      0.00
    1   20    7     -0.12      0.00
    1   20    8      1.54      0.00
    1   20    9      0.95      0.00
    1   20   10     -1.59      0.00
    1   20   11      0.83      0.00
    2   20    0     -4.40      0.00
    2   20    1      1.86      0.00
    2   20    2     -1.08      0.00
    2   20    3     -0.03      0.00
    2   20    4     -3.78      0.00
    2   20    5     -0.48      0.00
    2   20    6      0.42      0.00
    2   20    7     -1.13      0.00
    2   20    8      0.93      0.00
    2   20    9     -1.30      0.00
    2   20   10      1.40      0.00
    2   20   11     -0.57      0.00
    2   20   12     -4.90      0.00
    3   20    0     -1.93      0.00
    3   20    1     -3.97      0.00
    3   20    2     -1.13      0.00
    3   20    3      5.29      0.00
    3   20    4     -2.80      0.00
    3   20    5     -3.63      0.00
    3   20    6     -2.98      0.00
    3   20    7      1.87      0.00
    3   20    8      3.53      0.00
    3   20    9      0.55      0.00
    3   20   10     -0.74      0.00
    3   20   11      0.21      0.00
    3   20   12     -0.82      0.00
    4   20    0     14.58      0.00
    4   20    1      2.87      0.00
    4   20    2      4.93      0.00
    4   20    3      0.98      0.00
    4   20    4      5.01      0.00
    4   20    5      0.17      0.00
    4   20    6      3.02      0.00
    4   20    7      0.87      0.00
    4   20    8      0.88      0.00
    4   20    9     -0.07      0.00
    4   20   10     -2.47      0.00
    4   20   11     -2.65      0.00
    4   20   12     -7.48      0.00
    5   20    0     -3.86      0.00
    5   20    1     -0.56      0.00
    5   20    2     -2.57      0.00
    5   20    3      2.96      0.00
    5   20    4     -0.41      0.00
    5   20    5     -1.99      0.00
    5   20    6     -3.22      0.00
    5   20    7      3.29      0.00
    5   20    8     -0.73      0.00
    5   20    9      0.72      0.00
    5   20   10      0.61      0.00
    5   20   11     -4.18      0.00
    5   20   12     -1.48      0.00
    6   20    0     -0.85      0.00
    6   20    1      3.02      0.00
    6   20    2     -0.61      0.00
    6   20    3      1.93      0.00
    6   20    4     -0.04      0.00
    6   20    5      2.54      0.00
    6   20    6     -0.42      0.00
    6   20    7      0.71      0.00
    6   20    8      1.34      0.00
    6   20    9     -2.90      0.00
    6   20   10     -2.90      0.00
    6   20   11     -1.62      0.00
    6   20   12     -2.20      0.00
    7   20    0     -0.20      0.00
    7   20    1      0.94      0.00
    7   20    2      4.20      0.00
    7   20    3      1.73      0.00
    7   20    4      0.11      0.00
    7   20    5     -1.47      0.00
    7   20    6     -0.97      0.00
    7   20    7      1.02      0.00
    7   20    8     -0.41      0.00
    7   20    9     -1.75      0.00
    7   20   10     -1.34      0.00
    7   20   11     -0.10      0.00
    8   20    0     -4.85      0.00
    8   20    1     -2.46      0.00
    8   20    2     -3.15      0.00
    8   20    3     -0.45      0.00
    8   20    4     -1.67      0.00
    8   20    5     -1.30      0.00
    8   20    6      1.09      0.00
    8   20    7     -0.29      0.00
    8   20    8     -2.06      0.00
    8   20    9      3.48      0.00
    8   20   10     -1.51      0.00
    8   20   11     -1.64      0.00
    9   20    0      1.83      0.00
    9   20    1      2.97      0.00
    9   20    2      0.96      0.00
    9   20    3      1.39      0.00
    9   20    4      2.91      0.00
    9   20    5     -0.45      0.00
    9   20    6      3.43      0.00
    9   20    7      3.40      0.00
    9   20    8     -0.57      0.00
    9   20    9     -0.25      0.00
    9   20   10      0.59      0.00
    9   20   11     -0.30      0.00
   10   20    0     -1.32      0.00
   10   20    1     -5.66      0.00
   10   20    2      3.23      0.00
   10   20    3      0.76      0.00
   10   20    4     -0.16      0.00
   10   20    5      1.38      0.00
   10   20    6      0.11      0.00
   10   20    7      0.68      0.00
   10   20    8      3.76      0.00
   10   20    9      2.26      0.00
   10   20   10      1.15      0.00
   10   20   11      0.70      0.00
   11   20    0     -3.35      0.00
   11   20    1      0.04      0.00
   11   20    2      0.55      0.00
   11   20    3      2.73      0.00
   11   20    4     -3.45      0.00
   11   20    5      1.41      0.00
   11   20    6      3.37      0.00
   11   20    7      0.75      0.00
   11   20    8     -0.97      0.00
   11   20    9     -1.70      0.00
   11   20   10     -1.89      0.00
   12   20    0     -0.12      0.00
   12   20    1      2.73      0.00
   12   20    2      1.99      0.00
   12   20    3      1.68      0.00
   12   20    4      4.64      0.00
   12   20    5      2.55      0.00
   12   20    6     -0.47      0.00
   12   20    7      3.45      0.00
   12   20    8      2.04      0.00
   12   20    9     -1.23      0.00
   12   20   10     -7.22      0.00
   13   20    0     -0.58      0.00
   13   20    1     -2.10      0.00
   13   20    2     -0.30      0.00
   13   20    3      2.28      0.00
   13   20    4      1.41      0.00
   13   20    5      3.38      0.00
   13   20    6      1.05      0.00
   13   20    7      4.67      0.00
   13   20    8     -2.61      0.00
   13   20    9      8.67      0.00
   14   20    0      4.14      0.00
   14   20    1     -4.38      0.00
   14   20    2      1.87      0.00
   14   20    3      1.06      0.00
   14   20    4     -2.01      0.00
   14   20    5      0.39      0.00
   14   20    6      0.02      0.00
   14   20    7      4.52      0.00
   14   20    8     -2.72      0.00
   14   20    9     -8.31      0.00
   15   20    0     19.04      0.00
   15   20    1      1.42      0.00
   15   20    2      5.17      0.00
   15   20    3     -1.09      0.00
   15   20    4     -2.13      0.00
   15   20    5     -7.30      0.00
   15   20    6      6.59      0.00
   15   20    7     -2.74      0.00
   15   20    8      8.05      0.00
   16   20    1     14.91      0.00
   16   20    2     -3.77      0.00
   16   20    3     -7.35      0.00
   16   20    4     -4.64      0.00
   16   20    5     -1.80      0.00
   16   20    6    -11.87      0.00
   16   20    7     -5.38      0.00
   17   20    1     -4.17      0.00
   17   20    2     -4.76      0.00
   17   20    6    -11.56      0.00
   18   20    1     14.01      0.00
   18   20    2     -8.75      0.00
   18   20    3      2.66      0.00
   18   20    4    -20.28      0.00
   19   20    0     10.76      0.00
   19   20    1      5.46      0.00
   19   20    2     -2.69      0.00
    0   21    0      0.40      0.00
    0   21    1      2.17      0.00
    0   21    2     -0.94      0.00
    0   21    3     -0.41      0.00
    0   21    4      1.93      0.00
    0   21    5     10.87      0.00
    0   21    6      1.53      0.00
    0   21    7     -3.15      0.00
    0   21    8     -0.76      0.00
    0   21    9     -1.48      0.00
    0   21   10      1.55      0.00
    1   21    0      0.76      0.00
    1   21    1     -1.36      0.00
    1   21    2      2.75      0.00
    1   21    3      2.14      0.00
    1   21    4      2.54      0.00
    1   21    5     -0.07      0.00
    1   21    6      2.72      0.00
    1   21    7      1.42      0.00
    1   21    8     -0.01      0.00
    1   21    9     -0.64      0.00
    1   21   10      0.54      0.00
    1   21   11      5.72      0.00
    2   21    0      3.17      0.00
    2   21    1     -0.02      0.00
    2   21    2      1.12      0.00
    2   21    3      0.46      0.00
    2   21    4     -0.27      0.00
    2   21    5      2.61      0.00
    2   21    6      3.32      0.00
    2   21    7     -0.15      0.00
    2   21    8     -1.82      0.00
    2   21    9      0.13      0.00
    2   21   10     -0.27      0.00
    2   21   11     -0.10      0.00
    3   21    0     -0.33      0.00
    3   21    1     -1.30      0.00
    3   21    2     -1.93      0.00
    3   21    3      1.02      0.00
    3   21    4     -3.72      0.00
    3   21    5      0.03      0.00
    3   21    6      3.49      0.00
    3   21    7      1.94      0.00
    3   21    8      3.73      0.00
    3   21    9     -2.06      0.00
    3   21   10      2.85      0.00
    3   21   11      2.13      0.00
    4   21    0      2.51      0.00
    4   21    1     -0.21      0.00
    4   21    2      0.72      0.00
    4   21    3     -0.93      0.00
    4   21    4     -1.53      0.00
    4   21    5      0.49      0.00
    4   21    6      2.83      0.00
    4   21    7      0.62      0.00
    4   21    8      2.63      0.00
    4   21    9      2.72      0.00
    4   21   10      0.67      0.00
    4   21   11     -1.06      0.00
    5   21    0      8.89      0.00
    5   21    1     -0.54      0.00
    5   21    2      2.54      0.00
    5   21    3     -2.32      0.00
    5   21    4     -1.78      0.00
    5   21    5     -1.28      0.00
    5   21    6      1.01      0.00
    5   21    7     -0.78      0.00
    5   21    8      0.38      0.00
    5   21    9     -1.05      0.00
    5   21   10     -1.12      0.00
    5   21   11     -0.86      0.00
    6   21    0     -5.59      0.00
    6   21    1     -1.15      0.00
    6   21    2     -2.94      0.00
    6   21    3     -0.71      0.00
    6   21    4     -3.32      0.00
    6   21    5     -2.01      0.00
    6   21    6      1.49      0.00
    6   21    7      1.92      0.00
    6   21    8      2.13      0.00
    6   21    9     -2.40      0.00
    6   21   10      0.10      0.00
    6   21   11     -1.85      0.00
    7   21    0      3.62      0.00
    7   21    1      1.85      0.00
    7   21    2      2.06      0.00
    7   21    3      0.79      0.00
    7   21    4     -0.76      0.00
    7   21    5     -0.13      0.00
    7   21    6     -0.85      0.00
    7   21    7      0.50      0.00
    7   21    8     -0.82      0.00
    7   21    9     -3.15      0.00
    7   21   10     -1.16      0.00
    7   21   11     -1.81      0.00
    8   21    0     -4.59      0.00
    8   21    1     -1.18      0.00
    8   21    2      1.12      0.00
    8   21    3     -2.73      0.00
    8   21    4     -1.16      0.00
    8   21    5      0.47      0.00
    8   21    6      2.27      0.00
    8   21    7     -3.96      0.00
    8   21    8      1.34      0.00
    8   21    9      1.31      0.00
    8   21   10      1.15      0.00
    9   21    0     -1.29      0.00
    9   21    1     -1.90      0.00
    9   21    2      0.55      0.00
    9   21    3     -0.27      0.00
    9   21    4     -0.40      0.00
    9   21    5     -1.74      0.00
    9   21    6      1.32      0.00
    9   21    7     -0.56      0.00
    9   21    8      1.19      0.00
    9   21    9      3.47      0.00
    9   21   10     -4.40      0.00
   10   21    0     -3.10      0.00
   10   21    1      1.82      0.00
   10   21    2      0.95      0.00
   10   21    3      3.10      0.00
   10   21    4     -1.84      0.00
   10   21    5      3.73      0.00
   10   21    6      0.75      0.00
   10   21    7      0.99      0.00
   10   21    8      1.04      0.00
   10   21    9     -0.11      0.00
   10   21   10     -0.16      0.00
   11   21    0     -2.32      0.00
   11   21    1     -3.17      0.00
   11   21    2     -1.45      0.00
   11   21    3      0.47      0.00
   11   21    4     -3.67      0.00
   11   21    5     -1.24      0.00
   11   21    6     -0.22      0.00
   11   21    7      5.11      0.00
   11   21    8     -3.87      0.00
   11   21    9     -1.80      0.00
   12   21    0      2.09      0.00
   12   21    1     -1.02      0.00
   12   21    2      8.24      0.00
   12   21    3     -4.14      0.00
   12   21    4      0.37      0.00
   12   21    5     -4.58      0.00
   12   21    6     -2.62      0.00
   12   21    7     -5.74      0.00
   12   21    8      2.68      0.00
   12   21    9     -1.49      0.00
   13   21    0     -2.87      0.00
   13   21    1     -1.00      0.00
   13   21    2      5.28      0.00
   13   21    3      1.37      0.00
   13   21    4      1.08      0.00
   13   21    5     -1.00      0.00
   13   21    6      4.25      0.00
   13   21    7      0.16      0.00
   13   21    8      1.62      0.00
   14   21    0      0.65      0.00
   14   21    1     -0.59      0.00
   14   21    2     -3.36      0.00
   14   21    3     -0.04      0.00
   14   21    4     -2.83      0.00
   14   21    5     -5.40      0.00
   14   21    6     -4.29      0.00
   14   21    7      5.68      0.00
   14   21    8     -8.38      0.00
   15   21    0     -3.24      0.00
   15   21    1     11.28      0.00
   15   21    2      2.93      0.00
   15   21    3      6.34      0.00
   15   21    4     -1.34      0.00
   15   21    5      3.62      0.00
   15   21    6     -5.18      0.00
   15   21    7      7.09      0.00
   16   21    0     28.67      0.00
   16   21    1     -9.60      0.00
   16   21    2      6.36      0.00
   16   21    3     -2.76      0.00
   16   21    4     -2.33      0.00
   16   21    5     -8.27      0.00
   16   21    6      7.47      0.00
   17   21    0      3.06      0.00
   17   21    1     -4.22      0.00
   17   21    2     -0.18      0.00
   17   21    3     -1.03      0.00
   17   21    5      4.55      0.00
   18   21    0     18.67      0.00
   19   21    0     -6.80      0.00
   19   21    1      6.72      0.00
    0   22    0      7.40      0.00
    0   22    1      5.21      0.00
    0   22    2      0.27      0.00
    0   22    3      0.35      0.00
    0   22    4      2.96      0.00
    0   22    5      4.29      0.00
    0   22    6     -1.87      0.00
    0   22    7      0.86      0.00
    0   22    8      2.10      0.00
    0   22    9      0.59      0.00
    0   22   10     -1.14      0.00
    1   22    0      4.95      0.00
    1   22    1      2.76      0.00
    1   22    2     -2.16      0.00
    1   22    3     -4.05      0.00
    1   22    4     -1.52      0.00
    1   22    5      1.10      0.00
    1   22    6      2.58      0.00
    1   22    7     -1.11      0.00
    1   22    8     -3.41      0.00
    1   22    9     -0.41      0.00
    1   22   10     -4.61      0.00
    2   22    0      0.12      0.00
    2   22    1     -0.87      0.00
    2   22    2      3.32      0.00
    2   22    3     -1.98      0.00
    2   22    4      1.20      0.00
    2   22    5     -1.51      0.00
    2   22    6      1.65      0.00
    2   22    7     -2.43      0.00
    2   22    8     -2.11      0.00
    2   22    9      1.81      0.00
    2   22   10     -0.70      0.00
    3   22    0      3.31      0.00
    3   22    1      0.53      0.00
    3   22    2      0.99      0.00
    3   22    3      1.11      0.00
    3   22    4     -1.88      0.00
    3   22    5      0.21      0.00
    3   22    6      3.20      0.00
    3   22    7     -4.62      0.00
    3   22    8     -1.19      0.00
    3   22    9     -3.71      0.00
    3   22   10     -0.99      0.00
    4   22    0     -0.76      0.00
    4   22    1     -3.88      0.00
    4   22    2     -4.73      0.00
    4   22    3     -1.84      0.00
    4   22    4      1.13      0.00
    4   22    5      0.01      0.00
    4   22    6     -2.52      0.00
    4   22    7     -1.85      0.00
    4   22    8     -1.21      0.00
    4   22    9      0.26      0.00
    4   22   10      3.64      0.00
    5   22    0      3.92      0.00
    5   22    1     -0.51      0.00
    5   22    2      2.32      0.00
    5   22    3      0.74      0.00
    5   22    4      2.58      0.00
    5   22    5      2.75      0.00
    5   22    6      2.86      0.00
    5   22    7     -0.60      0.00
    5   22    8     -1.53      0.00
    5   22    9      0.63      0.00
    5   22   10     -0.44      0.00
    6   22    0     -1.38      0.00
    6   22    1     -2.92      0.00
    6   22    2     -1.10      0.00
    6   22    3     -1.87      0.00
    6   22    4      0.80      0.00
    6   22    5      0.04      0.00
    6   22    6     -0.47      0.00
    6   22    7     -1.40      0.00
    6   22    8      2.25      0.00
    6   22    9      3.65      0.00
    6   22   10     -1.38      0.00
    7   22    0     -5.72      0.00
    7   22    1      0.90      0.00
    7   22    2     -1.17      0.00
    7   22    3      0.09      0.00
    7   22    4     -0.51      0.00
    7   22    5      3.97      0.00
    7   22    6     -0.58      0.00
    7   22    7      0.48      0.00
    7   22    8      1.90      0.00
    7   22    9     -1.89      0.00
    7   22   10      4.41      0.00
    8   22    0      2.01      0.00
    8   22    1      1.75      0.00
    8   22    2     -1.00      0.00
    8   22    3      2.71      0.00
    8   22    4     -0.97      0.00
    8   22    5      0.27      0.00
    8   22    6     -0.14      0.00
    8   22    7     -2.46      0.00
    8   22    8      0.91      0.00
    8   22    9      4.11      0.00
    8   22   10      2.04      0.00
    9   22    0     -2.82      0.00
    9   22    1     -0.68      0.00
    9   22    2     -0.94      0.00
    9   22    3     -2.17      0.00
    9   22    4      3.00      0.00
    9   22    5      1.98      0.00
    9   22    6      0.30      0.00
    9   22    7      0.33      0.00
    9   22    8      2.00      0.00
    9   22    9      3.28      0.00
   10   22    0      5.74      0.00
   10   22    1     -3.21      0.00
   10   22    2      1.69      0.00
   10   22    3     -0.22      0.00
   10   22    4      2.23      0.00
   10   22    5      1.02      0.00
   10   22    6      1.29      0.00
   10   22    7     -2.34      0.00
   10   22    8      2.00      0.00
   10   22    9      0.90      0.00
   11   22    0     -1.65      0.00
   11   22    1      1.11      0.00
   11   22    2      1.14      0.00
   11   22    3     -0.24      0.00
   11   22    4     -0.35      0.00
   11   22    5      1.72      0.00
   11   22    6     -2.92      0.00
   11   22    7     -2.82      0.00
   11   22    8      0.14      0.00
   11   22    9      1.22      0.00
   12   22    0     -1.24      0.00
   12   22    1      3.33      0.00
   12   22    2     -3.44      0.00
   12   22    3      0.34      0.00
   12   22    4     -1.94      0.00
   12   22    5      1.10      0.00
   12   22    6      0.48      0.00
   12   22    7      5.86      0.00
   12   22    8     -1.46      0.00
   13   22    0     -2.17      0.00
   13   22    1      2.04      0.00
   13   22    2     -0.47      0.00
   13   22    3     -3.90      0.00
   13   22    4      5.67      0.00
   13   22    5     -4.34      0.00
   13   22    6     -0.78      0.00
   13   22    7     -7.81      0.00
   13   22    8      4.10      0.00
   14   22    0      6.06      0.00
   14   22    1     -3.25      0.00
   14   22    2      2.41      0.00
   14   22    3     -3.20      0.00
   14   22    4      2.34      0.00
   14   22    5     -4.67      0.00
   14   22    6      1.67      0.00
   15   22    0      9.30      0.00
   15   22    1     -2.63      0.00
   15   22    2      3.22      0.00
   15   22    3     -3.43      0.00
   15   22    4     -2.03      0.00
   15   22    5     -1.85      0.00
   16   22    1     17.92      0.00
   16   22    2     -9.12      0.00
   16   22    3      2.21      0.00
   16   22    5     -4.70      0.00
   17   22    1     -8.33      0.00
   17   22    2      2.26      0.00
   17   22    3     -6.90      0.00
   17   22    4      5.20      0.00
   18   22    1     -3.54      0.00
    0   23    0     -3.06      0.00
    0   23    1     -0.53      0.00
    0   23    2      0.79      0.00
    0   23    3      4.05      0.00
    0   23    4      0.44      0.00
    0   23    5     -4.73      0.00
    0   23    6      0.00      0.00
    0   23    7      3.78      0.00
    0   23    8      2.94      0.00
    0   23    9     -0.45      0.00
    1   23    0     -6.07      0.00
    1   23    1     -2.28      0.00
    1   23    2     -2.40      0.00
    1   23    3     -0.27      0.00
    1   23    4     -1.72      0.00
    1   23    5     -0.07      0.00
    1   23    6     -3.18      0.00
    1   23    7      1.22      0.00
    1   23    8      0.09      0.00
    1   23    9      7.79      0.00
    2   23    0     -5.22      0.00
    2   23    1     -2.67      0.00
    2   23    2      0.82      0.00
    2   23    3     -1.01      0.00
    2   23    4     -1.57      0.00
    2   23    5     -5.70      0.00
    2   23    6     -1.45      0.00
    2   23    7      3.56      0.00
    2   23    8      1.38      0.00
    2   23    9     -0.33      0.00
    3   23    0      1.26      0.00
    3   23    1     -1.07      0.00
    3   23    2      4.48      0.00
    3   23    3      2.38      0.00
    3   23    4      4.51      0.00
    3   23    5     -4.35      0.00
    3   23    6      2.28      0.00
    3   23    7     -1.51      0.00
    3   23    8      1.55      0.00
    3   23    9      0.22      0.00
    4   23    0     -1.49      0.00
    4   23    1     -0.80      0.00
    4   23    2      2.91      0.00
    4   23    3      4.40      0.00
    4   23    4     -1.55      0.00
    4   23    5     -2.64      0.00
    4   23    6      0.09      0.00
    4   23    7      0.57      0.00
    4   23    8      0.70      0.00
    4   23    9     -2.84      0.00
    5   23    0     -2.52      0.00
    5   23    1      1.51      0.00
    5   23    2     -0.59      0.00
    5   23    3      0.40      0.00
    5   23    4     -0.64      0.00
    5   23    5      0.24      0.00
    5   23    6     -0.11      0.00
    5   23    7      2.74      0.00
    5   23    8     -1.53      0.00
    5   23    9      0.44      0.00
    6   23    0      0.27      0.00
    6   23    1      4.28      0.00
    6   23    2      3.13      0.00
    6   23    3      4.41      0.00
    6   23    4      0.26      0.00
    6   23    5     -0.48      0.00
    6   23    6     -2.95      0.00
    6   23    7      3.55      0.00
    6   23    8     -1.73      0.00
    6   23    9     -9.97      0.00
    7   23    0      0.11      0.00
    7   23    1     -1.80      0.00
    7   23    2      1.38      0.00
    7   23    3     -0.67      0.00
    7   23    4     -0.45      0.00
    7   23    5     -0.91      0.00
    7   23    6     -0.78      0.00
    7   23    7      1.81      0.00
    7   23    8     -1.56      0.00
    7   23    9     -2.74      0.00
    8   23    0      1.13      0.00
    8   23    1      1.12      0.00
    8   23    2      1.66      0.00
    8   23    3      0.03      0.00
    8   23    4     -2.79      0.00
    8   23    5      0.59      0.00
    8   23    6      0.75      0.00
    8   23    7     -0.60      0.00
    8   23    8     -1.89      0.00
    8   23    9     -2.42      0.00
    9   23    0     -2.14      0.00
    9   23    1     -0.43      0.00
    9   23    2     -0.50      0.00
    9   23    3      1.00      0.00
    9   23    4      0.64      0.00
    9   23    5     -1.82      0.00
    9   23    6     -1.95      0.00
    9   23    7     -0.20      0.00
    9   23    8     -2.76      0.00
   10   23    0     -3.24      0.00
   10   23    1     -0.45      0.00
   10   23    2     -0.65      0.00
   10   23    3      1.00      0.00
   10   23    4     -2.44      0.00
   10   23    5     -0.44      0.00
   10   23    6      3.21      0.00
   10   23    7      0.51      0.00
   10   23    8      4.34      0.00
   11   23    0      0.88      0.00
   11   23    1     -0.69      0.00
   11   23    2      5.18      0.00
   11   23    3      0.48      0.00
   11   23    4     -0.39      0.00
   11   23    5     -0.82      0.00
   11   23    6      2.74      0.00
   11   23    7      5.43      0.00
   11   23    8     -1.16      0.00
   12   23    0      1.34      0.00
   12   23    1     -4.66      0.00
   12   23    2      0.56      0.00
   12   23    3     -1.71      0.00
   12   23    4      1.04      0.00
   12   23    5     -4.29      0.00
   12   23    6     -0.80      0.00
   12   23    7      3.04      0.00
   13   23    0     -6.10      0.00
   13   23    1     -0.22      0.00
   13   23    2     -5.78      0.00
   13   23    3     -3.12      0.00
   13   23    4      1.01      0.00
   13   23    5     -2.58      0.00
   13   23    6     -0.13      0.00
   14   23    0      0.56      0.00
   14   23    1      7.75      0.00
   14   23    2      3.18      0.00
   14   23    3      3.77      0.00
   14   23    4      6.52      0.00
   14   23    5      0.94      0.00
   15   23    0      2.35      0.00
   15   23    1     -0.50      0.00
   15   23    2    -10.29      0.00
   15   23    3     -2.59      0.00
   15   23    4    -10.99      0.00
   16   23    0     23.00      0.00
    0   24    0     11.05      0.00
    0   24    1      1.45      0.00
    0   24    2     -1.54      0.00
    0   24    3     -5.02      0.00
    0   24    4      0.54      0.00
    0   24    5      3.31      0.00
    0   24    6     -4.43      0.00
    0   24    7      0.16      0.00
    0   24    8     -0.43      0.00
    0   24    9      3.40      0.00
    1   24    0      2.40      0.00
    1   24    1      3.39      0.00
    1   24    2     -0.54      0.00
    1   24    3     -1.35      0.00
    1   24    4     -1.13      0.00
    1   24    5      0.41      0.00
    1   24    6     -1.54      0.00
    1   24    7     -4.52      0.00
    1   24    8     -4.20      0.00
    1   24    9      2.11      0.00
    2   24    0      1.82      0.00
    2   24    1      2.66      0.00
    2   24    2     -0.98      0.00
    2   24    3      1.57      0.00
    2   24    4      0.16      0.00
    2   24    5     -0.54      0.00
    2   24    6      1.13      0.00
    2   24    7     -2.05      0.00
    2   24    8     -0.34      0.00
    2   24    9      4.84      0.00
    3   24    0     -1.81      0.00
    3   24    1     -0.22      0.00
    3   24    2      0.85      0.00
    3   24    3     -1.77      0.00
    3   24    4      0.71      0.00
    3   24    5      1.10      0.00
    3   24    6     -0.99      0.00
    3   24    7     -0.51      0.00
    3   24    8      1.27      0.00
    3   24    9      0.14      0.00
    4   24    0      1.48      0.00
    4   24    1     -0.78      0.00
    4   24    2     -2.08      0.00
    4   24    3     -1.21      0.00
    4   24    4      1.16      0.00
    4   24    5      0.64      0.00
    4   24    6     -1.56      0.00
    4   24    7     -0.68      0.00
    4   24    8     -0.81      0.00
    5   24    0      0.97      0.00
    5   24    1     -0.95      0.00
    5   24    2     -0.65      0.00
    5   24    3      1.32      0.00
    5   24    4      0.77      0.00
    5   24    5      1.94      0.00
    5   24    6     -1.65      0.00
    5   24    7     -1.05      0.00
    5   24    8      4.21      0.00
    6   24    0     -3.49      0.00
    6   24    1     -0.77      0.00
    6   24    2     -0.01      0.00
    6   24    3     -1.63      0.00
    6   24    4      0.92      0.00
    6   24    5     -0.64      0.00
    6   24    6      1.12      0.00
    6   24    7     -0.47      0.00
    6   24    8     -1.26      0.00
    7   24    0     -4.36      0.00
    7   24    1      0.51      0.00
    7   24    2     -0.45      0.00
    7   24    3     -0.53      0.00
    7   24    4     -1.13      0.00
    7   24    5      1.13      0.00
    7   24    6     -4.60      0.00
    7   24    7     -2.32      0.00
    7   24    8      3.31      0.00
    8   24    0     -0.84      0.00
    8   24    1     -2.37      0.00
    8   24    2     -0.12      0.00
    8   24    3      0.03      0.00
    8   24    4     -0.72      0.00
    8   24    5      0.92      0.00
    8   24    6      2.26      0.00
    8   24    7     -4.01      0.00
    8   24    8     -5.10      0.00
    9   24    0      0.73      0.00
    9   24    1     -1.70      0.00
    9   24    2      1.90      0.00
    9   24    3     -0.61      0.00
    9   24    4      1.30      0.00
    9   24    5      2.67      0.00
    9   24    6     -1.60      0.00
    9   24    7      0.89      0.00
   10   24    0     -2.94      0.00
   10   24    1     -2.03      0.00
   10   24    2     -0.62      0.00
   10   24    3      0.33      0.00
   10   24    4     -1.69      0.00
   10   24    5      1.26      0.00
   10   24    6     -1.57      0.00
   10   24    7     -3.41      0.00
   11   24    0     -0.67      0.00
   11   24    1     -0.20      0.00
   11   24    2      2.54      0.00
   11   24    3     -0.88      0.00
   11   24    4     -2.22      0.00
   11   24    5     -1.65      0.00
   11   24    6      0.31      0.00
   12   24    0      1.69      0.00
   12   24    1     -1.41      0.00
   12   24    2      2.06      0.00
   12   24    3      1.98      0.00
   12   24    4      1.08      0.00
   12   24    5     -1.22      0.00
   12   24    6     -4.97      0.00
   13   24    0     -3.23      0.00
   13   24    1      0.07      0.00
   13   24    2      2.01      0.00
   13   24    3     -1.59      0.00
   13   24    4     -1.03      0.00
   13   24    5    -11.56      0.00
   14   24    0     -5.18      0.00
   14   24    1      0.67      0.00
   14   24    2      3.56      0.00
   14   24    3      2.23      0.00
   14   24    4     16.27      0.00
   15   24    2     -1.27      0.00
    0   25    0     -4.95      0.00
    0   25    1     -4.28      0.00
    0   25    2     -2.60      0.00
    0   25    3     -1.25      0.00
    0   25    4     -0.54      0.00
    0   25    5     -0.06      0.00
    0   25    6     -1.73      0.00
    0   25    7     -0.95      0.00
    0   25    8     -5.68      0.00
    1   25    0     -0.28      0.00
    1   25    1     -0.50      0.00
    1   25    2     -1.30      0.00
    1   25    3      3.08      0.00
    1   25    4     -0.71      0.00
    1   25    5      0.72      0.00
    1   25    6      0.87      0.00
    1   25    7      3.51      0.00
    1   25    8      4.65      0.00
    2   25    0     -0.07      0.00
    2   25    1     -0.58      0.00
    2   25    2      1.03      0.00
    2   25    3     -2.09      0.00
    2   25    4      1.14      0.00
    2   25    5      2.25      0.00
    2   25    6     -0.93      0.00
    2   25    7     -1.05      0.00
    2   25    8     -0.11      0.00
    3   25    0     -1.80      0.00
    3   25    1     -3.33      0.00
    3   25    2     -0.75      0.00
    3   25    3     -0.66      0.00
    3   25    4     -0.46      0.00
    3   25    5     -3.44      0.00
    3   25    6     -2.01      0.00
    3   25    7     -2.58      0.00
    3   25    8      4.62      0.00
    4   25    0      0.94      0.00
    4   25    1      0.57      0.00
    4   25    2     -0.94      0.00
    4   25    3      2.20      0.00
    4   25    4     -0.05      0.00
    4   25    5     -1.85      0.00
    4   25    6      2.54      0.00
    4   25    7     -0.94      0.00
    4   25    8      0.00      0.00
    5   25    0     -0.96      0.00
    5   25    1      2.28      0.00
    5   25    2      3.34      0.00
    5   25    3     -1.52      0.00
    5   25    4     -1.21      0.00
    5   25    5     -2.23      0.00
    5   25    6     -1.63      0.00
    5   25    7      1.35      0.00
    6   25    0      1.51      0.00
    6   25    1      3.40      0.00
    6   25    2      0.11      0.00
    6   25    3      0.29      0.00
    6   25    4     -3.39      0.00
    6   25    5     -0.78      0.00
    6   25    6     -0.90      0.00
    6   25    7      0.24      0.00
    7   25    0      1.69      0.00
    7   25    1      2.86      0.00
    7   25    2     -0.90      0.00
    7   25    3     -0.98      0.00
    7   25    4     -3.05      0.00
    7   25    5     -1.86      0.00
    7   25    6     -1.90      0.00
    7   25    7      2.62      0.00
    8   25    0     -0.09      0.00
    8   25    1     -0.04      0.00
    8   25    2      0.74      0.00
    8   25    3      0.38      0.00
    8   25    4     -5.01      0.00
    8   25    5      1.65      0.00
    8   25    6     -1.06      0.00
    8   25    7     -5.45      0.00
    9   25    0      2.47      0.00
    9   25    1     -0.65      0.00
    9   25    2     -1.29      0.00
    9   25    3     -0.41      0.00
    9   25    4      1.81      0.00
    9   25    5     -1.06      0.00
    9   25    6      1.89      0.00
   10   25    0     -2.80      0.00
   10   25    1     -4.12      0.00
   10   25    2      5.77      0.00
   10   25    3      0.66      0.00
   10   25    4      2.89      0.00
   10   25    5      2.08      0.00
   10   25    6      0.94      0.00
   11   25    0     -2.60      0.00
   11   25    1     -4.75      0.00
   11   25    2      1.64      0.00
   11   25    3     -0.66      0.00
   11   25    4      0.31      0.00
   11   25    5      1.81      0.00
   12   25    0     -0.56      0.00
   12   25    1      0.88      0.00
   12   25    2      0.13      0.00
   12   25    3      5.05      0.00
   12   25    4     -1.18      0.00
   13   25    0     -5.52      0.00
   13   25    1      1.47      0.00
   13   25    2     -9.85      0.00
   13   25    3      7.57      0.00
    0   26    0      7.01      0.00
    0   26    1      2.62      0.00
    0   26    2     -1.15      0.00
    0   26    3      0.82      0.00
    0   26    4     -0.08      0.00
    0   26    5     -1.79      0.00
    0   26    6     -0.83      0.00
    0   26    7      0.93      0.00
    1   26    0      3.93      0.00
    1   26    1      0.20      0.00
    1   26    2      1.10      0.00
    1   26    3      0.43      0.00
    1   26    4      0.61      0.00
    1   26    5     -0.80      0.00
    1   26    6     -0.23      0.00
    1   26    7      0.93      0.00
    2   26    0      0.21      0.00
    2   26    1      1.18      0.00
    2   26    2     -1.04      0.00
    2   26    3      0.38      0.00
    2   26    4      0.08      0.00
    2   26    5     -0.84      0.00
    2   26    6     -0.64      0.00
    2   26    7      0.68      0.00
    3   26    0      1.00      0.00
    3   26    1      1.17      0.00
    3   26    2     -1.18      0.00
    3   26    3      0.13      0.00
    3   26    4      2.05      0.00
    3   26    5     -1.51      0.00
    3   26    6     -0.21      0.00
    3   26    7      2.11      0.00
    4   26    0      2.86      0.00
    4   26    1      1.41      0.00
    4   26    2      0.16      0.00
    4   26    3      0.93      0.00
    4   26    4      1.67      0.00
    4   26    5      1.10      0.00
    4   26    6      2.15      0.00
    5   26    0      1.45      0.00
    5   26    1     -0.22      0.00
    5   26    2     -4.09      0.00
    5   26    3     -0.85      0.00
    5   26    4     -0.20      0.00
    5   26    5     -0.87      0.00
    5   26    6      2.04      0.00
    6   26    0     -2.11      0.00
    6   26    1      2.37      0.00
    6   26    2     -1.64      0.00
    6   26    3      0.24      0.00
    6   26    4     -1.10      0.00
    6   26    5      0.88      0.00
    6   26    6     -0.57      0.00
    7   26    0      3.18      0.00
    7   26    1      1.40      0.00
    7   26    2      0.83      0.00
    7   26    3      1.84      0.00
    7   26    4     -1.43      0.00
    7   26    5     -0.75      0.00
    7   26    6      2.36      0.00
    8   26    0      3.06      0.00
    8   26    1     -0.08      0.00
    8   26    2     -0.82      0.00
    8   26    3     -4.36      0.00
    8   26    4     -1.22      0.00
    8   26    5     -0.02      0.00
    9   26    0      2.29      0.00
    9   26    1     -4.11      0.00
    9   26    2     -3.59      0.00
    9   26    3      1.13      0.00
    9   26    4     -4.84      0.00
   10   26    0      1.51      0.00
   10   26    1      4.42      0.00
   10   26    2     -1.20      0.00
   10   26    3      1.01      0.00
   10   26    4      0.44      0.00
   11   26    0     -1.86      0.00
   11   26    1     -1.74      0.00
   11   26    2      2.02      0.00
    0   27    0     -4.09      0.00
    0   27    1      0.45      0.00
    0   27    2      0.33      0.00
    0   27    3      0.53      0.00
    0   27    4     -1.35      0.00
    0   27    5     -2.89      0.00
    1   27    0      8.53      0.00
    1   27    1      0.45      0.00
    1   27    2     -0.37      0.00
    1   27    3      0.91      0.00
    1   27    4      0.31      0.00
    1   27    5     -2.58      0.00
    2   27    0     -0.57      0.00
    2   27    1     -1.50      0.00
    2   27    2      0.02      0.00
    2   27    3     -1.92      0.00
    2   27    4      0.07      0.00
    2   27    5     -5.73      0.00
    3   27    0      3.29      0.00
    3   27    1      0.89      0.00
    3   27    2     -1.10      0.00
    3   27    3      1.90      0.00
    3   27    4      1.47      0.00
    3   27    5      1.09      0.00
    4   27    0     -2.28      0.00
    4   27    1     -2.29      0.00
    4   27    2      1.63      0.00
    4   27    3     -0.39      0.00
    4   27    4      2.18      0.00
    4   27    5     -2.87      0.00
    5   27    0     -3.53      0.00
    5   27    1     -0.48      0.00
    5   27    2     -0.96      0.00
    5   27    3      2.82      0.00
    5   27    4     -1.46      0.00
    5   27    5     -2.10      0.00
    6   27    0     -1.01      0.00
    6   27    1      0.82      0.00
    6   27    2      1.61      0.00
    6   27    3      1.86      0.00
    6   27    4      1.68      0.00
    7   27    0     -0.30      0.00
    7   27    1     -1.27      0.00
    7   27    2      0.67      0.00
    7   27    3     -2.34      0.00
    7   27    4      0.73      0.00
    8   27    0      4.42      0.00
    8   27    1     -0.64      0.00
    8   27    2     -2.12      0.00
    8   27    3      2.90      0.00
    9   27    0     -0.42      0.00
    9   27    1     -1.38      0.00
    9   27    2     -0.29      0.00
    0   28    2     -1.23      0.00
    1   28    1     -2.34      0.00
    1   28    2      0.80      0.00
    2   28    1     -0.08      0.00
    2   28    2      0.97      0.00
    3   28    1      1.35      0.00
    3   28    2      0.41      0.00
    4   28    1     -0.01      0.00
    4   28    2      1.45      0.00
    5   28    1      1.32      0.00
    0    1    0    -19.97      0.00
    1    1    0    144.04      0.00
    2    2    0    -85.11      0.00
    3    3    0     11.24      0.00
   17   17    0     36.22      0.00
   17   19    0     18.22      0.00
   19   19    0    -12.79      0.00
   16   20    0     -0.53      0.00
   17   20    0     58.65      0.00
   18   20    0      8.58      0.00
   20   20    0     28.67      0.00
   20   21    0     -0.35      0.00
   21   21    0      7.90      0.00
   16   22    0     -2.83      0.00
   17   22    0     34.98      0.00
   18   22    0      6.70      0.00
   19   22    0     -5.74      0.00
   20   22    0      3.63      0.00
   21   22    0     -6.66      0.00
   22   22    0      2.82      0.00
   17   23    0     15.03      0.00
   18   23    0      7.37      0.00
   19   23    0     11.26      0.00
   20   23    0     -0.53      0.00
   21   23    0      0.47      0.00
   15   24    0      4.29      0.00
   16   24    0     -3.01      0.00
   17   24    0      9.09      0.00
   18   24    0      3.91      0.00
   19   24    0    -10.18      0.00
   20   24    0     -3.95      0.00
   14   25    0     -5.85      0.00
   15   25    0      9.48      0.00
   16   25    0     -1.60      0.00
   17   25    0      2.51      0.00
   18   25    0      9.35      0.00
   19   25    0      1.73      0.00
   12   26    0      3.51      0.00
   13   26    0      0.09      0.00
   14   26    0     -9.35      0.00
   15   26    0      0.44      0.00
   16   26    0     10.42      0.00
   17   26    0     -1.16      0.00
   18   26    0      6.71      0.00
   10   27    0      5.50      0.00
   11   27    0     -1.70      0.00
   12   27    0      0.20      0.00
   13   27    0      3.02      0.00
   14   27    0     -3.16      0.00
   15   27    0      3.04      0.00
   16   27    0     -2.56      0.00
    0   28    0      4.66      0.00
    1   28    0     -2.11      0.00
    2   28    0      3.81      0.00
    3   28    0     -3.97      0.00
    4   28    0      4.15      0.00
    5   28    0     -0.50      0.00
    6   28    0      0.55      0.00
    7   28    0     -1.30      0.00
    8   28    0      0.35      0.00
    9   28    0      7.36      0.00
   10   28    0     -2.64      0.00
   11   28    0     -0.84      0.00
   12   28    0      4.28      0.00
   13   28    0     -4.48      0.00
   14   28    0     -0.97      0.00
   15   28    0     -1.08      0.00
    0    1    1    -27.43      0.00
   17   18    1     -4.46      0.00
   18   21    1     -3.52      0.00
   20   21    1     -9.99      0.00
   19   22    1     -0.68      0.00
   20   22    1      3.47      0.00
   21   22    1     -2.31      0.00
   16   23    1     -0.36      0.00
   17   23    1      5.65      0.00
   18   23    1      3.32      0.00
   19   23    1      6.99      0.00
   20   23    1     -4.98      0.00
   21   23    1      0.25      0.00
   15   24    1      2.00      0.00
   16   24    1      1.12      0.00
   17   24    1     -5.36      0.00
   18   24    1     -7.44      0.00
   19   24    1     -4.14      0.00
   20   24    1      0.43      0.00
   14   25    1     -4.98      0.00
   15   25    1     -2.70      0.00
   16   25    1      1.08      0.00
   17   25    1      0.88      0.00
   18   25    1     -2.20      0.00
   19   25    1     -3.28      0.00
   12   26    1     -8.67      0.00
   13   26    1      0.92      0.00
   14   26    1      2.73      0.00
   15   26    1      0.89      0.00
   16   26    1     -4.30      0.00
   17   26    1     -0.29      0.00
   18   26    1      0.70      0.00
   10   27    1     -5.28      0.00
   11   27    1      1.88      0.00
   12   27    1     -2.12      0.00
   13   27    1     -0.48      0.00
   14   27    1      2.82      0.00
   15   27    1     -4.09      0.00
   16   27    1      5.42      0.00
    0   28    1     -0.55      0.00
    6   28    1      1.65      0.00
    7   28    1      3.39      0.00
    8   28    1     -1.11      0.00
    9   28    1     -1.55      0.00
   10   28    1     -0.75      0.00
   11   28    1     -0.38      0.00
   12   28    1     -1.52      0.00
   13   28    1     -1.76      0.00
   14   28    1      3.81      0.00
   18   18    2    -25.17      0.00
   19   19    2    -19.95      0.00
   20   20    2     -1.19      0.00
   18   21    2     -7.40      0.00
   19   21    2     -9.32      0.00
   20   21    2      1.25      0.00
   21   21    2     -0.89      0.00
   18   22    2     -2.63      0.00
   19   22    2      3.58      0.00
   20   22    2     -8.22      0.00
   21   22    2     -0.28      0.00
   22   22    2      6.49      0.00
   16   23    2     13.17      0.00
   17   23    2     -2.82      0.00
   18   23    2    -11.97      0.00
   19   23    2      0.51      0.00
   20   23    2      5.56      0.00
   21   23    2     -1.78      0.00
   16   24    2     -1.70      0.00
   17   24    2      2.95      0.00
   18   24    2      0.50      0.00
   19   24    2     -1.84      0.00
   20   24    2     -5.14      0.00
   14   25    2     -3.25      0.00
   15   25    2      5.52      0.00
   16   25    2    -10.24      0.00
   17   25    2     -1.97      0.00
   18   25    2     -0.60      0.00
   19   25    2      0.84      0.00
   12   26    2     -4.78      0.00
   13   26    2      3.05      0.00
   14   26    2    -11.10      0.00
   15   26    2     -6.22      0.00
   16   26    2      3.13      0.00
   17   26    2     -3.43      0.00
   10   27    2     -0.61      0.00
   11   27    2      3.11      0.00
   12   27    2     -6.14      0.00
   13   27    2     -5.53      0.00
   14   27    2      2.36      0.00
   15   27    2      0.00      0.00
   16   27    2     -2.07      0.00
    5   28    2      6.35      0.00
    6   28    2      1.73      0.00
    7   28    2      2.59      0.00
    8   28    2      3.05      0.00
    9   28    2      1.07      0.00
   10   28    2      1.18      0.00
   11   28    2      0.09      0.00
   12   28    2      4.41      0.00
   13   28    2     -8.25      0.00
   14   28    2     -0.51      0.00
   17   20    3     -2.26      0.00
   19   20    3     -8.71      0.00
   18   21    3      3.44      0.00
   19   21    3     -2.55      0.00
   20   21    3      1.27      0.00
   18   22    3     -1.28      0.00
   19   22    3     -0.75      0.00
   20   22    3      0.09      0.00
   21   22    3      3.49      0.00
   16   23    3    -12.32      0.00
   17   23    3     -0.69      0.00
   18   23    3     -1.93      0.00
   19   23    3     -1.78      0.00
   20   23    3     -5.60      0.00
   21   23    3      1.89      0.00
   15   24    3      9.69      0.00
   16   24    3      8.37      0.00
   17   24    3     -2.84      0.00
   18   24    3      1.74      0.00
   19   24    3      0.19      0.00
   20   24    3      0.74      0.00
   14   25    3     -9.44      0.00
   15   25    3      5.76      0.00
   16   25    3      0.22      0.00
   17   25    3     -1.18      0.00
   18   25    3      6.50      0.00
   19   25    3     -3.65      0.00
   11   26    3      0.76      0.00
   12   26    3     -3.66      0.00
   13   26    3      3.84      0.00
   14   26    3     -0.10      0.00
   15   26    3      4.38      0.00
   16   26    3     -2.08      0.00
   17   26    3     -1.07      0.00
    9   27    3     -2.24      0.00
   10   27    3     -0.90      0.00
   11   27    3     -3.02      0.00
   12   27    3      2.52      0.00
   13   27    3      0.37      0.00
   14   27    3      1.14      0.00
   15   27    3     -0.98      0.00
   16   27    3      9.04      0.00
    0   28    3      0.60      0.00
    1   28    3     -1.18      0.00
    2   28    3      1.15      0.00
    3   28    3     -0.16      0.00
    4   28    3      0.92      0.00
    5   28    3     -3.29      0.00
    6   28    3      2.30      0.00
    7   28    3      1.03      0.00
    8   28    3     -2.99      0.00
    9   28    3     -0.40      0.00
   10   28    3     -1.68      0.00
   11   28    3     -1.46      0.00
   12   28    3      1.63      0.00
   13   28    3     -0.39      0.00
   14   28    3      2.34      0.00
    0    0    4     71.85      0.00
   18   18    4      6.66      0.00
   18   19    4      5.77      0.00
   19   19    4    -17.99      0.00
   17   20    4     -8.06      0.00
   19   20    4     -6.82      0.00
   20   20    4    -17.20      0.00
   17   21    4     -4.05      0.00
   18   21    4      9.68      0.00
   19   21    4    -16.72      0.00
   20   21    4     -9.39      0.00
   21   21    4     -4.49      0.00
   16   22    4     -6.40      0.00
   18   22    4     -9.73      0.00
   19   22    4     -0.43      0.00
   20   22    4     -5.05      0.00
   21   22    4     -5.20      0.00
   16   23    4      4.95      0.00
   17   23    4     -4.36      0.00
   18   23    4    -13.90      0.00
   19   23    4     -2.91      0.00
   20   23    4     -4.69      0.00
   15   24    4     -0.56      0.00
   16   24    4      0.35      0.00
   17   24    4     11.83      0.00
   18   24    4      1.64      0.00
   19   24    4     -4.09      0.00
   13   25    4     10.54      0.00
   14   25    4      0.11      0.00
   15   25    4      6.35      0.00
   16   25    4     -1.02      0.00
   17   25    4      1.85      0.00
   18   25    4      2.05      0.00
   11   26    4     -4.04      0.00
   12   26    4      0.53      0.00
   13   26    4      0.20      0.00
   14   26    4      2.84      0.00
   15   26    4      0.52      0.00
   16   26    4     -2.63      0.00
   17   26    4      1.19      0.00
    8   27    4     -2.96      0.00
    9   27    4      0.54      0.00
   10   27    4     -0.39      0.00
   11   27    4     -1.90      0.00
   12   27    4     -6.13      0.00
   13   27    4      1.61      0.00
   14   27    4      4.76      0.00
   15   27    4     -1.92      0.00
    0   28    4      1.53      0.00
    1   28    4     -3.54      0.00
    2   28    4     -1.15      0.00
    3   28    4     -1.37      0.00
    4   28    4     -1.54      0.00
    5   28    4      0.91      0.00
    6   28    4     -3.63      0.00
    7   28    4     -3.13      0.00
    8   28    4     -3.67      0.00
    9   28    4      1.49      0.00
   10   28    4     -1.27      0.00
   11   28    4     -1.13      0.00
   12   28    4      2.29      0.00
   13   28    4     -3.32      0.00
    0    1    5     -4.36      0.00
   17   18    5     -4.98      0.00
   17   19    5      7.17      0.00
   17   20    5    -15.36      0.00
   18   20    5      5.11      0.00
   19   20    5    -12.54      0.00
   18   21    5     -3.90      0.00
   19   21    5      6.79      0.00
   20   21    5      1.74      0.00
   17   22    5     -7.24      0.00
   18   22    5      2.01      0.00
   19   22    5     -2.63      0.00
   20   22    5      1.35      0.00
   21   22    5      0.83      0.00
   15   23    5    -11.61      0.00
   16   23    5    -10.67      0.00
   17   23    5     -5.54      0.00
   18   23    5     -3.71      0.00
   19   23    5     -1.14      0.00
   20   23    5     -6.63      0.00
   14   24    5     -0.55      0.00
   15   24    5      3.23      0.00
   16   24    5      0.71      0.00
   17   24    5     -1.87      0.00
   18   24    5      1.49      0.00
   19   24    5      1.02      0.00
   12   25    5     -1.21      0.00
   13   25    5      5.98      0.00
   14   25    5     -8.25      0.00
   15   25    5     -2.03      0.00
   16   25    5     -1.71      0.00
   17   25    5     -3.19      0.00
    9   26    5     -2.15      0.00
   10   26    5      3.23      0.00
   11   26    5      0.21      0.00
   12   26    5     -5.50      0.00
   13   26    5     -1.06      0.00
   14   26    5     -1.27      0.00
   15   26    5      1.34      0.00
   16   26    5     -4.83      0.00
    6   27    5     -3.11      0.00
    7   27    5     -0.80      0.00
    8   27    5      2.53      0.00
    9   27    5      0.36      0.00
   10   27    5     -1.31      0.00
   11   27    5      2.29      0.00
   12   27    5     -2.42      0.00
   13   27    5     -3.67      0.00
   14   27    5      0.31      0.00
    0   28    5     -3.61      0.00
    1   28    5     -5.00      0.00
    2   28    5      0.85      0.00
    3   28    5     -4.44      0.00
    4   28    5     -7.00      0.00
    5   28    5     -2.11      0.00
    6   28    5     -5.35      0.00
    7   28    5     -3.31      0.00
    8   28    5     -2.29      0.00
    9   28    5     -1.66      0.00
   10   28    5     -0.88      0.00
   11   28    5      2.35      0.00
   12   28    5     -0.98      0.00
    0    0    6     46.73      0.00
    0    1    6    -39.34      0.00
    1    1    6      6.05      0.00
    0    2    6     -0.27      0.00
   17   17    6    -11.67      0.00
   17   19    6     -3.24      0.00
   19   19    6      6.37      0.00
   18   20    6     -3.12      0.00
   19   20    6    -11.59      0.00
   20   20    6     -0.53      0.00
   17   21    6     -9.17      0.00
   18   21    6      4.58      0.00
   19   21    6      3.36      0.00
   20   21    6     -9.03      0.00
   21   21    6      0.25      0.00
   15   22    6     -1.91      0.00
   16   22    6     -4.67      0.00
   17   22    6     -5.23      0.00
   18   22    6      2.24      0.00
   19   22    6      2.43      0.00
   20   22    6     -1.28      0.00
   14   23    6      2.81      0.00
   15   23    6     -1.76      0.00
   16   23    6      0.68      0.00
   17   23    6     -1.69      0.00
   18   23    6    -10.62      0.00
   19   23    6      4.84      0.00
   13   24    6      4.87      0.00
   14   24    6     -6.05      0.00
   15   24    6      0.83      0.00
   16   24    6     -0.02      0.00
   17   24    6     -1.18      0.00
   18   24    6      6.95      0.00
   11   25    6      1.37      0.00
   12   25    6     -1.81      0.00
   13   25    6     -3.68      0.00
   14   25    6      1.56      0.00
   15   25    6     -1.05      0.00
   16   25    6     -1.45      0.00
   17   25    6     -4.49      0.00
    8   26    6      0.02      0.00
    9   26    6      0.38      0.00
   10   26    6     -0.98      0.00
   11   26    6     -0.07      0.00
   12   26    6      2.40      0.00
   13   26    6      1.73      0.00
   14   26    6     -3.04      0.00
   15   26    6      2.26      0.00
    0   27    6     -4.57      0.00
    1   27    6     -0.38      0.00
    2   27    6     -2.84      0.00
    3   27    6     -0.66      0.00
    4   27    6     -2.75      0.00
    5   27    6      0.45      0.00
    6   27    6      2.15      0.00
    7   27    6     -0.95      0.00
    8   27    6     -0.11      0.00
    9   27    6     -0.85      0.00
   10   27    6      3.25      0.00
   11   27    6     -2.87      0.00
   12   27    6     -3.09      0.00
   13   27    6     -2.38      0.00
    0   28    6      3.15      0.00
    1   28    6     -1.66      0.00
    2   28    6     -1.79      0.00
    3   28    6     -1.23      0.00
    4   28    6      1.80      0.00
    5   28    6     -1.87      0.00
    6   28    6      0.80      0.00
    7   28    6     -0.58      0.00
    8   28    6     -0.46      0.00
    9   28    6      2.75      0.00
   10   28    6     -2.61      0.00
   11   28    6      1.15      0.00
    0    1    7     24.55      0.00
    0    2    7     -1.22      0.00
    1    2    7      3.77      0.00
    0    3    7     -4.55      0.00
    0    4    7     11.53      0.00
   18   19    7     -6.14      0.00
   17   20    7      5.02      0.00
   18   20    7     -0.57      0.00
   19   20    7     -4.74      0.00
   16   21    7     -2.42      0.00
   17   21    7      0.38      0.00
   18   21    7      5.02      0.00
   19   21    7      3.37      0.00
   20   21    7      2.79      0.00
   14   22    7     10.21      0.00
   15   22    7     -5.83      0.00
   16   22    7     -2.78      0.00
   17   22    7      2.06      0.00
   18   22    7     -1.60      0.00
   19   22    7     -0.84      0.00
   13   23    7     -0.17      0.00
   14   23    7      8.71      0.00
   15   23    7      4.03      0.00
   16   23    7     -9.50      0.00
   17   23    7      3.70      0.00
   18   23    7     -1.86      0.00
   11   24    7     -3.01      0.00
   12   24    7     -2.90      0.00
   13   24    7     -1.16      0.00
   14   24    7      1.86      0.00
   15   24    7      2.82      0.00
   16   24    7      0.83      0.00
   17   24    7      0.29      0.00
    9   25    7     -1.44      0.00
   10   25    7     -2.62      0.00
   11   25    7     -3.44      0.00
   12   25    7      0.86      0.00
   13   25    7     -4.20      0.00
   14   25    7      1.97      0.00
   15   25    7     -0.02      0.00
    4   26    7     -0.96      0.00
    5   26    7     -2.34      0.00
    6   26    7      1.41      0.00
    7   26    7     -0.72      0.00
    8   26    7     -1.24      0.00
    9   26    7     -1.04      0.00
   10   26    7      1.81      0.00
   11   26    7     -0.31      0.00
   12   26    7     -0.34      0.00
   13   26    7      2.83      0.00
   14   26    7      3.97      0.00
    0   27    7      4.33      0.00
    1   27    7     -1.15      0.00
    2   27    7      0.81      0.00
    3   27    7      0.32      0.00
    4   27    7      4.16      0.00
    5   27    7      0.34      0.00
    6   27    7     -1.51      0.00
    7   27    7      0.98      0.00
    8   27    7      0.85      0.00
    9   27    7      0.03      0.00
   10   27    7      1.94      0.00
   11   27    7     -0.37      0.00
   12   27    7     -1.72      0.00
    0   28    7      0.82      0.00
    1   28    7      4.50      0.00
    2   28    7      6.58      0.00
    3   28    7      2.88      0.00
    4   28    7      1.54      0.00
    5   28    7      4.29      0.00
    6   28    7      1.07      0.00
    7   28    7      3.39      0.00
    8   28    7      0.45      0.00
    9   28    7      2.14      0.00
    0    0    8    -41.76      0.00
    0    1    8     13.17      0.00
   18   18    8     -5.02      0.00
   17   19    8      2.42      0.00
   18   19    8      0.44      0.00
   19   19    8     -4.66      0.00
   16   20    8      5.49      0.00
   17   20    8    -12.79      0.00
   18   20    8      0.13      0.00
   19   20    8      1.74      0.00
   20   20    8     -0.52      0.00
   15   21    8     -0.12      0.00
   16   21    8     -3.05      0.00
   17   21    8     -1.22      0.00
   18   21    8     -5.65      0.00
   19   21    8     -2.09      0.00
   20   21    8     -4.38      0.00
   14   22    8     -5.84      0.00
   15   22    8      2.00      0.00
   16   22    8     -0.82      0.00
   17   22    8     -6.41      0.00
   18   22    8     -3.07      0.00
   12   23    8      0.89      0.00
   13   23    8      2.59      0.00
   14   23    8      1.73      0.00
   15   23    8     -1.28      0.00
   16   23    8      4.40      0.00
   17   23    8     -3.59      0.00
    9   24    8     -1.15      0.00
   10   24    8     -1.89      0.00
   11   24    8     -1.82      0.00
   12   24    8      0.13      0.00
   13   24    8      1.73      0.00
   14   24    8     -2.18      0.00
   15   24    8      0.39      0.00
   16   24    8      1.54      0.00
    5   25    8      4.32      0.00
    6   25    8      5.08      0.00
    7   25    8      0.77      0.00
    8   25    8      6.56      0.00
    9   25    8     -4.32      0.00
   10   25    8      4.44      0.00
   11   25    8     -3.75      0.00
   12   25    8     -2.82      0.00
   13   25    8      4.51      0.00
   14   25    8     -3.09      0.00
    0   26    8      5.07      0.00
    1   26    8     -0.36      0.00
    2   26    8      1.32      0.00
    3   26    8     -1.00      0.00
    4   26    8      3.79      0.00
    5   26    8     -3.05      0.00
    6   26    8      3.50      0.00
    7   26    8     -3.21      0.00
    8   26    8     -1.66      0.00
    9   26    8      0.98      0.00
   10   26    8     -1.12      0.00
   11   26    8      2.23      0.00
   12   26    8      1.26      0.00
    0   27    8     -3.75      0.00
    1   27    8      1.63      0.00
    2   27    8      3.66      0.00
    3   27    8      2.25      0.00
    4   27    8     -0.51      0.00
    5   27    8      1.15      0.00
    6   27    8      2.97      0.00
    7   27    8     -0.99      0.00
    8   27    8     -1.92      0.00
    9   27    8      1.16      0.00
   10   27    8     -2.56      0.00
    0   28    8      6.02      0.00
    1   28    8      0.90      0.00
    2   28    8      0.63      0.00
    3   28    8      6.28      0.00
    4   28    8     -0.14      0.00
    5   28    8      2.81      0.00
    6   28    8      0.44      0.00
    7   28    8      1.14      0.00
   17   18    9      0.03      0.00
   14   19    9      5.52      0.00
   16   19    9      2.48      0.00
   17   19    9     -4.66      0.00
   18   19    9      0.17      0.00
   15   20    9     -2.17      0.00
   16   20    9     -0.47      0.00
   17   20    9      1.27      0.00
   18   20    9     -0.40      0.00
   19   20    9     -2.58      0.00
   13   21    9     -4.41      0.00
   14   21    9      4.97      0.00
   15   21    9     -4.90      0.00
   16   21    9     -1.38      0.00
   17   21    9     -4.51      0.00
   18   21    9     -1.67      0.00
   12   22    9     -3.32      0.00
   13   22    9     -1.15      0.00
   14   22    9     -1.30      0.00
   15   22    9     -0.90      0.00
   16   22    9     -0.61      0.00
   17   22    9     -0.81      0.00
    9   23    9      2.45      0.00
   10   23    9     -8.01      0.00
   11   23    9     -0.52      0.00
   12   23    9      0.43      0.00
   13   23    9     -5.02      0.00
   14   23    9     -0.33      0.00
   15   23    9     -4.98      0.00
   16   23    9     -5.25      0.00
    4   24    9      0.42      0.00
    5   24    9      2.56      0.00
    6   24    9     -0.82      0.00
    7   24    9     -6.66      0.00
    8   24    9     -2.08      0.00
    9   24    9      2.09      0.00
   10   24    9      0.09      0.00
   11   24    9     -2.68      0.00
   12   24    9     -3.05      0.00
   13   24    9     -1.13      0.00
   14   24    9     -0.71      0.00
    0   25    9      5.12      0.00
    1   25    9      1.49      0.00
    2   25    9     -1.83      0.00
    3   25    9     -0.37      0.00
    4   25    9     -1.44      0.00
    5   25    9     -1.12      0.00
    6   25    9      0.22      0.00
    7   25    9     -3.22      0.00
    8   25    9      4.67      0.00
    9   25    9     -2.43      0.00
   10   25    9     -0.93      0.00
   11   25    9      0.25      0.00
   12   25    9      0.30      0.00
   13   25    9      0.60      0.00
    0   26    9      0.88      0.00
    1   26    9      3.32      0.00
    2   26    9      3.98      0.00
    3   26    9     -4.81      0.00
    4   26    9     -0.13      0.00
    5   26    9     -2.88      0.00
    6   26    9     -0.97      0.00
    7   26    9     -3.87      0.00
    8   26    9     -3.26      0.00
    9   26    9      1.10      0.00
   10   26    9     -0.05      0.00
    0   27    9      4.05      0.00
    1   27    9      2.34      0.00
    2   27    9      0.26      0.00
    3   27    9      2.96      0.00
    4   27    9      2.08      0.00
    5   27    9      2.77      0.00
    6   27    9     -2.85      0.00
    7   27    9      3.19      0.00
    8   27    9      0.14      0.00
    0   28    9     -0.75      0.00
    1   28    9      3.57      0.00
    2   28    9      0.36      0.00
    3   28    9     -3.03      0.00
   16   17   10      0.11      0.00
   17   17   10      2.14      0.00
   16   18   10      2.72      0.00
   17   18   10      2.02      0.00
   18   18   10      2.27      0.00
   13   19   10     -7.24      0.00
   14   19   10      5.84      0.00
   15   19   10      2.15      0.00
   16   19   10      0.39      0.00
   17   19   10      5.48      0.00
   18   19   10      1.28      0.00
   19   19   10      1.95      0.00
   13   20   10     -5.50      0.00
   14   20   10     -4.26      0.00
   15   20   10     -0.96      0.00
   16   20   10     -4.24      0.00
   17   20   10     -1.92      0.00
   18   20   10     -0.30      0.00
   11   21   10      3.00      0.00
   12   21   10     -3.92      0.00
   13   21   10     -6.48      0.00
   14   21   10     -3.05      0.00
   15   21   10      1.10      0.00
   16   21   10     -2.41      0.00
   17   21   10     -1.99      0.00
    9   22   10      3.01      0.00
   10   22   10     -0.90      0.00
   11   22   10      0.08      0.00
   12   22   10     -1.57      0.00
   13   22   10     -3.42      0.00
   14   22   10      2.89      0.00
   15   22   10     -1.63      0.00
   16   22   10      0.08      0.00
    0   23   10     -7.94      0.00
    1   23   10     -0.18      0.00
    2   23   10     -4.34      0.00
    3   23   10     -3.16      0.00
    4   23   10     -4.06      0.00
    5   23   10     -2.48      0.00
    6   23   10     -5.41      0.00
    7   23   10     -1.87      0.00
    8   23   10     -4.53      0.00
    9   23   10      1.33      0.00
   10   23   10      4.26      0.00
   11   23   10      1.61      0.00
   12   23   10     -2.35      0.00
   13   23   10     -5.02      0.00
   14   23   10     -0.22      0.00
    0   24   10      3.77      0.00
    1   24   10     -2.16      0.00
    2   24   10      1.22      0.00
    3   24   10      1.85      0.00
    4   24   10      4.71      0.00
    5   24   10      0.05      0.00
    6   24   10     -3.09      0.00
    7   24   10      2.80      0.00
    8   24   10      5.10      0.00
    9   24   10     -5.45      0.00
   10   24   10      3.95      0.00
   11   24   10      0.59      0.00
   12   24   10      0.49      0.00
   13   24   10      0.04      0.00
    0   25   10     -3.73      0.00
    1   25   10     -0.31      0.00
    2   25   10      1.35      0.00
    3   25   10     -1.50      0.00
    4   25   10      0.62      0.00
    5   25   10      1.17      0.00
    6   25   10      0.59      0.00
    7   25   10      1.82      0.00
    8   25   10     -0.43      0.00
    9   25   10      3.93      0.00
   10   25   10      1.71      0.00
   11   25   10      0.00      0.00
    0   26   10      3.00      0.00
    1   26   10      0.48      0.00
    2   26   10     -1.85      0.00
    3   26   10      0.92      0.00
    4   26   10      2.75      0.00
    5   26   10     -0.72      0.00
    6   26   10     -1.12      0.00
    7   26   10     -1.04      0.00
    8   26   10      1.32      0.00
    0   27   10     -0.65      0.00
    1   27   10      2.01      0.00
    2   27   10      0.66      0.00
    3   27   10      1.98      0.00
    4   27   10      0.93      0.00
   15   17   11     -3.22      0.00
   16   17   11     -0.10      0.00
   14   18   11      0.22      0.00
   15   18   11      1.71      0.00
   16   18   11     -2.31      0.00
   17   18   11     -1.00      0.00
   12   19   11      2.50      0.00
   13   19   11      2.64      0.00
   14   19   11      0.85      0.00
   15   19   11      2.18      0.00
   16   19   11      1.64      0.00
   17   19   11      1.41      0.00
   18   19   11     -0.93      0.00
   11   20   11     -0.99      0.00
   12   20   11      2.64      0.00
   13   20   11     -0.48      0.00
   14   20   11     -2.28      0.00
   15   20   11     -6.03      0.00
   16   20   11      2.34      0.00
   17   20   11     -1.86      0.00
    0   21   11      4.82      0.00
    8   21   11      0.82      0.00
    9   21   11     -2.82      0.00
   10   21   11      2.46      0.00
   11   21   11     -4.54      0.00
   12   21   11      0.22      0.00
   13   21   11      4.93      0.00
   14   21   11     -5.70      0.00
   15   21   11      4.03      0.00
    0   22   11      1.64      0.00
    1   22   11      0.36      0.00
    2   22   11      0.46      0.00
    3   22   11     -2.66      0.00
    4   22   11      2.69      0.00
    5   22   11     -6.51      0.00
    6   22   11      8.85      0.00
    7   22   11     -1.57      0.00
    8   22   11     -2.89      0.00
    9   22   11      3.49      0.00
   10   22   11     -3.63      0.00
   11   22   11      0.55      0.00
   12   22   11     -0.71      0.00
   13   22   11     -0.73      0.00
   14   22   11      0.20      0.00
    0   23   11      1.51      0.00
    1   23   11      0.67      0.00
    2   23   11     -2.59      0.00
    3   23   11     -1.53      0.00
    4   23   11     -5.22      0.00
    5   23   11     -1.94      0.00
    6   23   11     -3.23      0.00
    7   23   11      2.39      0.00
    8   23   11     -0.69      0.00
    9   23   11      3.85      0.00
   10   23   11      0.16      0.00
   11   23   11      1.45      0.00
   12   23   11      4.96      0.00
    0   24   11      3.50      0.00
    1   24   11      1.48      0.00
    2   24   11      0.20      0.00
    3   24   11      2.28      0.00
    4   24   11     -3.06      0.00
    5   24   11      1.24      0.00
    6   24   11      1.91      0.00
    7   24   11     -0.99      0.00
    8   24   11      2.17      0.00
    9   24   11      1.78      0.00
   10   24   11      2.12      0.00
    0   25   11      5.83      0.00
    1   25   11     -0.93      0.00
    2   25   11      1.38      0.00
    3   25   11     -0.40      0.00
    4   25   11     -2.32      0.00
    5   25   11      0.92      0.00
    6   25   11      2.82      0.00
    7   25   11     -0.34      0.00
    8   25   11      0.49      0.00
    0   26   11     -0.02      0.00
    1   26   11      3.07      0.00
    2   26   11      0.15      0.00
    3   26   11      1.65      0.00
   15   15   12     -6.08      0.00
   14   16   12     -2.91      0.00
   15   16   12      4.81      0.00
   16   16   12     -2.80      0.00
   13   17   12     -3.41      0.00
   14   17   12      4.74      0.00
   15   17   12     -2.96      0.00
   16   17   12      7.22      0.00
   17   17   12     -2.66      0.00
   11   18   12      3.04      0.00
   12   18   12     -1.06      0.00
   13   18   12      4.98      0.00
   14   18   12     -0.06      0.00
   15   18   12      5.71      0.00
   16   18   12     -2.13      0.00
   17   18   12      7.47      0.00
   10   19   12     -3.68      0.00
   11   19   12     -2.78      0.00
   12   19   12      4.84      0.00
   13   19   12     -0.90      0.00
   14   19   12      2.53      0.00
   15   19   12      1.03      0.00
   16   19   12      1.72      0.00
    0   20   12      7.11      0.00
    1   20   12     -5.04      0.00
    7   20   12     -7.50      0.00
    8   20   12      2.33      0.00
    9   20   12     -6.46      0.00
   10   20   12      0.75      0.00
   11   20   12      1.56      0.00
   12   20   12     -3.90      0.00
   13   20   12     -2.32      0.00
   14   20   12      1.95      0.00
   15   20   12     -1.37      0.00
    0   21   12      1.16      0.00
    1   21   12     -5.07      0.00
    2   21   12      2.45      0.00
    3   21   12     -8.12      0.00
    4   21   12     -0.38      0.00
    5   21   12     -3.01      0.00
    6   21   12      1.10      0.00
    7   21   12     -2.30      0.00
    8   21   12      0.19      0.00
    9   21   12     -1.38      0.00
   10   21   12      1.79      0.00
   11   21   12     -2.28      0.00
   12   21   12      2.96      0.00
   13   21   12      1.10      0.00
    0   22   12     -5.15      0.00
    1   22   12     -0.80      0.00
    2   22   12     -7.17      0.00
    3   22   12     -0.88      0.00
    4   22   12     -2.19      0.00
    5   22   12      1.27      0.00
    6   22   12     -0.81      0.00
    7   22   12     -0.47      0.00
    8   22   12      2.37      0.00
    9   22   12     -0.71      0.00
   10   22   12     -2.44      0.00
   11   22   12      3.97      0.00
   12   22   12     -1.65      0.00
    0   23   12     -1.38      0.00
    1   23   12      1.06      0.00
    2   23   12     -2.25      0.00
    3   23   12     -2.16      0.00
    4   23   12     -1.85      0.00
    5   23   12      2.53      0.00
    6   23   12     -1.64      0.00
    7   23   12      1.31      0.00
    8   23   12     -1.42      0.00
    9   23   12      4.19      0.00
   10   23   12      2.07      0.00
    0   24   12     -4.29      0.00
    1   24   12     -3.01      0.00
    2   24   12     -0.52      0.00
    3   24   12     -5.14      0.00
    4   24   12     -0.60      0.00
    5   24   12      1.37      0.00
    6   24   12     -1.62      0.00
    7   24   12      3.32      0.00
    0   25   12      0.07      0.00
    1   25   12     -2.94      0.00
    2   25   12     -1.51      0.00
   13   15   13     -4.45      0.00
   14   15   13     -3.49      0.00
   11   16   13      0.81      0.00
   12   16   13     -2.95      0.00
   13   16   13      3.73      0.00
   14   16   13     -4.89      0.00
   15   16   13      1.42      0.00
   10   17   13     -0.48      0.00
   11   17   13      0.95      0.00
   12   17   13      2.61      0.00
   13   17   13     -5.04      0.00
   14   17   13      1.22      0.00
   15   17   13     -1.47      0.00
   16   17   13      1.75      0.00
    0   18   13      2.59      0.00
    8   18   13      6.15      0.00
    9   18   13      0.49      0.00
   10   18   13     -1.27      0.00
   11   18   13      0.14      0.00
   12   18   13      0.32      0.00
   13   18   13     -0.36      0.00
   14   18   13     -2.09      0.00
   15   18   13     -1.19      0.00
    0   19   13     -2.78      0.00
    1   19   13     -1.04      0.00
    2   19   13      2.24      0.00
    3   19   13     -3.02      0.00
    4   19   13     -1.66      0.00
    5   19   13     -1.41      0.00
    6   19   13     -1.36      0.00
    7   19   13     -3.04      0.00
    8   19   13     -0.46      0.00
    9   19   13     -1.88      0.00
   10   19   13     -1.37      0.00
   11   19   13      0.39      0.00
   12   19   13     -3.45      0.00
   13   19   13      1.03      0.00
   14   19   13     -1.68      0.00
    0   20   13      3.35      0.00
    1   20   13      1.39      0.00
    2   20   13      0.89      0.00
    3   20   13     -1.34      0.00
    4   20   13      1.53      0.00
    5   20   13     -1.76      0.00
    6   20   13     -4.14      0.00
    7   20   13      0.53      0.00
    8   20   13      2.36      0.00
    9   20   13     -3.09      0.00
   10   20   13     -0.73      0.00
   11   20   13     -0.71      0.00
   12   20   13      0.53      0.00
    0   21   13     -1.98      0.00
    1   21   13      1.96      0.00
    2   21   13     -0.84      0.00
    3   21   13     -1.53      0.00
    4   21   13      0.93      0.00
    5   21   13     -1.68      0.00
    6   21   13     -2.11      0.00
    7   21   13      1.87      0.00
    8   21   13     -1.52      0.00
    9   21   13      3.04      0.00
   10   21   13     -1.00      0.00
   11   21   13     -1.81      0.00
    0   22   13     -0.62      0.00
    1   22   13     -1.21      0.00
    2   22   13     -2.85      0.00
    3   22   13     -1.06      0.00
    4   22   13      0.73      0.00
    5   22   13     -1.62      0.00
    6   22   13      0.26      0.00
    7   22   13     -0.56      0.00
    8   22   13     -0.41      0.00
    0   23   13     -1.34      0.00
    1   23   13      3.01      0.00
    2   23   13     -0.93      0.00
    3   23   13      1.36      0.00
    4   23   13      1.48      0.00
    5   23   13     -2.82      0.00
   12   13   14     -2.36      0.00
   13   13   14      5.32      0.00
   11   14   14     -0.70      0.00
   12   14   14      2.48      0.00
   13   14   14     -0.13      0.00
   14   14   14      2.87      0.00
    9   15   14      1.57      0.00
   10   15   14      1.27      0.00
   11   15   14      1.85      0.00
   12   15   14     -5.48      0.00
   13   15   14      4.59      0.00
   14   15   14      1.27      0.00
   15   15   14     -0.39      0.00
    0   16   14      6.10      0.00
    7   16   14      3.98      0.00
    8   16   14     -3.01      0.00
    9   16   14     -0.25      0.00
   10   16   14     -3.43      0.00
   11   16   14      2.07      0.00
   12   16   14      0.96      0.00
   13   16   14     -0.70      0.00
   14   16   14      2.80      0.00
   15   16   14      0.75      0.00
    0   17   14      3.40      0.00
    1   17   14      5.38      0.00
    2   17   14      0.23      0.00
    3   17   14     -0.17      0.00
    4   17   14      6.32      0.00
    5   17   14      3.70      0.00
    6   17   14     -1.71      0.00
    7   17   14      0.88      0.00
    8   17   14      0.99      0.00
    9   17   14      0.74      0.00
   10   17   14     -0.02      0.00
   11   17   14     -2.61      0.00
   12   17   14     -1.56      0.00
   13   17   14     -0.59      0.00
   14   17   14      2.14      0.00
    0   18   14     -2.45      0.00
    1   18   14      1.34      0.00
    2   18   14      0.04      0.00
    3   18   14     -2.68      0.00
    4   18   14      2.96      0.00
    5   18   14     -7.38      0.00
    6   18   14      1.21      0.00
    7   18   14      1.07      0.00
    8   18   14     -3.21      0.00
    9   18   14     -1.87      0.00
   10   18   14      1.20      0.00
   11   18   14     -3.45      0.00
   12   18   14      0.17      0.00
   13   18   14     -0.60      0.00
    0   19   14      1.94      0.00
    1   19   14      2.30      0.00
    2   19   14     -4.92      0.00
    3   19   14      4.19      0.00
    4   19   14      3.09      0.00
    5   19   14      0.28      0.00
    6   19   14     -0.63      0.00
    7   19   14      1.21      0.00
    8   19   14     -1.55      0.00
    9   19   14      0.55      0.00
   10   19   14     -3.34      0.00
   11   19   14      1.48      0.00
    0   20   14      3.39      0.00
    1   20   14      1.43      0.00
    2   20   14      3.02      0.00
    3   20   14      3.23      0.00
    4   20   14      0.21      0.00
    5   20   14      3.19      0.00
    6   20   14      1.95      0.00
    7   20   14      0.19      0.00
    8   20   14      2.11      0.00
    9   20   14     -1.04      0.00
    0   21   14      5.40      0.00
    1   21   14     -4.35      0.00
    2   21   14     -0.89      0.00
    3   21   14      0.15      0.00
    4   21   14     -1.22      0.00
    5   21   14     -0.70      0.00
    6   21   14     -1.71      0.00
    7   21   14      1.47      0.00
    0   22   14     -1.70      0.00
    1   22   14      0.28      0.00
    2   22   14     -2.01      0.00
    3   22   14      1.86      0.00
   10   12   15     -5.31      0.00
   11   12   15      2.87      0.00
    8   13   15     -1.76      0.00
    9   13   15     -1.00      0.00
   10   13   15     -1.09      0.00
   11   13   15      4.58      0.00
   12   13   15      0.38      0.00
    6   14   15     -0.51      0.00
    7   14   15     -2.18      0.00
    8   14   15      3.14      0.00
    9   14   15     -2.97      0.00
   10   14   15      2.36      0.00
   11   14   15     -0.61      0.00
   12   14   15      2.85      0.00
   13   14   15     -2.93      0.00
    0   15   15     -2.83      0.00
    1   15   15     -6.47      0.00
    2   15   15     -2.30      0.00
    3   15   15     -0.56      0.00
    4   15   15     -6.49      0.00
    5   15   15     -1.06      0.00
    6   15   15     -6.17      0.00
    7   15   15      0.71      0.00
    8   15   15     -2.73      0.00
    9   15   15     -2.46      0.00
   10   15   15      2.86      0.00
   11   15   15     -1.69      0.00
   12   15   15      1.46      0.00
   13   15   15     -1.33      0.00
    0   16   15      4.72      0.00
    1   16   15     -4.55      0.00
    2   16   15     -1.62      0.00
    3   16   15      3.25      0.00
    4   16   15      3.26      0.00
    5   16   15      3.45      0.00
    6   16   15      0.52      0.00
    7   16   15     -2.13      0.00
    8   16   15      1.88      0.00
    9   16   15     -2.83      0.00
   10   16   15     -0.06      0.00
   11   16   15      1.52      0.00
   12   16   15     -1.01      0.00
    0   17   15      0.77      0.00
    1   17   15     -5.54      0.00
    2   17   15      4.17      0.00
    3   17   15      4.49      0.00
    4   17   15      0.43      0.00
    5   17   15     -0.62      0.00
    6   17   15      3.85      0.00
    7   17   15      2.85      0.00
    8   17   15     -0.64      0.00
    9   17   15      1.28      0.00
   10   17   15      0.97      0.00
   11   17   15      0.14      0.00
    0   18   15      0.76      0.00
    1   18   15     -1.17      0.00
    2   18   15     -2.68      0.00
    3   18   15      2.85      0.00
    4   18   15     -2.57      0.00
    5   18   15      4.44      0.00
    6   18   15     -3.10      0.00
    7   18   15     -0.28      0.00
    8   18   15      0.98      0.00
    9   18   15      1.31      0.00
    0   19   15     -2.08      0.00
    1   19   15      1.80      0.00
    2   19   15      2.56      0.00
    3   19   15      4.45      0.00
    4   19   15      1.02      0.00
    5   19   15      1.02      0.00
    6   19   15      1.94      0.00
    7   19   15      0.23      0.00
    0   20   15     -0.36      0.00
    1   20   15     -1.43      0.00
    2   20   15      1.41      0.00
    3   20   15     -1.42      0.00
    4   20   15      0.03      0.00
    0    0   16     10.49      0.00
    9    9   16      0.32      0.00
    7   10   16      1.05      0.00
    8   10   16     -4.28      0.00
    9   10   16      1.54      0.00
   10   10   16     -0.19      0.00
    5   11   16      4.83      0.00
    6   11   16      3.09      0.00
    7   11   16      2.57      0.00
    8   11   16      1.92      0.00
    9   11   16      3.61      0.00
   10   11   16     -1.36      0.00
   11   11   16     -1.29      0.00
    0   12   16     13.74      0.00
    1   12   16     -2.70      0.00
    2   12   16      2.53      0.00
    3   12   16      3.18      0.00
    4   12   16     -0.40      0.00
    5   12   16     -1.18      0.00
    6   12   16      3.34      0.00
    7   12   16     -1.89      0.00
    8   12   16     -3.25      0.00
    9   12   16      1.46      0.00
   10   12   16      0.35      0.00
   11   12   16      0.44      0.00
   12   12   16     -3.81      0.00
    0   13   16      3.35      0.00
    1   13   16     -0.90      0.00
    2   13   16     -0.43      0.00
    3   13   16      1.62      0.00
    4   13   16     -1.52      0.00
    5   13   16     -0.70      0.00
    6   13   16      2.29      0.00
    7   13   16     -1.57      0.00
    8   13   16     -2.24      0.00
    9   13   16      0.92      0.00
   10   13   16     -2.68      0.00
   11   13   16     -0.72      0.00
   12   13   16      1.94      0.00
    0   14   16     -4.16      0.00
    1   14   16      2.52      0.00
    2   14   16     -0.51      0.00
    3   14   16      0.39      0.00
    4   14   16     -1.04      0.00
    5   14   16      3.42      0.00
    6   14   16      5.89      0.00
    7   14   16     -3.66      0.00
    8   14   16      1.73      0.00
    9   14   16      2.47      0.00
   10   14   16     -0.33      0.00
   11   14   16     -0.92      0.00
    0   15   16      4.12      0.00
    1   15   16      2.08      0.00
    2   15   16     -0.56      0.00
    3   15   16      0.90      0.00
    4   15   16      1.22      0.00
    5   15   16     -2.93      0.00
    6   15   16      0.49      0.00
    7   15   16      0.11      0.00
    8   15   16     -1.92      0.00
    9   15   16     -2.18      0.00
   10   15   16      0.63      0.00
    0   16   16     -0.37      0.00
    1   16   16     -0.83      0.00
    2   16   16      3.64      0.00
    3   16   16      1.62      0.00
    4   16   16     -1.99      0.00
    5   16   16      5.89      0.00
    6   16   16      1.66      0.00
    7   16   16     -0.75      0.00
    8   16   16      2.29      0.00
    0   17   16     -6.21      0.00
    1   17   16      1.51      0.00
    2   17   16     -3.34      0.00
    3   17   16     -4.99      0.00
    4   17   16      3.18      0.00
    5   17   16     -2.65      0.00
    6   17   16     -0.84      0.00
    0   18   16     -2.20      0.00
    1   18   16     -2.67      0.00
    2   18   16     -2.14      0.00
    3   18   16     -1.99      0.00
    0    1   17    -14.25      0.00
    5    6   17      2.92      0.00
    4    7   17     -3.90      0.00
    5    7   17      7.84      0.00
    6    7   17     -4.36      0.00
    0    8   17      6.17      0.00
    1    8   17     -5.40      0.00
    2    8   17     -0.60      0.00
    3    8   17      0.80      0.00
    4    8   17     -6.06      0.00
    5    8   17      0.54      0.00
    6    8   17     -2.01      0.00
    7    8   17     -3.79      0.00
    0    9   17      0.91      0.00
    1    9   17      4.80      0.00
    2    9   17      0.01      0.00
    3    9   17      1.78      0.00
    4    9   17     -0.93      0.00
    5    9   17      4.05      0.00
    6    9   17     -2.23      0.00
    7    9   17      2.15      0.00
    8    9   17      2.39      0.00
    0   10   17      0.19      0.00
    1   10   17      5.01      0.00
    2   10   17      3.65      0.00
    3   10   17     -1.23      0.00
    4   10   17     -2.67      0.00
    5   10   17      2.21      0.00
    6   10   17     -2.66      0.00
    7   10   17      1.16      0.00
    8   10   17     -1.55      0.00
    9   10   17     -2.89      0.00
    0   11   17      3.85      0.00
    1   11   17     -3.41      0.00
    2   11   17     -0.17      0.00
    3   11   17     -0.96      0.00
    4   11   17      0.52      0.00
    5   11   17     -0.07      0.00
    6   11   17     -1.29      0.00
    7   11   17      3.67      0.00
    8   11   17     -0.84      0.00
    9   11   17     -2.33      0.00
   10   11   17      2.14      0.00
    0   12   17     -1.59      0.00
    1   12   17     -0.66      0.00
    2   12   17      2.05      0.00
    3   12   17     -4.05      0.00
    4   12   17     -1.30      0.00
    5   12   17     -4.15      0.00
    6   12   17     -2.43      0.00
    7   12   17     -2.75      0.00
    8   12   17      0.69      0.00
    9   12   17     -2.81      0.00
   10   12   17     -1.74      0.00
    0   13   17     -3.38      0.00
    1   13   17      1.71      0.00
    2   13   17     -1.90      0.00
    3   13   17     -2.64      0.00
    4   13   17     -0.54      0.00
    5   13   17      0.29      0.00
    6   13   17      0.20      0.00
    7   13   17      2.46      0.00
    8   13   17     -0.46      0.00
    0   14   17     -1.11      0.00
    1   14   17      0.71      0.00
    2   14   17      2.56      0.00
    3   14   17      0.13      0.00
    4   14   17      4.04      0.00
    5   14   17      0.08      0.00
    6   14   17     -0.20      0.00
    7   14   17      4.90      0.00
    0   15   17     -1.81      0.00
    1   15   17      4.26      0.00
    2   15   17      0.02      0.00
    3   15   17      0.54      0.00
    4   15   17     -0.76      0.00
    0    0    0      0.00      0.00
# SQUEEZE RESULTS (Version = 150216)
# Note: Data are Listed for all Voids in the P1 Unit Cell
# i.e. Centre of Gravity, Solvent Accessible Volume,
# Recovered number of Electrons in the Void and
# Details about the Squeezed Material
loop_
  _platon_squeeze_void_nr
  _platon_squeeze_void_average_x
  _platon_squeeze_void_average_y
  _platon_squeeze_void_average_z
  _platon_squeeze_void_volume
  _platon_squeeze_void_count_electrons
  _platon_squeeze_void_content
   1  0.000  0.000 -0.020      2427       408 ' '
   2  0.500  0.500 -0.030      2669       365 ' '
# Missing Reflections Below sin(th)/lambda = 0.25
loop_
  _platon_missing_refln_index_h
  _platon_missing_refln_index_k
  _platon_missing_refln_index_l
  _platon_missing_refln_theta
    0    1    0     1.817
    1    1    0     2.570
    2    2    0     5.146
    3    3    0     7.732
    0    1    1     3.466
    0    0    4    11.882
    0    1    5    15.029
    0    0    6    17.989
    0    1    6    18.087
    1    1    6    18.185
    0    2    6    18.378
    0    1    7    21.205
    0    2    7    21.460
    1    2    7    21.545
    0    3    7    21.880
    0    4    7    22.457
_platon_squeeze_void_probe_radius                  1.20
_platon_squeeze_details
)
TITL exp_1050 in P4(2)/mmc
CELL   24.3097   24.3097   14.9770     90.00     90.00     90.00
SPGR P42/mmc
# Solvent Accessible Volume =      5084
# Electrons Found in S.A.V. =       765
# Note: Atoms in Void as Cxxx and Qxxx all others
Q101 0.587 0.999 0.297 !       2.16 eA-3
Q102 0.500 0.951 0.129 !       2.05 eA-3
Q103 0.500 0.940 0.267 !       1.86 eA-3
C104 0.602 0.203-0.009 !       1.84 eA-3
Q105 0.020 0.497 0.312 !       1.42 eA-3
C106 0.370 0.217 0.033 !       1.41 eA-3
C107 1.000 1.000 0.359 !       1.41 eA-3
Q108 0.166 0.501 0.437 !       1.39 eA-3
Q109 0.954 0.438 0.500 !       1.37 eA-3
C110 0.627 0.978 0.293 !       1.36 eA-3
Q111 0.374 0.999 0.016 !       1.35 eA-3
Q112 0.178 0.579 0.487 !       1.24 eA-3
C113 0.226 1.000 0.000 !       1.21 eA-3
Q114 0.447 0.790 0.034 !       1.19 eA-3
C115 0.589 0.225 0.031 !       1.18 eA-3
Q116 0.907 0.499 0.391 !       1.17 eA-3
Q117 0.599 0.031 0.002 !       1.16 eA-3
C118 1.000 0.999 0.078 !       1.15 eA-3
Q119 0.677 0.275 0.043 !       1.15 eA-3
Q120 0.906 0.446 0.473 !       1.14 eA-3
Q121 0.625 0.055 0.000 !       1.09 eA-3
C122 0.190 1.002 0.062 !       1.09 eA-3
C123 0.251 0.348 0.453 !       1.07 eA-3
Q124 0.398 0.102 0.000 !       1.02 eA-3
C125 0.213 0.027 0.057 !       1.02 eA-3
C126 0.596 0.281 0.005 !       1.01 eA-3
C127 0.248 0.431 0.468 !       0.99 eA-3
Q128 1.000 0.430 0.494 !       0.97 eA-3
C129 0.309 0.351 0.493 !       0.97 eA-3
Q130 0.761 0.503 0.312 !       0.96 eA-3
C131 0.500 0.414-0.001 !       0.96 eA-3
C132 0.992 0.722 0.173 !       0.96 eA-3
C133 0.500 0.430 0.496 !       0.96 eA-3
C134 0.418 0.241 0.069 !       0.96 eA-3
C135 1.000 0.078 0.500 !       0.95 eA-3
C136 0.751 0.997 0.078 !       0.93 eA-3
C137 0.944 0.999 0.297 !       0.92 eA-3
Q138 0.551 1.000 0.437 !       0.92 eA-3
Q139 0.478 0.079 0.093 !       0.92 eA-3
C140 1.000 0.058 0.408 !       0.91 eA-3
C141 0.605 1.001 0.344 !       0.91 eA-3
Q142 0.913 0.414 0.502 !       0.91 eA-3
C143 1.000 0.266 0.500 !       0.90 eA-3
C144 0.076 0.025 0.396 !       0.90 eA-3
C145 0.473 0.437-0.001 !       0.89 eA-3
Q146 0.055 0.365 0.580 !       0.89 eA-3
Q147 0.945 0.635 0.420 !       0.89 eA-3
C148 0.962 0.673 0.147 !       0.88 eA-3
Q149 0.477 1.000 0.125 !       0.88 eA-3
C150 1.000 0.243 0.267 !       0.87 eA-3
C151 1.000 0.296 0.234 !       0.87 eA-3
Q152 0.470 0.000 0.891 !       0.87 eA-3
C153 0.977 0.101-0.002 !       0.87 eA-3
C154 1.000 0.955 0.126 !       0.86 eA-3
Q155 0.406 1.000 0.406 !       0.86 eA-3
C156 0.921 0.326 0.079 !       0.86 eA-3
C157 0.447 0.469-0.007 !       0.86 eA-3
Q158 0.272 0.127 0.158 !       0.85 eA-3
C159 1.000 0.096 0.049 !       0.85 eA-3
C160 1.000 0.950 0.285 !       0.84 eA-3
Q161 0.823 0.648 0.044 !       0.84 eA-3
C162 0.024 0.020 0.426 !       0.84 eA-3
C163 0.432 0.756 0.159 !       0.83 eA-3
C164 0.802 1.003 0.125 !       0.82 eA-3
Q165 0.525 0.252 0.163 !       0.82 eA-3
Q166 0.647 0.039-0.004 !       0.82 eA-3
C167 0.329 0.383 0.499 !       0.82 eA-3
C168 1.000 1.001 0.219 !       0.82 eA-3
Q169 0.930 0.650 0.418 !       0.81 eA-3
C170 0.351 0.500 0.500 !       0.81 eA-3
C171 0.466 0.500 0.500 !       0.81 eA-3
Q172 0.400 0.043 0.059 !       0.81 eA-3
C173 0.025 0.022 0.175 !       0.81 eA-3
Q174 0.710 0.736 0.388 !       0.81 eA-3
C175 0.415 0.598 0.462 !       0.80 eA-3
C176 0.892 0.694 0.089 !       0.80 eA-3
C177 0.405 0.467 0.044 !       0.80 eA-3
C178 0.239 0.469 0.495 !       0.80 eA-3
C179 0.561 0.570 0.489 !       0.80 eA-3
Q180 1.000 0.561 0.442 !       0.80 eA-3
C181 0.731 0.502 0.375 !       0.78 eA-3
Q182 0.147 0.453 0.505 !       0.78 eA-3
Q183 0.214 0.502 0.453 !       0.78 eA-3
Q184 0.500 0.181 0.281 !       0.77 eA-3
C185 1.000 0.070-0.006 !       0.77 eA-3
C186 0.058 0.697 0.080 !       0.77 eA-3
Q187 0.093 0.422 0.122 !       0.77 eA-3
Q188 0.401 0.058 0.371 !       0.76 eA-3
Q189 0.079 0.336 0.498 !       0.76 eA-3
C190 0.500 0.477 0.491 !       0.76 eA-3
C191 0.051 1.003 0.141 !       0.75 eA-3
C192 0.702 0.064 0.334 !       0.75 eA-3
C193 0.913 0.633 0.059 !       0.74 eA-3
Q194 0.313 0.109-0.001 !       0.73 eA-3
Q195 0.399 0.917 0.075 !       0.73 eA-3
Q196 0.023 0.573 0.129 !       0.73 eA-3
C197 0.051 0.349 0.075 !       0.73 eA-3
C198 0.335 0.109 0.498 !       0.73 eA-3
C199 0.017 0.736 0.250 !       0.73 eA-3
)
;
_shelx_fab_checksum              86785
loop_
_space_group_symop_operation_xyz
'x, y, z'
'-y, x, z+1/2'
'-x, -y, z'
'y, -x, z+1/2'
'x, -y, -z'
'-x, y, -z'
'y, x, -z+1/2'
'-y, -x, -z+1/2'
'-x, -y, -z'
'y, -x, -z-1/2'
'x, y, -z'
'-y, x, -z-1/2'
'-x, y, z'
'x, -y, z'
'-y, -x, z-1/2'
'y, x, z-1/2'
loop_
_atom_site_label
_atom_site_type_symbol
_atom_site_fract_x
_atom_site_fract_y
_atom_site_fract_z
_atom_site_U_iso_or_equiv
_atom_site_adp_type
_atom_site_occupancy
_atom_site_site_symmetry_order
_atom_site_calc_flag
_atom_site_refinement_flags_posn
_atom_site_refinement_flags_adp
_atom_site_refinement_flags_occupancy
_atom_site_disorder_assembly
_atom_site_disorder_group
Zr1 Zr 0.5000 0.07203(5) 0.11754(9) 0.0613(5) Uani 1 2 d DS TU P . .
Zr2 Zr 0.39924(5) 0.0000 0.0000 0.0288(4) Uani 1 4 d S T P B .
F1 F 0.1350(4) 0.1551(8) 0.1683(11) 0.221(7) Uani 0.575(8) 1 d D U P A 1
F2 F 0.1740(5) 0.1279(7) 0.0554(10) 0.201(6) Uani 0.575(8) 1 d D U P A 1
F3 F 0.1638(7) 0.2101(6) 0.0765(12) 0.239(7) Uani 0.575(8) 1 d D U P A 1
F1A F 0.3171(12) 0.2899(6) 0.3381(15) 0.254(9) Uani 0.425(8) 1 d D U P A 2
F2A F 0.2789(9) 0.2369(10) 0.4239(11) 0.246(9) Uani 0.425(8) 1 d D U P A 2
F3A F 0.3595(7) 0.2261(10) 0.3923(14) 0.242(9) Uani 0.425(8) 1 d D U P A 2
O1 O 0.4165(3) 0.1015(4) 0.1644(6) 0.118(4) Uani 1 1 d D . . . .
O2 O 0.3522(2) 0.0548(2) 0.0873(4) 0.0547(16) Uani 1 1 d D . . . .
O3 O 0.5000 0.0921(9) 0.2592(7) 0.240(10) Uani 0.5 2 d DS TU P B 1
O4 O 0.5000 0.0000 0.272(2) 0.256(10) Uani 1 4 d DS TU P B 1
O5 O 0.5000 0.063(2) 0.259(3) 0.219(10) Uani 0.5 2 d S TU P B 2
O6 O 0.4504(4) 0.0727(5) 0.0000 0.083(4) Uani 1 2 d S T P B .
O7 O 0.4498(4) 0.0000 0.1162(8) 0.082(4) Uani 1 2 d S T P B .
O8 O 0.5000 0.1620(5) 0.1133(13) 0.137(7) Uani 1 2 d S T P B .
C1 C 0.2448(3) 0.2021(3) 0.2377(6) 0.164(4) Uani 1 1 d D U . . .
C2 C 0.2328(3) 0.1671(4) 0.1660(6) 0.158(4) Uani 1 1 d D U . . .
H2 H 0.1975 0.1677 0.1390 0.189 Uiso 0.425(8) 1 calc R U P A 2
C3 C 0.2734(3) 0.1314(3) 0.1347(5) 0.138(4) Uani 1 1 d D U . . .
H3 H 0.2656 0.1077 0.0859 0.165 Uiso 1 1 calc R U . . .
C4 C 0.3249(3) 0.1303(3) 0.1742(6) 0.130(4) Uani 1 1 d D U . . .
C5 C 0.3367(3) 0.1651(4) 0.2446(6) 0.160(4) Uani 1 1 d D U . . .
H5 H 0.3722 0.1645 0.2710 0.192 Uiso 1 1 calc R U . . .
C6 C 0.2964(4) 0.2014(4) 0.2772(6) 0.179(4) Uani 1 1 d D U . . .
H6 H 0.3044 0.2252 0.3257 0.214 Uiso 0.575(8) 1 calc R U P A 1
C7 C 0.3675(4) 0.0924(3) 0.1390(5) 0.113(4) Uani 1 1 d D U . . .
C8 C 0.1781(4) 0.1653(5) 0.1192(8) 0.188(5) Uani 0.575(8) 1 d D U P A 1
C9 C 0.5000 0.0485(6) 0.3070(13) 0.256(9) Uani 0.5 2 d DS TU P B 1
C10 C 0.5000 0.0495(3) 0.4071(3) 0.274(10) Uani 1 2 d DS TU P . .
H10 H 0.5000 0.0494 0.3437 0.329 Uiso 0.5 2 calc R U P B 3
C11 C 0.5000 0.0991(3) 0.4533(3) 0.284(11) Uani 1 2 d DS TU P B .
H11 H 0.5000 0.1329 0.4215 0.341 Uiso 1 2 calc R U P . .
C12 C 0.5000 0.0000 0.4537(3) 0.280(11) Uani 1 4 d DS TU P B .
C8A C 0.3117(6) 0.2377(6) 0.3546(9) 0.211(6) Uani 0.425(8) 1 d D U P A 2
loop_
_atom_site_aniso_label
_atom_site_aniso_U_11
_atom_site_aniso_U_22
_atom_site_aniso_U_33
_atom_site_aniso_U_23
_atom_site_aniso_U_13
_atom_site_aniso_U_12
Zr1 0.0291(6) 0.0774(9) 0.0775(9) -0.0542(7) 0.000 0.000
Zr2 0.0258(7) 0.0287(7) 0.0318(7) 0.000 0.000 0.000
F1 0.064(7) 0.261(16) 0.338(17) -0.145(13) -0.002(10) 0.014(10)
F2 0.095(8) 0.216(11) 0.292(13) -0.124(10) -0.037(8) 0.057(8)
F3 0.180(14) 0.224(12) 0.313(18) -0.105(11) -0.043(12) 0.087(12)
F1A 0.203(18) 0.212(12) 0.35(2) -0.195(12) -0.014(16) 0.007(13)
F2A 0.176(14) 0.276(18) 0.284(15) -0.206(14) 0.028(13) 0.043(15)
F3A 0.164(12) 0.271(17) 0.290(19) -0.214(14) -0.018(11) 0.039(14)
O1 0.042(4) 0.154(8) 0.159(9) -0.131(7) 0.005(5) 0.010(5)
O2 0.038(3) 0.063(4) 0.063(4) -0.027(3) 0.004(3) 0.003(3)
O3 0.326(17) 0.32(2) 0.077(7) -0.026(8) 0.000 0.000
O4 0.338(17) 0.32(2) 0.107(9) 0.000 0.000 0.000
O5 0.288(16) 0.28(2) 0.091(8) -0.023(10) 0.000 0.000
O6 0.058(6) 0.144(10) 0.046(5) 0.000 0.000 -0.050(6)
O7 0.052(6) 0.082(7) 0.113(10) 0.000 -0.044(6) 0.000
O8 0.061(7) 0.065(7) 0.28(2) -0.088(10) 0.000 0.000
C1 0.077(5) 0.158(8) 0.257(10) -0.137(7) 0.039(6) 0.022(6)
C2 0.063(4) 0.156(7) 0.254(9) -0.126(7) 0.023(5) 0.032(5)
C3 0.047(4) 0.131(7) 0.235(9) -0.116(7) 0.022(5) 0.012(5)
C4 0.046(4) 0.132(7) 0.213(9) -0.124(6) 0.026(5) 0.007(5)
C5 0.073(5) 0.165(8) 0.242(9) -0.149(7) 0.023(6) 0.013(6)
C6 0.095(6) 0.179(8) 0.262(9) -0.161(7) 0.027(6) 0.021(6)
C7 0.030(4) 0.121(8) 0.188(10) -0.105(8) 0.019(6) 0.007(5)
C8 0.084(6) 0.195(10) 0.284(11) -0.124(9) -0.006(7) 0.056(7)
C9 0.345(16) 0.32(2) 0.099(7) -0.009(6) 0.000 0.000
C10 0.382(17) 0.34(2) 0.104(8) -0.006(6) 0.000 0.000
C11 0.40(2) 0.34(2) 0.113(11) -0.017(9) 0.000 0.000
C12 0.39(2) 0.34(2) 0.106(11) 0.000 0.000 0.000
C8A 0.135(10) 0.212(11) 0.285(12) -0.186(9) 0.016(8) 0.031(10)
loop_
_atom_type_symbol
_atom_type_description
_atom_type_scat_dispersion_real
_atom_type_scat_dispersion_imag
_atom_type_scat_source
C C 0.0181 0.0091 'International Tables Vol C Tables 4.2.6.8 and 6.1.1.4'
F F 0.0727 0.0534 'International Tables Vol C Tables 4.2.6.8 and 6.1.1.4'
H H 0.0000 0.0000 'International Tables Vol C Tables 4.2.6.8 and 6.1.1.4'
O O 0.0492 0.0322 'International Tables Vol C Tables 4.2.6.8 and 6.1.1.4'
Zr Zr -0.1862 2.2449 'International Tables Vol C Tables 4.2.6.8 and 6.1.1.4'
loop_
_geom_angle_atom_site_label_1
_geom_angle_atom_site_label_2
_geom_angle_atom_site_label_3
_geom_angle
_geom_angle_site_symmetry_1
_geom_angle_site_symmetry_3
O5 Zr1 O7 85.8(13) . .
O5 Zr1 O7 85.8(13) . 3_655
O7 Zr1 O7 69.7(5) . 3_655
O5 Zr1 O6 145.2(3) . 13_655
O7 Zr1 O6 108.8(5) . 13_655
O7 Zr1 O6 71.0(4) 3_655 13_655
O5 Zr1 O6 145.2(3) . .
O7 Zr1 O6 71.0(4) . .
O7 Zr1 O6 108.8(5) 3_655 .
O6 Zr1 O6 68.9(4) 13_655 .
O7 Zr1 O3 101.2(6) . .
O7 Zr1 O3 101.2(6) 3_655 .
O6 Zr1 O3 143.3(3) 13_655 .
O6 Zr1 O3 143.3(3) . .
O5 Zr1 O8 97.4(16) . .
O7 Zr1 O8 145.1(2) . .
O7 Zr1 O8 145.1(2) 3_655 .
O6 Zr1 O8 88.2(6) 13_655 .
O6 Zr1 O8 88.2(6) . .
O3 Zr1 O8 78.7(8) . .
O5 Zr1 O1 73.9(6) . 13_655
O7 Zr1 O1 140.8(4) . 13_655
O7 Zr1 O1 75.6(3) 3_655 13_655
O6 Zr1 O1 75.3(3) 13_655 13_655
O6 Zr1 O1 139.5(4) . 13_655
O3 Zr1 O1 68.1(3) . 13_655
O8 Zr1 O1 72.1(3) . 13_655
O5 Zr1 O1 73.9(6) . .
O7 Zr1 O1 75.6(3) . .
O7 Zr1 O1 140.8(4) 3_655 .
O6 Zr1 O1 139.5(4) 13_655 .
O6 Zr1 O1 75.3(3) . .
O3 Zr1 O1 68.1(3) . .
O8 Zr1 O1 72.1(3) . .
O1 Zr1 O1 127.4(3) 13_655 .
O5 Zr1 Zr2 116.8(10) . .
O7 Zr1 Zr2 35.1(3) . .
O7 Zr1 Zr2 89.1(3) 3_655 .
O6 Zr1 Zr2 89.1(3) 13_655 .
O6 Zr1 Zr2 36.0(3) . .
O3 Zr1 Zr2 127.2(3) . .
O8 Zr1 Zr2 119.2(3) . .
O1 Zr1 Zr2 160.91(17) 13_655 .
O1 Zr1 Zr2 71.70(17) . .
O5 Zr1 Zr2 116.8(10) . 9_655
O7 Zr1 Zr2 89.1(3) . 9_655
O7 Zr1 Zr2 35.1(3) 3_655 9_655
O6 Zr1 Zr2 36.0(3) 13_655 9_655
O6 Zr1 Zr2 89.1(3) . 9_655
O3 Zr1 Zr2 127.2(3) . 9_655
O8 Zr1 Zr2 119.2(3) . 9_655
O1 Zr1 Zr2 71.70(17) 13_655 9_655
O1 Zr1 Zr2 160.91(17) . 9_655
Zr2 Zr1 Zr2 89.22(4) . 9_655
O5 Zr1 Zr1 84.2(15) . 3_655
O7 Zr1 Zr1 34.9(2) . 3_655
O7 Zr1 Zr1 34.9(2) 3_655 3_655
O6 Zr1 Zr1 90.4(3) 13_655 3_655
O6 Zr1 Zr1 90.4(3) . 3_655
O3 Zr1 Zr1 103.0(6) . 3_655
O8 Zr1 Zr1 178.3(5) . 3_655
O1 Zr1 Zr1 108.5(2) 13_655 3_655
O1 Zr1 Zr1 108.5(2) . 3_655
Zr2 Zr1 Zr1 59.87(2) . 3_655
Zr2 Zr1 Zr1 59.87(2) 9_655 3_655
O7 Zr2 O7 109.5(7) 11 .
O7 Zr2 O6 70.6(2) 11 .
O7 Zr2 O6 70.6(2) . .
O7 Zr2 O6 70.6(2) 11 5
O7 Zr2 O6 70.6(2) . 5
O6 Zr2 O6 109.8(7) . 5
O7 Zr2 O2 79.3(3) 11 5
O7 Zr2 O2 142.10(18) . 5
O6 Zr2 O2 142.99(18) . 5
O6 Zr2 O2 78.6(3) 5 5
O7 Zr2 O2 142.10(18) 11 14
O7 Zr2 O2 79.3(3) . 14
O6 Zr2 O2 142.99(18) . 14
O6 Zr2 O2 78.6(3) 5 14
O2 Zr2 O2 73.3(4) 5 14
O7 Zr2 O2 79.3(3) 11 11
O7 Zr2 O2 142.10(18) . 11
O6 Zr2 O2 78.6(3) . 11
O6 Zr2 O2 142.99(18) 5 11
O2 Zr2 O2 75.0(3) 5 11
O2 Zr2 O2 117.0(3) 14 11
O7 Zr2 O2 142.10(18) 11 .
O7 Zr2 O2 79.3(3) . .
O6 Zr2 O2 78.6(3) . .
O6 Zr2 O2 142.99(18) 5 .
O2 Zr2 O2 117.0(3) 5 .
O2 Zr2 O2 75.0(3) 14 .
O2 Zr2 O2 73.3(4) 11 .
O7 Zr2 Zr1 90.4(3) 11 3_655
O7 Zr2 Zr1 35.16(17) . 3_655
O6 Zr2 Zr1 90.4(3) . 3_655
O6 Zr2 Zr1 35.45(17) 5 3_655
O2 Zr2 Zr1 111.26(16) 5 3_655
O2 Zr2 Zr1 76.11(15) 14 3_655
O2 Zr2 Zr1 166.87(15) 11 3_655
O2 Zr2 Zr1 111.79(17) . 3_655
O7 Zr2 Zr1 35.16(17) 11 11
O7 Zr2 Zr1 90.4(3) . 11
O6 Zr2 Zr1 35.45(17) . 11
O6 Zr2 Zr1 90.4(3) 5 11
O2 Zr2 Zr1 111.79(17) 5 11
O2 Zr2 Zr1 166.87(15) 14 11
O2 Zr2 Zr1 76.11(15) 11 11
O2 Zr2 Zr1 111.26(16) . 11
Zr1 Zr2 Zr1 90.78(4) 3_655 11
O7 Zr2 Zr1 35.16(17) 11 9_655
O7 Zr2 Zr1 90.4(3) . 9_655
O6 Zr2 Zr1 90.4(3) . 9_655
O6 Zr2 Zr1 35.45(17) 5 9_655
O2 Zr2 Zr1 76.11(15) 5 9_655
O2 Zr2 Zr1 111.26(16) 14 9_655
O2 Zr2 Zr1 111.79(17) 11 9_655
O2 Zr2 Zr1 166.87(15) . 9_655
Zr1 Zr2 Zr1 60.63(5) 3_655 9_655
Zr1 Zr2 Zr1 60.27(5) 11 9_655
O7 Zr2 Zr1 90.4(3) 11 .
O7 Zr2 Zr1 35.16(17) . .
O6 Zr2 Zr1 35.45(17) . .
O6 Zr2 Zr1 90.4(3) 5 .
O2 Zr2 Zr1 166.87(15) 5 .
O2 Zr2 Zr1 111.79(17) 14 .
O2 Zr2 Zr1 111.26(16) 11 .
O2 Zr2 Zr1 76.11(15) . .
Zr1 Zr2 Zr1 60.27(5) 3_655 .
Zr1 Zr2 Zr1 60.63(5) 11 .
Zr1 Zr2 Zr1 90.78(4) 9_655 .
C8 F2 F2 136.3(9) . 11
C7 O1 Zr1 133.9(6) . .
C7 O2 Zr2 131.1(5) . .
C9 O3 Zr1 111.0(14) . .
C9 O4 C9 132(3) 3_655 .
Zr1 O6 Zr1 111.1(4) 11 .
Zr1 O6 Zr2 108.6(4) 11 .
Zr1 O6 Zr2 108.6(4) . .
Zr2 O7 Zr1 109.7(4) . 3_655
Zr2 O7 Zr1 109.7(4) . .
Zr1 O7 Zr1 110.3(5) 3_655 .
C6 C1 C2 120.5(5) . .
C6 C1 C1 121.6(7) . 7
C2 C1 C1 117.5(8) . 7
C3 C2 C1 119.3(5) . .
C3 C2 C8 116.7(6) . .
C1 C2 C8 123.9(6) . .
C4 C3 C2 120.4(5) . .
C5 C4 C3 120.2(5) . .
C5 C4 C7 120.3(7) . .
C3 C4 C7 119.4(7) . .
C4 C5 C6 120.2(5) . .
C1 C6 C5 119.4(5) . .
C1 C6 C8A 123.1(7) . .
C5 C6 C8A 117.6(7) . .
O2 C7 O1 126.1(9) . .
O2 C7 C4 117.7(7) . .
O1 C7 C4 116.2(8) . .
F1 C8 F3 102.8(10) . .
F1 C8 F2 102.5(10) . .
F3 C8 F2 101.4(10) . .
F1 C8 C2 117.0(9) . .
F3 C8 C2 115.9(9) . .
F2 C8 C2 115.0(8) . .
O3 C9 O4 122(2) . .
O3 C9 C10 123.0(11) . .
O4 C9 C10 115(2) . .
C11 C10 C12 120.1(4) . .
C11 C10 C9 120.8(7) . .
C12 C10 C9 119.1(8) . .
C10 C11 C11 119.8(3) . 11_556
C12 C12 C12 0.0 5_556 11_556
C12 C12 C10 120.1(3) 5_556 3_655
C12 C12 C10 120.1(3) 11_556 3_655
C12 C12 C10 120.1(3) 5_556 .
C12 C12 C10 120.1(3) 11_556 .
C10 C12 C10 119.8(5) 3_655 .
F1A C8A F2A 103.1(11) . .
F1A C8A F3A 101.6(11) . .
F2A C8A F3A 101.1(11) . .
F1A C8A C6 116.9(9) . .
F2A C8A C6 116.8(9) . .
F3A C8A C6 114.9(9) . .
loop_
_geom_bond_atom_site_label_1
_geom_bond_atom_site_label_2
_geom_bond_distance
_geom_bond_site_symmetry_2
Zr1 O5 2.13(5) .
Zr1 O7 2.134(6) .
Zr1 O7 2.134(6) 3_655
Zr1 O6 2.134(6) 13_655
Zr1 O6 2.134(6) .
Zr1 O3 2.177(10) .
Zr1 O8 2.188(12) .
Zr1 O1 2.265(6) 13_655
Zr1 O1 2.265(6) .
Zr1 Zr2 3.4877(10) .
Zr1 Zr2 3.4877(10) 9_655
Zr1 Zr1 3.502(3) 3_655
Zr2 O7 2.130(10) 11
Zr2 O7 2.130(10) .
Zr2 O6 2.160(10) .
Zr2 O6 2.160(10) 5
Zr2 O2 2.190(6) 5
Zr2 O2 2.190(6) 14
Zr2 O2 2.190(6) 11
Zr2 O2 2.190(6) .
Zr2 Zr1 3.4877(10) 3_655
Zr2 Zr1 3.4877(10) 11
Zr2 Zr1 3.4877(10) 9_655
F1 C8 1.303(9) .
F2 C8 1.323(9) .
F2 F2 1.66(3) 11
F3 C8 1.311(9) .
F1A C8A 1.298(9) .
F2A C8A 1.310(9) .
F3A C8A 1.322(9) .
O1 C7 1.270(10) .
O2 C7 1.255(10) .
O3 C9 1.280(10) .
O4 C9 1.288(9) 3_655
O4 C9 1.288(9) .
O6 Zr1 2.134(6) 11
O7 Zr1 2.134(6) 3_655
C1 C6 1.388(7) .
C1 C2 1.399(7) .
C1 C1 1.514(13) 7
C2 C3 1.394(7) .
C2 C8 1.505(8) .
C3 C4 1.385(7) .
C4 C5 1.382(7) .
C4 C7 1.483(11) .
C5 C6 1.406(7) .
C6 C8A 1.504(8) .
C9 C10 1.500(19) .
C10 C11 1.390(7) .
C10 C12 1.391(7) .
C11 C11 1.399(9) 11_556
C12 C12 1.388(9) 5_556
C12 C12 1.388(9) 11_556
C12 C10 1.391(7) 3_655
